MODEL 1
REMARK VINA RESULT:      -4.2      0.000      0.000
REMARK  Name = *****
REMARK                            x       y       z     vdW  Elec       q    Type
REMARK                         _______ _______ _______ _____ _____    ______ ____
ROOT
ATOM      1  C   LIG    1       24.882 -32.093  11.241  0.00  0.00    +0.147 C 
ATOM      2  C   LIG    1       23.419 -32.609  11.212  0.00  0.00    +0.068 C 
ATOM      3  C   LIG    1       22.409 -31.934  12.168  0.00  0.00    +0.141 C 
ATOM      4  O   LIG    1       22.921 -32.024  13.488  0.00  0.00    -0.344 OA
ATOM      5  C   LIG    1       22.118 -31.575  14.562  0.00  0.00    +0.172 C 
ATOM      6  C   LIG    1       20.642 -31.413  14.208  0.00  0.00    +0.097 C 
ATOM      7  C   LIG    1       20.186 -32.540  13.281  0.00  0.00    +0.136 C 
ATOM      8  C   LIG    1       22.760 -30.376  15.292  0.00  0.00    +0.096 C 
ATOM      9  C   LIG    1       22.707 -28.985  14.640  0.00  0.00    +0.122 C 
ATOM     10  C   LIG    1       21.469 -28.185  15.082  0.00  0.00    +0.066 C 
ATOM     11  C   LIG    1       20.996 -27.171  14.085  0.00  0.00    +0.154 C 
ATOM     12  C   LIG    1       21.669 -25.854  13.753  0.00  0.00    +0.171 C 
ATOM     13  C   LIG    1       23.077 -25.621  14.155  0.00  0.00    +0.014 C 
ATOM     14  C   LIG    1       24.081 -25.430  13.289  0.00  0.00    +0.090 C 
ATOM     15  C   LIG    1       25.505 -25.284  13.667  0.00  0.00    +0.332 C 
ATOM     16  O   LIG    1       26.369 -24.982  12.861  0.00  0.00    -0.246 OA
ATOM     17  O   LIG    1       25.680 -25.605  14.962  0.00  0.00    -0.458 OA
ATOM     18  C   LIG    1       27.023 -25.763  15.484  0.00  0.00    +0.177 C 
ATOM     19  C   LIG    1       27.837 -24.470  15.367  0.00  0.00    +0.052 C 
ATOM     20  C   LIG    1       27.762 -26.955  14.850  0.00  0.00    +0.071 C 
ATOM     21  C   LIG    1       26.999 -28.259  14.852  0.00  0.00    -0.023 C 
ATOM     22  C   LIG    1       27.515 -29.410  15.309  0.00  0.00    -0.004 C 
ATOM     23  C   LIG    1       26.873 -30.699  15.154  0.00  0.00    -0.000 C 
ATOM     24  C   LIG    1       27.504 -31.836  15.480  0.00  0.00    +0.000 C 
ATOM     25  C   LIG    1       27.028 -33.194  15.384  0.00  0.00    +0.000 C 
ATOM     26  C   LIG    1       26.231 -33.824  14.511  0.00  0.00    -0.000 C 
ATOM     27  C   LIG    1       25.444 -33.376  13.387  0.00  0.00    -0.002 C 
ATOM     28  O   LIG    1       20.590 -25.937  14.698  0.00  0.00    -0.364 OA
ATOM     29  C   LIG    1       21.018 -32.578  12.000  0.00  0.00    +0.155 C 
ATOM     30  C   LIG    1       25.752 -32.489  12.428  0.00  0.00    +0.004 C 
ENDROOT
BRANCH   7  31
ATOM     31  O   LIG    1       20.272 -33.822  13.916  0.00  0.00    -0.391 OA
ATOM     32  H   LIG    1       19.446 -34.310  13.705  0.00  0.00    +0.210 HD
ENDBRANCH   7  31
BRANCH   5  33
ATOM     33  O   LIG    1       22.180 -32.687  15.474  0.00  0.00    -0.364 OA
ATOM     34  H   LIG    1       22.879 -32.440  16.107  0.00  0.00    +0.213 HD
ENDBRANCH   5  33
BRANCH   9  35
ATOM     35  O   LIG    1       22.789 -29.064  13.229  0.00  0.00    -0.392 OA
ATOM     36  H   LIG    1       23.721 -28.934  12.966  0.00  0.00    +0.210 HD
ENDBRANCH   9  35
BRANCH  29  37
ATOM     37  C   LIG    1       20.262 -31.810  10.933  0.00  0.00    +0.313 C 
ATOM     38  O   LIG    1       20.406 -30.617  10.719  0.00  0.00    -0.251 OA
BRANCH  37  39
ATOM     39  O   LIG    1       19.401 -32.563  10.213  0.00  0.00    -0.480 OA
ATOM     40  H   LIG    1       18.660 -32.949  10.715  0.00  0.00    +0.295 HD
ENDBRANCH  37  39
ENDBRANCH  29  37
BRANCH   1  41
ATOM     41  O   LIG    1       25.001 -30.672  11.101  0.00  0.00    -0.341 OA
BRANCH  41  47
ATOM     42  C   LIG    1       26.732 -32.973   8.026  0.00  0.00    +0.040 C 
ATOM     43  C   LIG    1       25.970 -31.773   8.571  0.00  0.00    +0.148 C 
ATOM     44  C   LIG    1       25.790 -30.693   7.495  0.00  0.00    +0.162 C 
ATOM     45  C   LIG    1       25.047 -29.492   8.108  0.00  0.00    +0.116 C 
ATOM     46  C   LIG    1       25.781 -28.999   9.361  0.00  0.00    +0.189 C 
ATOM     47  C   LIG    1       26.098 -30.159  10.340  0.00  0.00    +0.281 C 
ATOM     48  O   LIG    1       26.727 -31.261   9.670  0.00  0.00    -0.343 OA
BRANCH  45  49
ATOM     49  N   LIG    1       24.940 -28.387   7.116  0.00  0.00    -0.323 NA
ATOM     50  H   LIG    1       25.312 -28.706   6.220  0.00  0.00    +0.119 HD
ATOM     51  H   LIG    1       25.573 -27.640   7.412  0.00  0.00    +0.119 HD
ENDBRANCH  45  49
BRANCH  44  52
ATOM     52  O   LIG    1       25.042 -31.186   6.381  0.00  0.00    -0.388 OA
ATOM     53  H   LIG    1       24.534 -30.425   6.048  0.00  0.00    +0.210 HD
ENDBRANCH  44  52
BRANCH  46  54
ATOM     54  O   LIG    1       26.994 -28.336   8.961  0.00  0.00    -0.385 OA
ATOM     55  H   LIG    1       27.528 -29.020   8.506  0.00  0.00    +0.210 HD
ENDBRANCH  46  54
ENDBRANCH  41  47
ENDBRANCH   1  41
TORSDOF 10
ENDMDL
MODEL 2
REMARK VINA RESULT:      -3.9      2.534      7.364
REMARK  Name = *****
REMARK                            x       y       z     vdW  Elec       q    Type
REMARK                         _______ _______ _______ _____ _____    ______ ____
ROOT
ATOM      1  C   LIG    1       25.011 -29.154  12.365  0.00  0.00    +0.147 C 
ATOM      2  C   LIG    1       25.605 -29.245  10.935  0.00  0.00    +0.068 C 
ATOM      3  C   LIG    1       25.100 -30.391  10.028  0.00  0.00    +0.141 C 
ATOM      4  O   LIG    1       25.310 -31.618  10.710  0.00  0.00    -0.344 OA
ATOM      5  C   LIG    1       25.032 -32.829  10.034  0.00  0.00    +0.172 C 
ATOM      6  C   LIG    1       24.916 -32.681   8.519  0.00  0.00    +0.097 C 
ATOM      7  C   LIG    1       25.955 -31.690   7.996  0.00  0.00    +0.136 C 
ATOM      8  C   LIG    1       23.888 -33.612  10.713  0.00  0.00    +0.096 C 
ATOM      9  C   LIG    1       22.437 -33.141  10.517  0.00  0.00    +0.122 C 
ATOM     10  C   LIG    1       21.765 -33.825   9.313  0.00  0.00    +0.066 C 
ATOM     11  C   LIG    1       20.674 -33.023   8.673  0.00  0.00    +0.154 C 
ATOM     12  C   LIG    1       19.291 -32.770   9.240  0.00  0.00    +0.171 C 
ATOM     13  C   LIG    1       19.024 -33.019  10.677  0.00  0.00    +0.014 C 
ATOM     14  C   LIG    1       18.680 -32.065  11.551  0.00  0.00    +0.090 C 
ATOM     15  C   LIG    1       18.495 -32.279  13.005  0.00  0.00    +0.332 C 
ATOM     16  O   LIG    1       18.055 -31.415  13.743  0.00  0.00    -0.246 OA
ATOM     17  O   LIG    1       18.950 -33.495  13.359  0.00  0.00    -0.458 OA
ATOM     18  C   LIG    1       19.089 -33.825  14.764  0.00  0.00    +0.177 C 
ATOM     19  C   LIG    1       17.746 -33.764  15.500  0.00  0.00    +0.052 C 
ATOM     20  C   LIG    1       20.157 -32.967  15.465  0.00  0.00    +0.071 C 
ATOM     21  C   LIG    1       21.494 -32.908  14.765  0.00  0.00    -0.023 C 
ATOM     22  C   LIG    1       22.657 -33.157  15.385  0.00  0.00    -0.004 C 
ATOM     23  C   LIG    1       23.956 -32.930  14.784  0.00  0.00    -0.000 C 
ATOM     24  C   LIG    1       25.084 -33.037  15.500  0.00  0.00    +0.000 C 
ATOM     25  C   LIG    1       26.447 -32.839  15.073  0.00  0.00    +0.000 C 
ATOM     26  C   LIG    1       27.020 -32.003  14.198  0.00  0.00    -0.000 C 
ATOM     27  C   LIG    1       26.494 -31.045  13.254  0.00  0.00    -0.002 C 
ATOM     28  O   LIG    1       19.542 -33.823   8.297  0.00  0.00    -0.364 OA
ATOM     29  C   LIG    1       25.800 -30.321   8.656  0.00  0.00    +0.155 C 
ATOM     30  C   LIG    1       25.488 -30.169  13.397  0.00  0.00    +0.004 C 
ENDROOT
BRANCH   7  31
ATOM     31  O   LIG    1       27.294 -32.152   8.218  0.00  0.00    -0.391 OA
ATOM     32  H   LIG    1       27.418 -32.236   9.189  0.00  0.00    +0.210 HD
ENDBRANCH   7  31
BRANCH   5  33
ATOM     33  O   LIG    1       26.235 -33.587  10.261  0.00  0.00    -0.364 OA
ATOM     34  H   LIG    1       26.094 -34.414   9.765  0.00  0.00    +0.213 HD
ENDBRANCH   5  33
BRANCH   9  35
ATOM     35  O   LIG    1       22.351 -31.732  10.419  0.00  0.00    -0.392 OA
ATOM     36  H   LIG    1       23.047 -31.340  10.983  0.00  0.00    +0.210 HD
ENDBRANCH   9  35
BRANCH  29  37
ATOM     37  C   LIG    1       24.962 -29.454   7.737  0.00  0.00    +0.313 C 
ATOM     38  O   LIG    1       23.761 -29.596   7.572  0.00  0.00    -0.251 OA
BRANCH  37  39
ATOM     39  O   LIG    1       25.657 -28.485   7.101  0.00  0.00    -0.480 OA
ATOM     40  H   LIG    1       25.142 -27.935   6.482  0.00  0.00    +0.295 HD
ENDBRANCH  37  39
ENDBRANCH  29  37
BRANCH   1  41
ATOM     41  O   LIG    1       23.580 -29.171  12.404  0.00  0.00    -0.341 OA
BRANCH  41  47
ATOM     42  C   LIG    1       22.849 -25.361  14.049  0.00  0.00    +0.040 C 
ATOM     43  C   LIG    1       22.425 -26.706  13.474  0.00  0.00    +0.148 C 
ATOM     44  C   LIG    1       20.920 -26.942  13.663  0.00  0.00    +0.162 C 
ATOM     45  C   LIG    1       20.553 -28.326  13.098  0.00  0.00    +0.116 C 
ATOM     46  C   LIG    1       21.433 -29.409  13.735  0.00  0.00    +0.189 C 
ATOM     47  C   LIG    1       22.938 -29.040  13.676  0.00  0.00    +0.281 C 
ATOM     48  O   LIG    1       23.177 -27.710  14.159  0.00  0.00    -0.343 OA
BRANCH  45  49
ATOM     49  N   LIG    1       19.117 -28.627  13.351  0.00  0.00    -0.323 NA
ATOM     50  H   LIG    1       18.800 -28.083  14.156  0.00  0.00    +0.119 HD
ATOM     51  H   LIG    1       19.051 -29.602  13.652  0.00  0.00    +0.119 HD
ENDBRANCH  45  49
BRANCH  44  52
ATOM     52  O   LIG    1       20.147 -25.944  12.993  0.00  0.00    -0.388 OA
ATOM     53  H   LIG    1       19.660 -26.415  12.293  0.00  0.00    +0.210 HD
ENDBRANCH  44  52
BRANCH  46  54
ATOM     54  O   LIG    1       21.019 -29.603  15.100  0.00  0.00    -0.385 OA
ATOM     55  H   LIG    1       21.606 -30.304  15.454  0.00  0.00    +0.210 HD
ENDBRANCH  46  54
ENDBRANCH  41  47
ENDBRANCH   1  41
TORSDOF 10
ENDMDL
MODEL 3
REMARK VINA RESULT:      -2.8      2.403      7.439
REMARK  Name = *****
REMARK                            x       y       z     vdW  Elec       q    Type
REMARK                         _______ _______ _______ _____ _____    ______ ____
ROOT
ATOM      1  C   LIG    1       22.946 -29.764  13.882  0.00  0.00    +0.147 C 
ATOM      2  C   LIG    1       23.570 -28.426  14.361  0.00  0.00    +0.068 C 
ATOM      3  C   LIG    1       24.735 -27.847  13.526  0.00  0.00    +0.141 C 
ATOM      4  O   LIG    1       25.747 -28.838  13.432  0.00  0.00    -0.344 OA
ATOM      5  C   LIG    1       26.972 -28.503  12.809  0.00  0.00    +0.172 C 
ATOM      6  C   LIG    1       27.205 -27.002  12.664  0.00  0.00    +0.097 C 
ATOM      7  C   LIG    1       26.706 -26.260  13.904  0.00  0.00    +0.136 C 
ATOM      8  C   LIG    1       27.208 -29.336  11.531  0.00  0.00    +0.096 C 
ATOM      9  C   LIG    1       26.433 -28.983  10.251  0.00  0.00    +0.122 C 
ATOM     10  C   LIG    1       27.203 -27.989   9.364  0.00  0.00    +0.066 C 
ATOM     11  C   LIG    1       26.335 -27.129   8.497  0.00  0.00    +0.154 C 
ATOM     12  C   LIG    1       25.577 -27.571   7.261  0.00  0.00    +0.171 C 
ATOM     13  C   LIG    1       25.355 -29.015   7.007  0.00  0.00    +0.014 C 
ATOM     14  C   LIG    1       24.148 -29.592   6.972  0.00  0.00    +0.090 C 
ATOM     15  C   LIG    1       23.911 -31.045   6.806  0.00  0.00    +0.332 C 
ATOM     16  O   LIG    1       22.797 -31.512   6.649  0.00  0.00    -0.246 OA
ATOM     17  O   LIG    1       25.066 -31.723   6.936  0.00  0.00    -0.458 OA
ATOM     18  C   LIG    1       25.037 -33.168   7.049  0.00  0.00    +0.177 C 
ATOM     19  C   LIG    1       24.422 -33.825   5.807  0.00  0.00    +0.052 C 
ATOM     20  C   LIG    1       24.345 -33.642   8.339  0.00  0.00    +0.071 C 
ATOM     21  C   LIG    1       24.837 -32.987   9.609  0.00  0.00    -0.023 C 
ATOM     22  C   LIG    1       25.217 -33.682  10.692  0.00  0.00    -0.004 C 
ATOM     23  C   LIG    1       25.517 -33.077  11.974  0.00  0.00    -0.000 C 
ATOM     24  C   LIG    1       25.732 -33.825  13.065  0.00  0.00    +0.000 C 
ATOM     25  C   LIG    1       26.029 -33.397  14.410  0.00  0.00    +0.000 C 
ATOM     26  C   LIG    1       25.641 -32.345  15.143  0.00  0.00    -0.000 C 
ATOM     27  C   LIG    1       24.863 -31.166  14.847  0.00  0.00    -0.002 C 
ATOM     28  O   LIG    1       26.870 -26.951   7.177  0.00  0.00    -0.364 OA
ATOM     29  C   LIG    1       25.222 -26.525  14.152  0.00  0.00    +0.155 C 
ATOM     30  C   LIG    1       23.742 -31.042  14.119  0.00  0.00    +0.004 C 
ENDROOT
BRANCH   7  31
ATOM     31  O   LIG    1       27.437 -26.633  15.080  0.00  0.00    -0.391 OA
ATOM     32  H   LIG    1       28.175 -27.215  14.794  0.00  0.00    +0.210 HD
ENDBRANCH   7  31
BRANCH   5  33
ATOM     33  O   LIG    1       27.938 -28.957  13.775  0.00  0.00    -0.364 OA
ATOM     34  H   LIG    1       27.610 -28.609  14.624  0.00  0.00    +0.213 HD
ENDBRANCH   5  33
BRANCH   9  35
ATOM     35  O   LIG    1       25.130 -28.510  10.540  0.00  0.00    -0.392 OA
ATOM     36  H   LIG    1       25.104 -28.228  11.475  0.00  0.00    +0.210 HD
ENDBRANCH   9  35
BRANCH  29  37
ATOM     37  C   LIG    1       24.437 -25.385  13.534  0.00  0.00    +0.313 C 
ATOM     38  O   LIG    1       23.244 -25.437  13.280  0.00  0.00    -0.251 OA
BRANCH  37  39
ATOM     39  O   LIG    1       25.170 -24.278  13.283  0.00  0.00    -0.480 OA
ATOM     40  H   LIG    1       25.733 -24.318  12.488  0.00  0.00    +0.295 HD
ENDBRANCH  37  39
ENDBRANCH  29  37
BRANCH   1  41
ATOM     41  O   LIG    1       22.565 -29.768  12.501  0.00  0.00    -0.341 OA
BRANCH  41  47
ATOM     42  C   LIG    1       20.855 -32.578   9.870  0.00  0.00    +0.040 C 
ATOM     43  C   LIG    1       21.031 -31.905  11.224  0.00  0.00    +0.148 C 
ATOM     44  C   LIG    1       19.946 -32.353  12.214  0.00  0.00    +0.162 C 
ATOM     45  C   LIG    1       20.150 -31.618  13.550  0.00  0.00    +0.116 C 
ATOM     46  C   LIG    1       20.188 -30.102  13.320  0.00  0.00    +0.189 C 
ATOM     47  C   LIG    1       21.171 -29.713  12.186  0.00  0.00    +0.281 C 
ATOM     48  O   LIG    1       20.953 -30.495  11.003  0.00  0.00    -0.343 OA
BRANCH  45  49
ATOM     49  N   LIG    1       19.058 -31.959  14.503  0.00  0.00    -0.323 NA
ATOM     50  H   LIG    1       19.175 -31.407  15.355  0.00  0.00    +0.119 HD
ATOM     51  H   LIG    1       19.194 -32.928  14.799  0.00  0.00    +0.119 HD
ENDBRANCH  45  49
BRANCH  44  52
ATOM     52  O   LIG    1       20.000 -33.764  12.443  0.00  0.00    -0.388 OA
ATOM     53  H   LIG    1       19.092 -34.087  12.304  0.00  0.00    +0.210 HD
ENDBRANCH  44  52
BRANCH  46  54
ATOM     54  O   LIG    1       18.859 -29.644  13.009  0.00  0.00    -0.385 OA
ATOM     55  H   LIG    1       18.904 -28.666  13.046  0.00  0.00    +0.210 HD
ENDBRANCH  46  54
ENDBRANCH  41  47
ENDBRANCH   1  41
TORSDOF 10
ENDMDL
MODEL 4
REMARK VINA RESULT:      -2.4      1.300      1.957
REMARK  Name = *****
REMARK                            x       y       z     vdW  Elec       q    Type
REMARK                         _______ _______ _______ _____ _____    ______ ____
ROOT
ATOM      1  C   LIG    1       24.120 -31.740  10.838  0.00  0.00    +0.147 C 
ATOM      2  C   LIG    1       22.664 -32.268  10.929  0.00  0.00    +0.068 C 
ATOM      3  C   LIG    1       21.780 -31.720  12.074  0.00  0.00    +0.141 C 
ATOM      4  O   LIG    1       22.451 -31.958  13.302  0.00  0.00    -0.344 OA
ATOM      5  C   LIG    1       21.788 -31.646  14.512  0.00  0.00    +0.172 C 
ATOM      6  C   LIG    1       20.280 -31.462  14.363  0.00  0.00    +0.097 C 
ATOM      7  C   LIG    1       19.711 -32.479  13.373  0.00  0.00    +0.136 C 
ATOM      8  C   LIG    1       22.518 -30.532  15.292  0.00  0.00    +0.096 C 
ATOM      9  C   LIG    1       22.388 -29.075  14.818  0.00  0.00    +0.122 C 
ATOM     10  C   LIG    1       21.215 -28.348  15.500  0.00  0.00    +0.066 C 
ATOM     11  C   LIG    1       20.626 -27.230  14.694  0.00  0.00    +0.154 C 
ATOM     12  C   LIG    1       21.255 -25.876  14.439  0.00  0.00    +0.171 C 
ATOM     13  C   LIG    1       22.703 -25.674  14.688  0.00  0.00    +0.014 C 
ATOM     14  C   LIG    1       23.592 -25.371  13.734  0.00  0.00    +0.090 C 
ATOM     15  C   LIG    1       25.053 -25.252  13.949  0.00  0.00    +0.332 C 
ATOM     16  O   LIG    1       25.811 -24.848  13.084  0.00  0.00    -0.246 OA
ATOM     17  O   LIG    1       25.385 -25.720  15.166  0.00  0.00    -0.458 OA
ATOM     18  C   LIG    1       26.782 -25.922  15.497  0.00  0.00    +0.177 C 
ATOM     19  C   LIG    1       27.578 -24.613  15.433  0.00  0.00    +0.052 C 
ATOM     20  C   LIG    1       27.435 -27.022  14.642  0.00  0.00    +0.071 C 
ATOM     21  C   LIG    1       26.674 -28.327  14.585  0.00  0.00    -0.023 C 
ATOM     22  C   LIG    1       27.241 -29.516  14.838  0.00  0.00    -0.004 C 
ATOM     23  C   LIG    1       26.582 -30.787  14.613  0.00  0.00    -0.000 C 
ATOM     24  C   LIG    1       27.246 -31.946  14.724  0.00  0.00    +0.000 C 
ATOM     25  C   LIG    1       26.758 -33.289  14.529  0.00  0.00    +0.000 C 
ATOM     26  C   LIG    1       25.858 -33.824  13.693  0.00  0.00    -0.000 C 
ATOM     27  C   LIG    1       24.939 -33.257  12.734  0.00  0.00    -0.002 C 
ATOM     28  O   LIG    1       20.301 -26.081  15.492  0.00  0.00    -0.364 OA
ATOM     29  C   LIG    1       20.378 -32.357  12.004  0.00  0.00    +0.155 C 
ATOM     30  C   LIG    1       25.128 -32.261  11.855  0.00  0.00    +0.004 C 
ENDROOT
BRANCH   7  31
ATOM     31  O   LIG    1       19.871 -33.825  13.839  0.00  0.00    -0.391 OA
ATOM     32  H   LIG    1       20.639 -34.210  13.363  0.00  0.00    +0.210 HD
ENDBRANCH   7  31
BRANCH   5  33
ATOM     33  O   LIG    1       21.960 -32.856  15.273  0.00  0.00    -0.364 OA
ATOM     34  H   LIG    1       21.375 -33.501  14.833  0.00  0.00    +0.213 HD
ENDBRANCH   5  33
BRANCH   9  35
ATOM     35  O   LIG    1       22.295 -28.989  13.409  0.00  0.00    -0.392 OA
ATOM     36  H   LIG    1       23.181 -28.783  13.053  0.00  0.00    +0.210 HD
ENDBRANCH   9  35
BRANCH  29  37
ATOM     37  C   LIG    1       19.498 -31.480  11.135  0.00  0.00    +0.313 C 
ATOM     38  O   LIG    1       19.721 -31.243   9.959  0.00  0.00    -0.251 OA
BRANCH  37  39
ATOM     39  O   LIG    1       18.419 -30.973  11.770  0.00  0.00    -0.480 OA
ATOM     40  H   LIG    1       17.830 -31.629  12.187  0.00  0.00    +0.295 HD
ENDBRANCH  37  39
ENDBRANCH  29  37
BRANCH   1  41
ATOM     41  O   LIG    1       24.224 -30.312  10.852  0.00  0.00    -0.341 OA
BRANCH  41  47
ATOM     42  C   LIG    1       27.231 -27.438  11.519  0.00  0.00    +0.040 C 
ATOM     43  C   LIG    1       26.706 -28.773  11.010  0.00  0.00    +0.148 C 
ATOM     44  C   LIG    1       27.752 -29.490  10.144  0.00  0.00    +0.162 C 
ATOM     45  C   LIG    1       27.158 -30.813   9.629  0.00  0.00    +0.116 C 
ATOM     46  C   LIG    1       25.832 -30.551   8.905  0.00  0.00    +0.189 C 
ATOM     47  C   LIG    1       24.874 -29.672   9.750  0.00  0.00    +0.281 C 
ATOM     48  O   LIG    1       25.531 -28.496  10.244  0.00  0.00    -0.343 OA
BRANCH  45  49
ATOM     49  N   LIG    1       28.114 -31.488   8.709  0.00  0.00    -0.323 NA
ATOM     50  H   LIG    1       28.290 -30.880   7.907  0.00  0.00    +0.119 HD
ATOM     51  H   LIG    1       27.643 -32.307   8.317  0.00  0.00    +0.119 HD
ENDBRANCH  45  49
BRANCH  44  52
ATOM     52  O   LIG    1       28.941 -29.770  10.888  0.00  0.00    -0.388 OA
ATOM     53  H   LIG    1       28.766 -29.448  11.791  0.00  0.00    +0.210 HD
ENDBRANCH  44  52
BRANCH  46  54
ATOM     54  O   LIG    1       26.107 -29.918   7.641  0.00  0.00    -0.385 OA
ATOM     55  H   LIG    1       25.476 -30.316   7.006  0.00  0.00    +0.210 HD
ENDBRANCH  46  54
ENDBRANCH  41  47
ENDBRANCH   1  41
TORSDOF 10
ENDMDL
MODEL 5
REMARK VINA RESULT:      -2.2      1.488      2.101
REMARK  Name = *****
REMARK                            x       y       z     vdW  Elec       q    Type
REMARK                         _______ _______ _______ _____ _____    ______ ____
ROOT
ATOM      1  C   LIG    1       23.096 -31.455  10.276  0.00  0.00    +0.147 C 
ATOM      2  C   LIG    1       21.642 -31.993  10.331  0.00  0.00    +0.068 C 
ATOM      3  C   LIG    1       20.769 -31.558  11.532  0.00  0.00    +0.141 C 
ATOM      4  O   LIG    1       21.453 -31.908  12.725  0.00  0.00    -0.344 OA
ATOM      5  C   LIG    1       20.801 -31.714  13.965  0.00  0.00    +0.172 C 
ATOM      6  C   LIG    1       19.292 -31.520  13.849  0.00  0.00    +0.097 C 
ATOM      7  C   LIG    1       18.714 -32.441  12.774  0.00  0.00    +0.136 C 
ATOM      8  C   LIG    1       21.537 -30.677  14.840  0.00  0.00    +0.096 C 
ATOM      9  C   LIG    1       21.400 -29.182  14.507  0.00  0.00    +0.122 C 
ATOM     10  C   LIG    1       20.234 -28.525  15.265  0.00  0.00    +0.066 C 
ATOM     11  C   LIG    1       19.634 -27.338  14.575  0.00  0.00    +0.154 C 
ATOM     12  C   LIG    1       20.259 -25.963  14.442  0.00  0.00    +0.171 C 
ATOM     13  C   LIG    1       21.709 -25.783  14.695  0.00  0.00    +0.014 C 
ATOM     14  C   LIG    1       22.588 -25.389  13.765  0.00  0.00    +0.090 C 
ATOM     15  C   LIG    1       24.050 -25.287  13.975  0.00  0.00    +0.332 C 
ATOM     16  O   LIG    1       24.799 -24.802  13.145  0.00  0.00    -0.246 OA
ATOM     17  O   LIG    1       24.396 -25.867  15.139  0.00  0.00    -0.458 OA
ATOM     18  C   LIG    1       25.796 -26.095  15.436  0.00  0.00    +0.177 C 
ATOM     19  C   LIG    1       26.590 -24.785  15.488  0.00  0.00    +0.052 C 
ATOM     20  C   LIG    1       26.442 -27.109  14.475  0.00  0.00    +0.071 C 
ATOM     21  C   LIG    1       25.683 -28.404  14.303  0.00  0.00    -0.023 C 
ATOM     22  C   LIG    1       26.254 -29.610  14.436  0.00  0.00    -0.004 C 
ATOM     23  C   LIG    1       25.595 -30.856  14.099  0.00  0.00    -0.000 C 
ATOM     24  C   LIG    1       26.261 -32.019  14.093  0.00  0.00    +0.000 C 
ATOM     25  C   LIG    1       25.774 -33.339  13.777  0.00  0.00    +0.000 C 
ATOM     26  C   LIG    1       24.866 -33.794  12.904  0.00  0.00    -0.000 C 
ATOM     27  C   LIG    1       23.937 -33.142  12.011  0.00  0.00    -0.002 C 
ATOM     28  O   LIG    1       19.316 -26.270  15.481  0.00  0.00    -0.364 OA
ATOM     29  C   LIG    1       19.367 -32.189  11.416  0.00  0.00    +0.155 C 
ATOM     30  C   LIG    1       24.116 -32.067  11.229  0.00  0.00    +0.004 C 
ENDROOT
BRANCH   7  31
ATOM     31  O   LIG    1       18.881 -33.824  13.109  0.00  0.00    -0.391 OA
ATOM     32  H   LIG    1       18.923 -33.886  14.089  0.00  0.00    +0.210 HD
ENDBRANCH   7  31
BRANCH   5  33
ATOM     33  O   LIG    1       20.983 -32.990  14.606  0.00  0.00    -0.364 OA
ATOM     34  H   LIG    1       20.557 -33.625  14.002  0.00  0.00    +0.213 HD
ENDBRANCH   5  33
BRANCH   9  35
ATOM     35  O   LIG    1       21.293 -28.963  13.112  0.00  0.00    -0.392 OA
ATOM     36  H   LIG    1       21.400 -28.007  12.941  0.00  0.00    +0.210 HD
ENDBRANCH   9  35
BRANCH  29  37
ATOM     37  C   LIG    1       18.477 -31.236  10.642  0.00  0.00    +0.313 C 
ATOM     38  O   LIG    1       17.257 -31.248  10.693  0.00  0.00    -0.251 OA
BRANCH  37  39
ATOM     39  O   LIG    1       19.148 -30.347   9.877  0.00  0.00    -0.480 OA
ATOM     40  H   LIG    1       19.798 -29.794  10.348  0.00  0.00    +0.295 HD
ENDBRANCH  37  39
ENDBRANCH  29  37
BRANCH   1  41
ATOM     41  O   LIG    1       23.198 -30.034  10.423  0.00  0.00    -0.341 OA
BRANCH  41  47
ATOM     42  C   LIG    1       27.200 -28.795  10.868  0.00  0.00    +0.040 C 
ATOM     43  C   LIG    1       26.081 -29.591  10.210  0.00  0.00    +0.148 C 
ATOM     44  C   LIG    1       26.556 -30.247   8.906  0.00  0.00    +0.162 C 
ATOM     45  C   LIG    1       25.379 -31.005   8.267  0.00  0.00    +0.116 C 
ATOM     46  C   LIG    1       24.180 -30.067   8.085  0.00  0.00    +0.189 C 
ATOM     47  C   LIG    1       23.848 -29.293   9.387  0.00  0.00    +0.281 C 
ATOM     48  O   LIG    1       25.015 -28.675   9.948  0.00  0.00    -0.343 OA
BRANCH  45  49
ATOM     49  N   LIG    1       25.782 -31.575   6.951  0.00  0.00    -0.323 NA
ATOM     50  H   LIG    1       24.972 -31.581   6.329  0.00  0.00    +0.119 HD
ATOM     51  H   LIG    1       26.009 -32.561   7.095  0.00  0.00    +0.119 HD
ENDBRANCH  45  49
BRANCH  44  52
ATOM     52  O   LIG    1       27.629 -31.161   9.143  0.00  0.00    -0.388 OA
ATOM     53  H   LIG    1       27.847 -31.070  10.088  0.00  0.00    +0.210 HD
ENDBRANCH  44  52
BRANCH  46  54
ATOM     54  O   LIG    1       24.466 -29.147   7.015  0.00  0.00    -0.385 OA
ATOM     55  H   LIG    1       25.373 -28.820   7.186  0.00  0.00    +0.210 HD
ENDBRANCH  46  54
ENDBRANCH  41  47
ENDBRANCH   1  41
TORSDOF 10
ENDMDL
