MODEL 1
REMARK VINA RESULT:      -2.7      0.000      0.000
REMARK  Name = *****
REMARK                            x       y       z     vdW  Elec       q    Type
REMARK                         _______ _______ _______ _____ _____    ______ ____
ROOT
ATOM      1  C   LIG    1       26.536 -13.317   4.239  0.00  0.00    +0.024 C 
ATOM      2  C   LIG    1       26.130 -14.438   3.156  0.00  0.00    -0.014 C 
ATOM      3  C   LIG    1       26.311 -15.894   3.627  0.00  0.00    +0.013 C 
ATOM      4  C   LIG    1       26.908 -14.345   1.814  0.00  0.00    +0.013 C 
ATOM      5  C   LIG    1       24.630 -14.075   2.861  0.00  0.00    -0.003 C 
ATOM      6  C   LIG    1       24.618 -12.546   2.987  0.00  0.00    +0.009 C 
ATOM      7  C   LIG    1       23.705 -14.452   4.030  0.00  0.00    +0.004 C 
ATOM      8  C   LIG    1       24.100 -13.446   5.114  0.00  0.00    +0.005 C 
ATOM      9  C   LIG    1       25.165 -12.572   4.417  0.00  0.00    +0.010 C 
ATOM     10  C   LIG    1       27.087 -13.877   5.565  0.00  0.00    +0.028 C 
ENDROOT
BRANCH   1  12
ATOM     11  C   LIG    1       28.926 -12.556   4.166  0.00  0.00    +0.101 C 
ATOM     12  N   LIG    1       27.569 -12.423   3.656  0.00  0.00    -0.313 NA
ATOM     13  H   LIG    1       27.586 -12.551   2.646  0.00  0.00    +0.122 HD
ENDBRANCH   1  12
TORSDOF 1
ENDMDL
MODEL 2
REMARK VINA RESULT:      -2.6      1.098      3.154
REMARK  Name = *****
REMARK                            x       y       z     vdW  Elec       q    Type
REMARK                         _______ _______ _______ _____ _____    ______ ____
ROOT
ATOM      1  C   LIG    1       25.554 -13.333   3.693  0.00  0.00    +0.024 C 
ATOM      2  C   LIG    1       26.961 -13.455   4.466  0.00  0.00    -0.014 C 
ATOM      3  C   LIG    1       26.852 -13.779   5.969  0.00  0.00    +0.013 C 
ATOM      4  C   LIG    1       27.848 -12.182   4.387  0.00  0.00    +0.013 C 
ATOM      5  C   LIG    1       27.683 -14.587   3.649  0.00  0.00    -0.003 C 
ATOM      6  C   LIG    1       27.178 -14.351   2.221  0.00  0.00    +0.009 C 
ATOM      7  C   LIG    1       27.078 -15.974   3.928  0.00  0.00    +0.004 C 
ATOM      8  C   LIG    1       25.704 -15.884   3.260  0.00  0.00    +0.005 C 
ATOM      9  C   LIG    1       25.706 -14.477   2.626  0.00  0.00    +0.010 C 
ATOM     10  C   LIG    1       24.313 -13.515   4.588  0.00  0.00    +0.028 C 
ENDROOT
BRANCH   1  12
ATOM     11  C   LIG    1       24.455 -11.830   2.012  0.00  0.00    +0.101 C 
ATOM     12  N   LIG    1       25.461 -11.998   3.049  0.00  0.00    -0.313 NA
ATOM     13  H   LIG    1       25.309 -11.293   3.769  0.00  0.00    +0.122 HD
ENDBRANCH   1  12
TORSDOF 1
ENDMDL
MODEL 3
REMARK VINA RESULT:      -2.5      1.598      3.547
REMARK  Name = *****
REMARK                            x       y       z     vdW  Elec       q    Type
REMARK                         _______ _______ _______ _____ _____    ______ ____
ROOT
ATOM      1  C   LIG    1       25.520 -13.688   4.422  0.00  0.00    +0.024 C 
ATOM      2  C   LIG    1       26.056 -13.311   2.950  0.00  0.00    -0.014 C 
ATOM      3  C   LIG    1       25.774 -11.863   2.506  0.00  0.00    +0.013 C 
ATOM      4  C   LIG    1       25.488 -14.205   1.813  0.00  0.00    +0.013 C 
ATOM      5  C   LIG    1       27.592 -13.622   3.076  0.00  0.00    -0.003 C 
ATOM      6  C   LIG    1       27.620 -14.820   4.033  0.00  0.00    +0.009 C 
ATOM      7  C   LIG    1       28.324 -12.574   3.929  0.00  0.00    +0.004 C 
ATOM      8  C   LIG    1       27.797 -12.853   5.338  0.00  0.00    +0.005 C 
ATOM      9  C   LIG    1       26.867 -14.069   5.135  0.00  0.00    +0.010 C 
ATOM     10  C   LIG    1       24.766 -12.552   5.140  0.00  0.00    +0.028 C 
ENDROOT
BRANCH   1  12
ATOM     11  C   LIG    1       23.185 -14.600   4.509  0.00  0.00    +0.101 C 
ATOM     12  N   LIG    1       24.606 -14.854   4.328  0.00  0.00    -0.313 NA
ATOM     13  H   LIG    1       24.743 -15.311   3.427  0.00  0.00    +0.122 HD
ENDBRANCH   1  12
TORSDOF 1
ENDMDL
MODEL 4
REMARK VINA RESULT:      -2.5      1.173      1.807
REMARK  Name = *****
REMARK                            x       y       z     vdW  Elec       q    Type
REMARK                         _______ _______ _______ _____ _____    ______ ____
ROOT
ATOM      1  C   LIG    1       26.184 -13.579   4.238  0.00  0.00    +0.024 C 
ATOM      2  C   LIG    1       25.189 -14.694   3.638  0.00  0.00    -0.014 C 
ATOM      3  C   LIG    1       23.993 -15.052   4.541  0.00  0.00    +0.013 C 
ATOM      4  C   LIG    1       25.871 -16.050   3.307  0.00  0.00    +0.013 C 
ATOM      5  C   LIG    1       24.751 -14.038   2.278  0.00  0.00    -0.003 C 
ATOM      6  C   LIG    1       26.009 -13.275   1.847  0.00  0.00    +0.009 C 
ATOM      7  C   LIG    1       23.779 -12.866   2.490  0.00  0.00    +0.004 C 
ATOM      8  C   LIG    1       24.672 -11.795   3.121  0.00  0.00    +0.005 C 
ATOM      9  C   LIG    1       26.065 -12.460   3.142  0.00  0.00    +0.010 C 
ATOM     10  C   LIG    1       25.810 -13.077   5.646  0.00  0.00    +0.028 C 
ENDROOT
BRANCH   1  12
ATOM     11  C   LIG    1       28.652 -13.240   3.943  0.00  0.00    +0.101 C 
ATOM     12  N   LIG    1       27.561 -14.133   4.302  0.00  0.00    -0.313 NA
ATOM     13  H   LIG    1       27.729 -14.495   5.239  0.00  0.00    +0.122 HD
ENDBRANCH   1  12
TORSDOF 1
ENDMDL
MODEL 5
REMARK VINA RESULT:      -2.5      1.301      3.166
REMARK  Name = *****
REMARK                            x       y       z     vdW  Elec       q    Type
REMARK                         _______ _______ _______ _____ _____    ______ ____
ROOT
ATOM      1  C   LIG    1       26.095 -14.520   3.360  0.00  0.00    +0.024 C 
ATOM      2  C   LIG    1       26.362 -13.408   4.495  0.00  0.00    -0.014 C 
ATOM      3  C   LIG    1       27.288 -12.252   4.068  0.00  0.00    +0.013 C 
ATOM      4  C   LIG    1       26.984 -13.966   5.805  0.00  0.00    +0.013 C 
ATOM      5  C   LIG    1       24.903 -12.929   4.828  0.00  0.00    -0.003 C 
ATOM      6  C   LIG    1       24.075 -14.207   4.651  0.00  0.00    +0.009 C 
ATOM      7  C   LIG    1       24.310 -12.061   3.706  0.00  0.00    +0.004 C 
ATOM      8  C   LIG    1       24.095 -13.070   2.575  0.00  0.00    +0.005 C 
ATOM      9  C   LIG    1       24.536 -14.409   3.204  0.00  0.00    +0.010 C 
ATOM     10  C   LIG    1       26.846 -14.278   2.037  0.00  0.00    +0.028 C 
ENDROOT
BRANCH   1  12
ATOM     11  C   LIG    1       25.935 -17.019   3.210  0.00  0.00    +0.101 C 
ATOM     12  N   LIG    1       26.497 -15.853   3.876  0.00  0.00    -0.313 NA
ATOM     13  H   LIG    1       27.513 -15.924   3.856  0.00  0.00    +0.122 HD
ENDBRANCH   1  12
TORSDOF 1
ENDMDL
MODEL 6
REMARK VINA RESULT:      -2.3      1.763      3.439
REMARK  Name = *****
REMARK                            x       y       z     vdW  Elec       q    Type
REMARK                         _______ _______ _______ _____ _____    ______ ____
ROOT
ATOM      1  C   LIG    1       26.288 -15.204   3.506  0.00  0.00    +0.024 C 
ATOM      2  C   LIG    1       25.383 -14.120   4.282  0.00  0.00    -0.014 C 
ATOM      3  C   LIG    1       25.894 -13.728   5.681  0.00  0.00    +0.013 C 
ATOM      4  C   LIG    1       23.906 -14.552   4.493  0.00  0.00    +0.013 C 
ATOM      5  C   LIG    1       25.385 -12.915   3.273  0.00  0.00    -0.003 C 
ATOM      6  C   LIG    1       25.416 -13.613   1.908  0.00  0.00    +0.009 C 
ATOM      7  C   LIG    1       26.741 -12.191   3.241  0.00  0.00    +0.004 C 
ATOM      8  C   LIG    1       27.656 -13.214   2.563  0.00  0.00    +0.005 C 
ATOM      9  C   LIG    1       26.701 -14.381   2.232  0.00  0.00    +0.010 C 
ATOM     10  C   LIG    1       27.501 -15.715   4.304  0.00  0.00    +0.028 C 
ENDROOT
BRANCH   1  12
ATOM     11  C   LIG    1       26.033 -17.694   3.346  0.00  0.00    +0.101 C 
ATOM     12  N   LIG    1       25.450 -16.376   3.147  0.00  0.00    -0.313 NA
ATOM     13  H   LIG    1       24.572 -16.326   3.662  0.00  0.00    +0.122 HD
ENDBRANCH   1  12
TORSDOF 1
ENDMDL
MODEL 7
REMARK VINA RESULT:      -2.3      5.544      7.443
REMARK  Name = *****
REMARK                            x       y       z     vdW  Elec       q    Type
REMARK                         _______ _______ _______ _____ _____    ______ ____
ROOT
ATOM      1  C   LIG    1       22.693 -19.143   4.477  0.00  0.00    +0.024 C 
ATOM      2  C   LIG    1       22.965 -20.459   5.366  0.00  0.00    -0.014 C 
ATOM      3  C   LIG    1       21.908 -21.570   5.224  0.00  0.00    +0.013 C 
ATOM      4  C   LIG    1       23.072 -20.190   6.893  0.00  0.00    +0.013 C 
ATOM      5  C   LIG    1       24.387 -20.902   4.862  0.00  0.00    -0.003 C 
ATOM      6  C   LIG    1       25.072 -19.564   4.556  0.00  0.00    +0.009 C 
ATOM      7  C   LIG    1       24.334 -21.510   3.451  0.00  0.00    +0.004 C 
ATOM      8  C   LIG    1       24.014 -20.300   2.571  0.00  0.00    +0.005 C 
ATOM      9  C   LIG    1       23.979 -19.129   3.575  0.00  0.00    +0.010 C 
ATOM     10  C   LIG    1       21.390 -19.183   3.657  0.00  0.00    +0.028 C 
ENDROOT
BRANCH   1  12
ATOM     11  C   LIG    1       22.228 -16.695   4.763  0.00  0.00    +0.101 C 
ATOM     12  N   LIG    1       22.638 -17.954   5.365  0.00  0.00    -0.313 NA
ATOM     13  H   LIG    1       22.022 -18.155   6.152  0.00  0.00    +0.122 HD
ENDBRANCH   1  12
TORSDOF 1
ENDMDL
MODEL 8
REMARK VINA RESULT:      -2.2      1.469      3.374
REMARK  Name = *****
REMARK                            x       y       z     vdW  Elec       q    Type
REMARK                         _______ _______ _______ _____ _____    ______ ____
ROOT
ATOM      1  C   LIG    1       25.599 -13.061   3.337  0.00  0.00    +0.024 C 
ATOM      2  C   LIG    1       25.331 -14.448   4.112  0.00  0.00    -0.014 C 
ATOM      3  C   LIG    1       25.328 -15.702   3.218  0.00  0.00    +0.013 C 
ATOM      4  C   LIG    1       23.987 -14.499   4.890  0.00  0.00    +0.013 C 
ATOM      5  C   LIG    1       26.493 -14.457   5.171  0.00  0.00    -0.003 C 
ATOM      6  C   LIG    1       26.658 -12.970   5.508  0.00  0.00    +0.009 C 
ATOM      7  C   LIG    1       27.859 -14.743   4.525  0.00  0.00    +0.004 C 
ATOM      8  C   LIG    1       28.129 -13.469   3.723  0.00  0.00    +0.005 C 
ATOM      9  C   LIG    1       26.913 -12.577   4.050  0.00  0.00    +0.010 C 
ATOM     10  C   LIG    1       25.765 -13.201   1.812  0.00  0.00    +0.028 C 
ENDROOT
BRANCH   1  12
ATOM     11  C   LIG    1       23.897 -11.452   2.438  0.00  0.00    +0.101 C 
ATOM     12  N   LIG    1       24.469 -12.131   3.591  0.00  0.00    -0.313 NA
ATOM     13  H   LIG    1       23.726 -12.636   4.074  0.00  0.00    +0.122 HD
ENDBRANCH   1  12
TORSDOF 1
ENDMDL
MODEL 9
REMARK VINA RESULT:      -2.1      1.082      2.655
REMARK  Name = *****
REMARK                            x       y       z     vdW  Elec       q    Type
REMARK                         _______ _______ _______ _____ _____    ______ ____
ROOT
ATOM      1  C   LIG    1       26.727 -13.290   3.375  0.00  0.00    +0.024 C 
ATOM      2  C   LIG    1       25.841 -13.316   4.720  0.00  0.00    -0.014 C 
ATOM      3  C   LIG    1       25.253 -11.954   5.137  0.00  0.00    +0.013 C 
ATOM      4  C   LIG    1       26.594 -13.837   5.975  0.00  0.00    +0.013 C 
ATOM      5  C   LIG    1       24.734 -14.372   4.358  0.00  0.00    -0.003 C 
ATOM      6  C   LIG    1       25.489 -15.364   3.466  0.00  0.00    +0.009 C 
ATOM      7  C   LIG    1       23.715 -13.817   3.349  0.00  0.00    +0.004 C 
ATOM      8  C   LIG    1       24.535 -13.716   2.061  0.00  0.00    +0.005 C 
ATOM      9  C   LIG    1       25.911 -14.281   2.469  0.00  0.00    +0.010 C 
ATOM     10  C   LIG    1       26.889 -11.896   2.740  0.00  0.00    +0.028 C 
ENDROOT
BRANCH   1  12
ATOM     11  C   LIG    1       29.160 -12.846   3.795  0.00  0.00    +0.101 C 
ATOM     12  N   LIG    1       28.084 -13.817   3.672  0.00  0.00    -0.313 NA
ATOM     13  H   LIG    1       28.045 -14.371   4.527  0.00  0.00    +0.122 HD
ENDBRANCH   1  12
TORSDOF 1
ENDMDL
