MODEL 1
REMARK VINA RESULT:      36.8      0.000      0.000
REMARK  Name = *****
REMARK                            x       y       z     vdW  Elec       q    Type
REMARK                         _______ _______ _______ _____ _____    ______ ____
ROOT
ATOM      1  C   LIG    1       25.720 -33.825  11.652  0.00  0.00    +0.014 C 
ATOM      2  C   LIG    1       25.589 -32.387  11.135  0.00  0.00    +0.037 C 
ATOM      3  C   LIG    1       25.718 -31.356  12.317  0.00  0.00    +0.127 C 
ATOM      4  C   LIG    1       24.361 -30.810  12.860  0.00  0.00    +0.056 C 
ATOM      5  C   LIG    1       23.422 -31.944  13.290  0.00  0.00    +0.014 C 
ATOM      6  C   LIG    1       24.463 -29.772  14.033  0.00  0.00    +0.179 C 
ATOM      7  C   LIG    1       25.843 -29.519  14.636  0.00  0.00    +0.052 C 
ATOM      8  O   LIG    1       23.994 -28.472  13.581  0.00  0.00    -0.461 OA
ATOM      9  C   LIG    1       22.671 -28.202  13.714  0.00  0.00    +0.310 C 
ATOM     10  O   LIG    1       21.818 -28.994  14.096  0.00  0.00    -0.251 OA
ATOM     11  C   LIG    1       22.360 -26.786  13.293  0.00  0.00    +0.152 C 
ATOM     12  C   LIG    1       22.343 -25.785  14.449  0.00  0.00    +0.128 C 
ATOM     13  C   LIG    1       23.699 -25.408  15.075  0.00  0.00    +0.063 C 
ATOM     14  C   LIG    1       24.604 -24.570  14.153  0.00  0.00    +0.119 C 
ATOM     15  C   LIG    1       25.558 -25.429  13.315  0.00  0.00    +0.062 C 
ATOM     16  C   LIG    1       25.841 -24.801  11.943  0.00  0.00    +0.117 C 
ATOM     17  C   LIG    1       26.575 -25.771  10.998  0.00  0.00    +0.034 C 
ATOM     18  C   LIG    1       25.656 -26.882  10.499  0.00  0.00    +0.036 C 
ATOM     19  C   LIG    1       26.335 -28.011   9.706  0.00  0.00    +0.143 C 
ATOM     20  C   LIG    1       26.644 -27.774   8.218  0.00  0.00    +0.150 C 
ATOM     21  C   LIG    1       28.001 -27.117   7.954  0.00  0.00    +0.108 C 
ATOM     22  C   LIG    1       28.060 -26.514   6.560  0.00  0.00    +0.138 C 
ATOM     23  O   LIG    1       27.226 -26.823   5.702  0.00  0.00    -0.297 OA
ATOM     24  C   LIG    1       29.189 -25.563   6.226  0.00  0.00    +0.106 C 
ATOM     25  C   LIG    1       29.126 -24.114   6.754  0.00  0.00    +0.138 C 
ATOM     26  C   LIG    1       27.885 -23.656   7.573  0.00  0.00    +0.155 C 
ATOM     27  C   LIG    1       26.591 -23.260   6.828  0.00  0.00    +0.134 C 
ATOM     28  C   LIG    1       25.387 -23.324   7.817  0.00  0.00    +0.068 C 
ATOM     29  C   LIG    1       23.925 -23.389   7.311  0.00  0.00    +0.147 C 
ATOM     30  C   LIG    1       23.663 -24.694   6.604  0.00  0.00    +0.004 C 
ATOM     31  C   LIG    1       23.541 -24.884   5.281  0.00  0.00    -0.002 C 
ATOM     32  C   LIG    1       23.659 -26.164   4.626  0.00  0.00    -0.000 C 
ATOM     33  C   LIG    1       23.326 -27.368   5.111  0.00  0.00    +0.000 C 
ATOM     34  C   LIG    1       23.841 -28.554   4.466  0.00  0.00    +0.000 C 
ATOM     35  C   LIG    1       23.848 -29.765   5.038  0.00  0.00    -0.000 C 
ATOM     36  C   LIG    1       24.636 -30.865   4.531  0.00  0.00    -0.004 C 
ATOM     37  C   LIG    1       25.952 -30.742   4.283  0.00  0.00    -0.026 C 
ATOM     38  C   LIG    1       26.863 -31.894   3.963  0.00  0.00    +0.031 C 
ATOM     39  C   LIG    1       27.765 -32.261   5.158  0.00  0.00    +0.031 C 
ATOM     40  C   LIG    1       26.963 -32.619   6.384  0.00  0.00    -0.026 C 
ATOM     41  C   LIG    1       27.211 -32.170   7.624  0.00  0.00    -0.005 C 
ATOM     42  C   LIG    1       26.309 -32.432   8.721  0.00  0.00    -0.004 C 
ATOM     43  C   LIG    1       26.600 -32.195  10.010  0.00  0.00    -0.021 C 
ENDROOT
BRANCH   3  44
ATOM     44  O   LIG    1       26.479 -30.228  11.883  0.00  0.00    -0.391 OA
ATOM     45  H   LIG    1       26.951 -29.918  12.688  0.00  0.00    +0.210 HD
ENDBRANCH   3  44
BRANCH  12  46
ATOM     46  O   LIG    1       21.494 -26.252  15.500  0.00  0.00    -0.391 OA
ATOM     47  H   LIG    1       20.591 -25.919  15.351  0.00  0.00    +0.210 HD
ENDBRANCH  12  46
BRANCH  14  48
ATOM     48  O   LIG    1       25.396 -23.700  14.966  0.00  0.00    -0.392 OA
ATOM     49  H   LIG    1       25.208 -23.940  15.895  0.00  0.00    +0.210 HD
ENDBRANCH  14  48
BRANCH  16  50
ATOM     50  O   LIG    1       26.638 -23.632  12.143  0.00  0.00    -0.392 OA
ATOM     51  H   LIG    1       26.253 -22.929  11.583  0.00  0.00    +0.210 HD
ENDBRANCH  16  50
BRANCH  19  52
ATOM     52  O   LIG    1       25.371 -29.090   9.750  0.00  0.00    -0.389 OA
ATOM     53  H   LIG    1       25.783 -29.833   9.265  0.00  0.00    +0.210 HD
ENDBRANCH  19  52
BRANCH  20  54
ATOM     54  O   LIG    1       25.563 -27.018   7.674  0.00  0.00    -0.389 OA
ATOM     55  H   LIG    1       24.742 -27.461   7.991  0.00  0.00    +0.210 HD
ENDBRANCH  20  54
BRANCH  25  56
ATOM     56  O   LIG    1       29.338 -23.216   5.664  0.00  0.00    -0.391 OA
ATOM     57  H   LIG    1       30.144 -23.483   5.187  0.00  0.00    +0.210 HD
ENDBRANCH  25  56
BRANCH  26  58
ATOM     58  C   LIG    1       28.305 -22.534   8.488  0.00  0.00    +0.313 C 
ATOM     59  O   LIG    1       29.436 -22.240   8.849  0.00  0.00    -0.251 OA
BRANCH  58  60
ATOM     60  O   LIG    1       27.272 -21.807   8.959  0.00  0.00    -0.480 OA
ATOM     61  H   LIG    1       26.632 -22.500   9.230  0.00  0.00    +0.295 HD
ENDBRANCH  58  60
ENDBRANCH  26  58
BRANCH  27  62
ATOM     62  O   LIG    1       26.418 -24.072   5.678  0.00  0.00    -0.391 OA
ATOM     63  H   LIG    1       26.386 -25.015   5.919  0.00  0.00    +0.210 HD
ENDBRANCH  27  62
BRANCH  29  64
ATOM     64  O   LIG    1       23.618 -22.204   6.589  0.00  0.00    -0.341 OA
BRANCH  64  65
ATOM     65  C   LIG    1       23.601 -22.301   5.161  0.00  0.00    +0.281 C 
ATOM     66  C   LIG    1       22.550 -21.449   4.398  0.00  0.00    +0.189 C 
ATOM     67  C   LIG    1       22.876 -19.947   4.471  0.00  0.00    +0.116 C 
ATOM     68  C   LIG    1       24.336 -19.720   4.035  0.00  0.00    +0.162 C 
ATOM     69  C   LIG    1       25.348 -20.649   4.727  0.00  0.00    +0.148 C 
ATOM     70  C   LIG    1       25.765 -20.192   6.121  0.00  0.00    +0.040 C 
ATOM     71  O   LIG    1       24.925 -22.017   4.664  0.00  0.00    -0.343 OA
BRANCH  67  72
ATOM     72  N   LIG    1       22.493 -19.408   5.795  0.00  0.00    -0.323 NA
ATOM     73  H   LIG    1       23.334 -19.094   6.284  0.00  0.00    +0.119 HD
ATOM     74  H   LIG    1       22.102 -20.162   6.367  0.00  0.00    +0.119 HD
ENDBRANCH  67  72
BRANCH  66  75
ATOM     75  O   LIG    1       21.196 -21.667   4.813  0.00  0.00    -0.385 OA
ATOM     76  H   LIG    1       20.984 -22.573   4.502  0.00  0.00    +0.210 HD
ENDBRANCH  66  75
BRANCH  68  77
ATOM     77  O   LIG    1       24.407 -19.957   2.613  0.00  0.00    -0.388 OA
ATOM     78  H   LIG    1       25.261 -19.607   2.293  0.00  0.00    +0.210 HD
ENDBRANCH  68  77
ENDBRANCH  64  65
ENDBRANCH  29  64
TORSDOF 15
ENDMDL
MODEL 2
REMARK VINA RESULT:      38.3      3.367     10.666
REMARK  Name = *****
REMARK                            x       y       z     vdW  Elec       q    Type
REMARK                         _______ _______ _______ _____ _____    ______ ____
ROOT
ATOM      1  C   LIG    1       26.762 -22.363   7.570  0.00  0.00    +0.014 C 
ATOM      2  C   LIG    1       26.280 -23.707   8.128  0.00  0.00    +0.037 C 
ATOM      3  C   LIG    1       26.735 -24.892   7.200  0.00  0.00    +0.127 C 
ATOM      4  C   LIG    1       25.640 -25.414   6.219  0.00  0.00    +0.056 C 
ATOM      5  C   LIG    1       25.075 -24.287   5.345  0.00  0.00    +0.014 C 
ATOM      6  C   LIG    1       26.066 -26.603   5.287  0.00  0.00    +0.179 C 
ATOM      7  C   LIG    1       27.534 -27.026   5.308  0.00  0.00    +0.052 C 
ATOM      8  O   LIG    1       25.315 -27.797   5.639  0.00  0.00    -0.461 OA
ATOM      9  C   LIG    1       24.124 -27.993   5.020  0.00  0.00    +0.310 C 
ATOM     10  O   LIG    1       23.580 -27.204   4.258  0.00  0.00    -0.251 OA
ATOM     11  C   LIG    1       23.516 -29.316   5.418  0.00  0.00    +0.152 C 
ATOM     12  C   LIG    1       23.831 -30.459   4.451  0.00  0.00    +0.128 C 
ATOM     13  C   LIG    1       25.271 -31.006   4.454  0.00  0.00    +0.063 C 
ATOM     14  C   LIG    1       25.649 -31.772   5.734  0.00  0.00    +0.119 C 
ATOM     15  C   LIG    1       26.298 -30.876   6.795  0.00  0.00    +0.062 C 
ATOM     16  C   LIG    1       25.957 -31.333   8.220  0.00  0.00    +0.117 C 
ATOM     17  C   LIG    1       26.376 -30.297   9.280  0.00  0.00    +0.034 C 
ATOM     18  C   LIG    1       25.469 -29.071   9.266  0.00  0.00    +0.036 C 
ATOM     19  C   LIG    1       25.914 -27.894  10.149  0.00  0.00    +0.143 C 
ATOM     20  C   LIG    1       25.597 -27.950  11.654  0.00  0.00    +0.150 C 
ATOM     21  C   LIG    1       26.662 -28.656  12.496  0.00  0.00    +0.108 C 
ATOM     22  C   LIG    1       26.111 -29.070  13.850  0.00  0.00    +0.138 C 
ATOM     23  O   LIG    1       25.052 -28.595  14.273  0.00  0.00    -0.297 OA
ATOM     24  C   LIG    1       26.908 -30.042  14.694  0.00  0.00    +0.106 C 
ATOM     25  C   LIG    1       26.888 -31.541  14.325  0.00  0.00    +0.138 C 
ATOM     26  C   LIG    1       26.015 -32.019  13.131  0.00  0.00    +0.155 C 
ATOM     27  C   LIG    1       24.498 -32.225  13.337  0.00  0.00    +0.134 C 
ATOM     28  C   LIG    1       23.784 -32.213  11.950  0.00  0.00    +0.068 C 
ATOM     29  C   LIG    1       22.257 -31.983  11.827  0.00  0.00    +0.147 C 
ATOM     30  C   LIG    1       21.894 -30.582  12.244  0.00  0.00    +0.004 C 
ATOM     31  C   LIG    1       21.295 -30.209  13.385  0.00  0.00    -0.002 C 
ATOM     32  C   LIG    1       21.296 -28.864  13.907  0.00  0.00    -0.000 C 
ATOM     33  C   LIG    1       21.315 -27.716  13.216  0.00  0.00    +0.000 C 
ATOM     34  C   LIG    1       21.673 -26.492  13.895  0.00  0.00    +0.000 C 
ATOM     35  C   LIG    1       22.038 -25.371  13.259  0.00  0.00    -0.000 C 
ATOM     36  C   LIG    1       22.690 -24.268  13.929  0.00  0.00    -0.004 C 
ATOM     37  C   LIG    1       23.785 -24.445  14.688  0.00  0.00    -0.026 C 
ATOM     38  C   LIG    1       24.628 -23.325  15.230  0.00  0.00    +0.031 C 
ATOM     39  C   LIG    1       25.956 -23.181  14.461  0.00  0.00    +0.031 C 
ATOM     40  C   LIG    1       25.734 -22.937  12.990  0.00  0.00    -0.026 C 
ATOM     41  C   LIG    1       26.388 -23.562  11.998  0.00  0.00    -0.005 C 
ATOM     42  C   LIG    1       26.014 -23.389  10.614  0.00  0.00    -0.004 C 
ATOM     43  C   LIG    1       26.750 -23.815   9.575  0.00  0.00    -0.021 C 
ENDROOT
BRANCH   3  44
ATOM     44  O   LIG    1       27.137 -26.001   8.006  0.00  0.00    -0.391 OA
ATOM     45  H   LIG    1       27.238 -25.630   8.911  0.00  0.00    +0.210 HD
ENDBRANCH   3  44
BRANCH  12  46
ATOM     46  O   LIG    1       23.512 -30.080   3.111  0.00  0.00    -0.391 OA
ATOM     47  H   LIG    1       23.045 -29.226   3.125  0.00  0.00    +0.210 HD
ENDBRANCH  12  46
BRANCH  14  48
ATOM     48  O   LIG    1       26.589 -32.794   5.389  0.00  0.00    -0.392 OA
ATOM     49  H   LIG    1       27.214 -32.393   4.753  0.00  0.00    +0.210 HD
ENDBRANCH  14  48
BRANCH  16  50
ATOM     50  O   LIG    1       26.631 -32.569   8.465  0.00  0.00    -0.392 OA
ATOM     51  H   LIG    1       27.211 -32.731   7.695  0.00  0.00    +0.210 HD
ENDBRANCH  16  50
BRANCH  19  52
ATOM     52  O   LIG    1       25.171 -26.768   9.624  0.00  0.00    -0.389 OA
ATOM     53  H   LIG    1       24.282 -27.115   9.405  0.00  0.00    +0.210 HD
ENDBRANCH  19  52
BRANCH  20  54
ATOM     54  O   LIG    1       24.311 -28.554  11.795  0.00  0.00    -0.389 OA
ATOM     55  H   LIG    1       24.194 -28.706  12.762  0.00  0.00    +0.210 HD
ENDBRANCH  20  54
BRANCH  25  56
ATOM     56  O   LIG    1       26.561 -32.298  15.492  0.00  0.00    -0.391 OA
ATOM     57  H   LIG    1       25.878 -31.822  15.996  0.00  0.00    +0.210 HD
ENDBRANCH  25  56
BRANCH  26  58
ATOM     58  C   LIG    1       26.625 -33.279  12.569  0.00  0.00    +0.313 C 
ATOM     59  O   LIG    1       27.668 -33.825  12.902  0.00  0.00    -0.251 OA
BRANCH  58  60
ATOM     60  O   LIG    1       25.909 -33.823  11.564  0.00  0.00    -0.480 OA
ATOM     61  H   LIG    1       26.092 -33.211  10.819  0.00  0.00    +0.295 HD
ENDBRANCH  58  60
ENDBRANCH  26  58
BRANCH  27  62
ATOM     62  O   LIG    1       23.989 -31.258  14.239  0.00  0.00    -0.391 OA
ATOM     63  H   LIG    1       23.490 -30.568  13.767  0.00  0.00    +0.210 HD
ENDBRANCH  27  62
BRANCH  29  64
ATOM     64  O   LIG    1       21.563 -33.039  12.479  0.00  0.00    -0.341 OA
BRANCH  64  65
ATOM     65  C   LIG    1       20.677 -33.825  11.674  0.00  0.00    +0.281 C 
ATOM     66  C   LIG    1       19.152 -33.630  11.891  0.00  0.00    +0.189 C 
ATOM     67  C   LIG    1       18.677 -32.255  11.390  0.00  0.00    +0.116 C 
ATOM     68  C   LIG    1       19.158 -32.047   9.941  0.00  0.00    +0.162 C 
ATOM     69  C   LIG    1       20.651 -32.348   9.728  0.00  0.00    +0.148 C 
ATOM     70  C   LIG    1       21.584 -31.209  10.128  0.00  0.00    +0.040 C 
ATOM     71  O   LIG    1       21.010 -33.619  10.287  0.00  0.00    -0.343 OA
BRANCH  67  72
ATOM     72  N   LIG    1       19.048 -31.203  12.363  0.00  0.00    -0.323 NA
ATOM     73  H   LIG    1       19.579 -30.474  11.883  0.00  0.00    +0.119 HD
ATOM     74  H   LIG    1       19.684 -31.598  13.062  0.00  0.00    +0.119 HD
ENDBRANCH  67  72
BRANCH  66  75
ATOM     75  O   LIG    1       18.716 -33.824  13.243  0.00  0.00    -0.385 OA
ATOM     76  H   LIG    1       18.092 -34.579  13.196  0.00  0.00    +0.210 HD
ENDBRANCH  66  75
BRANCH  68  77
ATOM     77  O   LIG    1       18.395 -32.935   9.098  0.00  0.00    -0.388 OA
ATOM     78  H   LIG    1       17.449 -32.729   9.226  0.00  0.00    +0.210 HD
ENDBRANCH  68  77
ENDBRANCH  64  65
ENDBRANCH  29  64
TORSDOF 15
ENDMDL
