MODEL 1
REMARK VINA RESULT:      57.5      0.000      0.000
REMARK  Name = *****
REMARK                            x       y       z     vdW  Elec       q    Type
REMARK                         _______ _______ _______ _____ _____    ______ ____
ROOT
ATOM      1  C   LIG    1       25.011 -18.256   3.220  0.00  0.00    +0.103 C 
ATOM      2  C   LIG    1       26.418 -18.729   3.306  0.00  0.00    +0.236 C 
ATOM      3  O   LIG    1       26.710 -19.882   2.994  0.00  0.00    -0.283 OA
ATOM      4  C   LIG    1       27.460 -17.764   3.812  0.00  0.00    +0.194 C 
ATOM      5  C   LIG    1       27.087 -16.472   3.984  0.00  0.00    +0.150 C 
ATOM      6  C   LIG    1       28.126 -15.507   4.537  0.00  0.00    +0.269 C 
ATOM      7  N   LIG    1       27.766 -14.167   4.591  0.00  0.00    -0.266 N 
ATOM      8  C   LIG    1       26.674 -13.706   3.743  0.00  0.00    +0.229 C 
ATOM      9  C   LIG    1       25.437 -14.598   3.923  0.00  0.00    +0.173 C 
ATOM     10  O   LIG    1       26.309 -12.348   4.015  0.00  0.00    -0.354 OA
ATOM     11  C   LIG    1       27.383 -11.464   4.351  0.00  0.00    +0.122 C 
ATOM     12  C   LIG    1       28.024 -11.985   5.621  0.00  0.00    +0.054 C 
ATOM     13  C   LIG    1       28.515 -11.485   3.315  0.00  0.00    +0.033 C 
ATOM     14  C   LIG    1       29.474 -12.574   3.817  0.00  0.00    +0.025 C 
ATOM     15  C   LIG    1       28.752 -13.179   5.028  0.00  0.00    +0.081 C 
ATOM     16  O   LIG    1       29.216 -15.924   4.928  0.00  0.00    -0.268 OA
ATOM     17  N   LIG    1       25.789 -16.012   3.701  0.00  0.00    -0.335 NA
ATOM     18  C   LIG    1       24.803 -16.941   3.403  0.00  0.00    +0.103 C 
ENDROOT
BRANCH   1  20
ATOM     19  O   LIG    1       23.856 -20.325   3.254  0.00  0.00    -0.270 OA
ATOM     20  C   LIG    1       23.831 -19.127   2.968  0.00  0.00    +0.250 C 
ATOM     21  N   LIG    1       22.745 -18.519   2.398  0.00  0.00    -0.307 N 
ATOM     22  H   LIG    1       22.774 -17.510   2.241  0.00  0.00    +0.149 HD
BRANCH  21  23
ATOM     23  C   LIG    1       21.516 -19.226   2.107  0.00  0.00    +0.145 C 
BRANCH  23  24
ATOM     24  C   LIG    1       20.925 -19.854   3.333  0.00  0.00    +0.040 A 
ATOM     25  C   LIG    1       20.103 -20.981   3.262  0.00  0.00    +0.134 A 
ATOM     26  F   LIG    1       19.813 -21.524   2.071  0.00  0.00    -0.205 F 
ATOM     27  C   LIG    1       19.566 -21.565   4.408  0.00  0.00    +0.077 A 
ATOM     28  C   LIG    1       19.862 -21.015   5.647  0.00  0.00    +0.129 A 
ATOM     29  F   LIG    1       19.357 -21.572   6.756  0.00  0.00    -0.205 F 
ATOM     30  C   LIG    1       20.677 -19.897   5.756  0.00  0.00    +0.077 A 
ATOM     31  C   LIG    1       21.202 -19.331   4.599  0.00  0.00    +0.134 A 
ATOM     32  F   LIG    1       21.987 -18.252   4.719  0.00  0.00    -0.205 F 
ENDBRANCH  23  24
ENDBRANCH  21  23
ENDBRANCH   1  20
BRANCH   4  33
ATOM     33  O   LIG    1       28.722 -18.276   4.071  0.00  0.00    -0.502 OA
ATOM     34  H   LIG    1       29.140 -18.522   3.218  0.00  0.00    +0.292 HD
ENDBRANCH   4  33
TORSDOF 4
ENDMDL
