MODEL 1
REMARK VINA RESULT:      -4.2      0.000      0.000
REMARK  Name = *****
REMARK                            x       y       z     vdW  Elec       q    Type
REMARK                         _______ _______ _______ _____ _____    ______ ____
ROOT
ATOM      1  C   LIG    1       25.598 -18.977   3.636  0.00  0.00    +0.050 C 
ATOM      2  C   LIG    1       24.179 -18.545   4.013  0.00  0.00    -0.033 A 
ATOM      3  C   LIG    1       23.182 -19.530   4.195  0.00  0.00    -0.021 A 
ATOM      4  C   LIG    1       21.853 -19.142   4.424  0.00  0.00    +0.008 A 
ATOM      5  C   LIG    1       21.512 -17.795   4.534  0.00  0.00    +0.001 A 
ATOM      6  C   LIG    1       22.502 -16.825   4.443  0.00  0.00    +0.000 A 
ATOM      7  C   LIG    1       23.475 -20.975   4.150  0.00  0.00    +0.009 C 
ATOM      8  C   LIG    1       24.574 -21.572   4.635  0.00  0.00    +0.009 C 
ATOM      9  C   LIG    1       25.724 -20.910   5.283  0.00  0.00    -0.021 A 
ATOM     10  C   LIG    1       26.326 -21.567   6.368  0.00  0.00    +0.008 A 
ATOM     11  C   LIG    1       27.429 -21.012   7.017  0.00  0.00    +0.001 A 
ATOM     12  C   LIG    1       27.946 -19.797   6.585  0.00  0.00    +0.000 A 
ATOM     13  C   LIG    1       27.363 -19.134   5.503  0.00  0.00    +0.005 A 
ATOM     14  C   LIG    1       23.826 -17.197   4.201  0.00  0.00    +0.005 A 
ATOM     15  C   LIG    1       26.256 -19.679   4.829  0.00  0.00    -0.033 A 
ENDROOT
BRANCH   1  16
ATOM     16  C   LIG    1       26.481 -17.893   2.958  0.00  0.00    +0.014 C 
BRANCH  16  17
ATOM     17  C   LIG    1       26.091 -16.452   3.330  0.00  0.00    +0.016 C 
BRANCH  17  18
ATOM     18  C   LIG    1       27.296 -15.592   3.733  0.00  0.00    +0.080 C 
BRANCH  18  20
ATOM     19  C   LIG    1       28.250 -13.379   3.731  0.00  0.00    +0.101 C 
ATOM     20  N   LIG    1       27.253 -14.258   3.130  0.00  0.00    -0.319 NA
ATOM     21  H   LIG    1       27.426 -14.326   2.127  0.00  0.00    +0.122 HD
ENDBRANCH  18  20
ENDBRANCH  17  18
ENDBRANCH  16  17
ENDBRANCH   1  16
TORSDOF 4
ENDMDL
MODEL 2
REMARK VINA RESULT:      -3.7      2.278      5.979
REMARK  Name = *****
REMARK                            x       y       z     vdW  Elec       q    Type
REMARK                         _______ _______ _______ _____ _____    ______ ____
ROOT
ATOM      1  C   LIG    1       25.171 -18.821   3.366  0.00  0.00    +0.050 C 
ATOM      2  C   LIG    1       26.337 -19.026   4.337  0.00  0.00    -0.033 A 
ATOM      3  C   LIG    1       27.387 -18.081   4.364  0.00  0.00    -0.021 A 
ATOM      4  C   LIG    1       28.516 -18.318   5.163  0.00  0.00    +0.008 A 
ATOM      5  C   LIG    1       28.590 -19.447   5.977  0.00  0.00    +0.001 A 
ATOM      6  C   LIG    1       27.522 -20.335   6.020  0.00  0.00    +0.000 A 
ATOM      7  C   LIG    1       27.356 -16.835   3.576  0.00  0.00    +0.009 C 
ATOM      8  C   LIG    1       26.276 -16.072   3.349  0.00  0.00    +0.009 C 
ATOM      9  C   LIG    1       24.898 -16.333   3.813  0.00  0.00    -0.021 A 
ATOM     10  C   LIG    1       24.129 -15.231   4.218  0.00  0.00    +0.008 A 
ATOM     11  C   LIG    1       22.813 -15.398   4.650  0.00  0.00    +0.001 A 
ATOM     12  C   LIG    1       22.250 -16.668   4.675  0.00  0.00    +0.000 A 
ATOM     13  C   LIG    1       22.999 -17.773   4.269  0.00  0.00    +0.005 A 
ATOM     14  C   LIG    1       26.399 -20.118   5.220  0.00  0.00    +0.005 A 
ATOM     15  C   LIG    1       24.325 -17.627   3.822  0.00  0.00    -0.033 A 
ENDROOT
BRANCH   1  16
ATOM     16  C   LIG    1       24.352 -20.092   3.009  0.00  0.00    +0.014 C 
BRANCH  16  17
ATOM     17  C   LIG    1       24.195 -21.079   4.179  0.00  0.00    +0.016 C 
BRANCH  17  18
ATOM     18  C   LIG    1       22.791 -21.052   4.799  0.00  0.00    +0.080 C 
BRANCH  18  20
ATOM     19  C   LIG    1       23.449 -21.570   7.058  0.00  0.00    +0.101 C 
ATOM     20  N   LIG    1       22.807 -20.591   6.189  0.00  0.00    -0.319 NA
ATOM     21  H   LIG    1       23.307 -19.705   6.254  0.00  0.00    +0.122 HD
ENDBRANCH  18  20
ENDBRANCH  17  18
ENDBRANCH  16  17
ENDBRANCH   1  16
TORSDOF 4
ENDMDL
MODEL 3
REMARK VINA RESULT:      -3.2      1.138      1.267
REMARK  Name = *****
REMARK                            x       y       z     vdW  Elec       q    Type
REMARK                         _______ _______ _______ _____ _____    ______ ____
ROOT
ATOM      1  C   LIG    1       25.697 -18.006   3.363  0.00  0.00    +0.050 C 
ATOM      2  C   LIG    1       24.353 -17.525   3.915  0.00  0.00    -0.033 A 
ATOM      3  C   LIG    1       23.291 -18.447   4.047  0.00  0.00    -0.021 A 
ATOM      4  C   LIG    1       22.021 -17.995   4.439  0.00  0.00    +0.008 A 
ATOM      5  C   LIG    1       21.808 -16.655   4.759  0.00  0.00    +0.001 A 
ATOM      6  C   LIG    1       22.870 -15.760   4.716  0.00  0.00    +0.000 A 
ATOM      7  C   LIG    1       23.452 -19.889   3.783  0.00  0.00    +0.009 C 
ATOM      8  C   LIG    1       24.528 -20.630   4.087  0.00  0.00    +0.009 C 
ATOM      9  C   LIG    1       25.777 -20.157   4.717  0.00  0.00    -0.021 A 
ATOM     10  C   LIG    1       26.397 -21.004   5.647  0.00  0.00    +0.008 A 
ATOM     11  C   LIG    1       27.589 -20.633   6.269  0.00  0.00    +0.001 A 
ATOM     12  C   LIG    1       28.177 -19.412   5.963  0.00  0.00    +0.000 A 
ATOM     13  C   LIG    1       27.576 -18.560   5.034  0.00  0.00    +0.005 A 
ATOM     14  C   LIG    1       24.134 -16.194   4.313  0.00  0.00    +0.005 A 
ATOM     15  C   LIG    1       26.378 -18.918   4.389  0.00  0.00    -0.033 A 
ENDROOT
BRANCH   1  16
ATOM     16  C   LIG    1       26.619 -16.907   2.765  0.00  0.00    +0.014 C 
BRANCH  16  17
ATOM     17  C   LIG    1       26.972 -15.785   3.757  0.00  0.00    +0.016 C 
BRANCH  17  18
ATOM     18  C   LIG    1       27.287 -14.452   3.063  0.00  0.00    +0.080 C 
BRANCH  18  20
ATOM     19  C   LIG    1       25.347 -13.197   2.379  0.00  0.00    +0.101 C 
ATOM     20  N   LIG    1       26.359 -14.164   1.968  0.00  0.00    -0.319 NA
ATOM     21  H   LIG    1       26.871 -13.793   1.168  0.00  0.00    +0.122 HD
ENDBRANCH  18  20
ENDBRANCH  17  18
ENDBRANCH  16  17
ENDBRANCH   1  16
TORSDOF 4
ENDMDL
MODEL 4
REMARK VINA RESULT:      -2.1      2.338      5.372
REMARK  Name = *****
REMARK                            x       y       z     vdW  Elec       q    Type
REMARK                         _______ _______ _______ _____ _____    ______ ____
ROOT
ATOM      1  C   LIG    1       25.988 -16.435   4.162  0.00  0.00    +0.050 C 
ATOM      2  C   LIG    1       25.058 -17.569   3.724  0.00  0.00    -0.033 A 
ATOM      3  C   LIG    1       23.706 -17.550   4.132  0.00  0.00    -0.021 A 
ATOM      4  C   LIG    1       22.874 -18.641   3.836  0.00  0.00    +0.008 A 
ATOM      5  C   LIG    1       23.349 -19.719   3.091  0.00  0.00    +0.001 A 
ATOM      6  C   LIG    1       24.653 -19.703   2.611  0.00  0.00    +0.000 A 
ATOM      7  C   LIG    1       23.115 -16.420   4.873  0.00  0.00    +0.009 C 
ATOM      8  C   LIG    1       23.383 -15.121   4.675  0.00  0.00    +0.009 C 
ATOM      9  C   LIG    1       24.339 -14.556   3.701  0.00  0.00    -0.021 A 
ATOM     10  C   LIG    1       23.978 -13.365   3.052  0.00  0.00    +0.008 A 
ATOM     11  C   LIG    1       24.838 -12.763   2.134  0.00  0.00    +0.001 A 
ATOM     12  C   LIG    1       26.072 -13.340   1.861  0.00  0.00    +0.000 A 
ATOM     13  C   LIG    1       26.448 -14.521   2.504  0.00  0.00    +0.005 A 
ATOM     14  C   LIG    1       25.495 -18.630   2.911  0.00  0.00    +0.005 A 
ATOM     15  C   LIG    1       25.600 -15.142   3.438  0.00  0.00    -0.033 A 
ENDROOT
BRANCH   1  16
ATOM     16  C   LIG    1       27.508 -16.756   4.140  0.00  0.00    +0.014 C 
BRANCH  16  17
ATOM     17  C   LIG    1       27.865 -18.117   4.763  0.00  0.00    +0.016 C 
BRANCH  17  18
ATOM     18  C   LIG    1       29.320 -18.188   5.248  0.00  0.00    +0.080 C 
BRANCH  18  20
ATOM     19  C   LIG    1       28.642 -20.250   6.295  0.00  0.00    +0.101 C 
ATOM     20  N   LIG    1       29.474 -19.058   6.416  0.00  0.00    -0.319 NA
ATOM     21  H   LIG    1       30.450 -19.338   6.512  0.00  0.00    +0.122 HD
ENDBRANCH  18  20
ENDBRANCH  17  18
ENDBRANCH  16  17
ENDBRANCH   1  16
TORSDOF 4
ENDMDL
MODEL 5
REMARK VINA RESULT:      -1.8      2.513      5.266
REMARK  Name = *****
REMARK                            x       y       z     vdW  Elec       q    Type
REMARK                         _______ _______ _______ _____ _____    ______ ____
ROOT
ATOM      1  C   LIG    1       25.827 -15.791   4.252  0.00  0.00    +0.050 C 
ATOM      2  C   LIG    1       25.079 -17.059   3.832  0.00  0.00    -0.033 A 
ATOM      3  C   LIG    1       23.720 -17.210   4.188  0.00  0.00    -0.021 A 
ATOM      4  C   LIG    1       23.058 -18.416   3.911  0.00  0.00    +0.008 A 
ATOM      5  C   LIG    1       23.708 -19.449   3.236  0.00  0.00    +0.001 A 
ATOM      6  C   LIG    1       25.017 -19.273   2.807  0.00  0.00    +0.000 A 
ATOM      7  C   LIG    1       22.949 -16.143   4.852  0.00  0.00    +0.009 C 
ATOM      8  C   LIG    1       23.046 -14.828   4.603  0.00  0.00    +0.009 C 
ATOM      9  C   LIG    1       23.959 -14.178   3.641  0.00  0.00    -0.021 A 
ATOM     10  C   LIG    1       23.469 -13.076   2.923  0.00  0.00    +0.008 A 
ATOM     11  C   LIG    1       24.279 -12.399   2.012  0.00  0.00    +0.001 A 
ATOM     12  C   LIG    1       25.590 -12.812   1.813  0.00  0.00    +0.000 A 
ATOM     13  C   LIG    1       26.095 -13.902   2.524  0.00  0.00    +0.005 A 
ATOM     14  C   LIG    1       25.692 -18.083   3.087  0.00  0.00    +0.005 A 
ATOM     15  C   LIG    1       25.299 -14.594   3.454  0.00  0.00    -0.033 A 
ENDROOT
BRANCH   1  16
ATOM     16  C   LIG    1       27.375 -15.900   4.303  0.00  0.00    +0.014 C 
BRANCH  16  17
ATOM     17  C   LIG    1       28.092 -14.540   4.367  0.00  0.00    +0.016 C 
BRANCH  17  18
ATOM     18  C   LIG    1       27.557 -13.636   5.486  0.00  0.00    +0.080 C 
BRANCH  18  20
ATOM     19  C   LIG    1       29.028 -12.118   4.329  0.00  0.00    +0.101 C 
ATOM     20  N   LIG    1       28.261 -12.353   5.547  0.00  0.00    -0.319 NA
ATOM     21  H   LIG    1       27.590 -11.596   5.674  0.00  0.00    +0.122 HD
ENDBRANCH  18  20
ENDBRANCH  17  18
ENDBRANCH  16  17
ENDBRANCH   1  16
TORSDOF 4
ENDMDL
MODEL 6
REMARK VINA RESULT:      -1.7      1.961      5.335
REMARK  Name = *****
REMARK                            x       y       z     vdW  Elec       q    Type
REMARK                         _______ _______ _______ _____ _____    ______ ____
ROOT
ATOM      1  C   LIG    1       26.328 -18.762   3.383  0.00  0.00    +0.050 C 
ATOM      2  C   LIG    1       26.451 -19.517   4.708  0.00  0.00    -0.033 A 
ATOM      3  C   LIG    1       27.673 -19.477   5.416  0.00  0.00    -0.021 A 
ATOM      4  C   LIG    1       27.836 -20.260   6.569  0.00  0.00    +0.008 A 
ATOM      5  C   LIG    1       26.785 -21.032   7.062  0.00  0.00    +0.001 A 
ATOM      6  C   LIG    1       25.553 -21.007   6.420  0.00  0.00    +0.000 A 
ATOM      7  C   LIG    1       28.811 -18.641   4.991  0.00  0.00    +0.009 C 
ATOM      8  C   LIG    1       28.731 -17.409   4.467  0.00  0.00    +0.009 C 
ATOM      9  C   LIG    1       27.496 -16.649   4.182  0.00  0.00    -0.021 A 
ATOM     10  C   LIG    1       27.514 -15.266   4.419  0.00  0.00    +0.008 A 
ATOM     11  C   LIG    1       26.392 -14.481   4.155  0.00  0.00    +0.001 A 
ATOM     12  C   LIG    1       25.241 -15.069   3.645  0.00  0.00    +0.000 A 
ATOM     13  C   LIG    1       25.210 -16.443   3.398  0.00  0.00    +0.005 A 
ATOM     14  C   LIG    1       25.382 -20.244   5.263  0.00  0.00    +0.005 A 
ATOM     15  C   LIG    1       26.332 -17.252   3.649  0.00  0.00    -0.033 A 
ENDROOT
BRANCH   1  16
ATOM     16  C   LIG    1       25.203 -19.245   2.426  0.00  0.00    +0.014 C 
BRANCH  16  17
ATOM     17  C   LIG    1       24.019 -19.912   3.147  0.00  0.00    +0.016 C 
BRANCH  17  18
ATOM     18  C   LIG    1       22.738 -19.068   3.099  0.00  0.00    +0.080 C 
BRANCH  18  20
ATOM     19  C   LIG    1       22.148 -17.586   4.905  0.00  0.00    +0.101 C 
ATOM     20  N   LIG    1       22.096 -18.957   4.410  0.00  0.00    -0.319 NA
ATOM     21  H   LIG    1       21.123 -19.254   4.345  0.00  0.00    +0.122 HD
ENDBRANCH  18  20
ENDBRANCH  17  18
ENDBRANCH  16  17
ENDBRANCH   1  16
TORSDOF 4
ENDMDL
