MODEL 1
REMARK VINA RESULT:      -2.0      0.000      0.000
REMARK  Name = *****
REMARK                            x       y       z     vdW  Elec       q    Type
REMARK                         _______ _______ _______ _____ _____    ______ ____
ROOT
ATOM      1  C   LIG    1       26.862 -16.231   3.732  0.00  0.00    +0.108 A 
ATOM      2  C   LIG    1       25.752 -17.050   3.517  0.00  0.00    +0.058 A 
ATOM      3  C   LIG    1       25.784 -18.390   3.940  0.00  0.00    +0.127 A 
ATOM      4  C   LIG    1       26.922 -18.914   4.572  0.00  0.00    +0.086 A 
ATOM      5 CL   LIG    1       27.001 -20.560   5.115  0.00  0.00    -0.080 Cl
ATOM      6  C   LIG    1       28.026 -18.065   4.781  0.00  0.00    +0.063 A 
ATOM      7 CL   LIG    1       29.475 -18.601   5.564  0.00  0.00    -0.082 Cl
ATOM      8  C   LIG    1       27.998 -16.731   4.365  0.00  0.00    +0.050 A 
ENDROOT
BRANCH   1   9
ATOM      9  S   LIG    1       26.808 -14.537   3.222  0.00  0.00    +0.056 S 
ATOM     10  O   LIG    1       27.957 -13.866   3.777  0.00  0.00    -0.153 OA
ATOM     11  O   LIG    1       26.462 -14.478   1.824  0.00  0.00    -0.153 OA
BRANCH   9  12
ATOM     12  N   LIG    1       25.467 -13.961   4.047  0.00  0.00    -0.203 NA
ATOM     13  H   LIG    1       25.049 -13.183   3.533  0.00  0.00    +0.144 HD
ATOM     14  H   LIG    1       24.811 -14.725   4.218  0.00  0.00    +0.144 HD
ENDBRANCH   9  12
ENDBRANCH   1   9
BRANCH   3  15
ATOM     15  S   LIG    1       24.351 -19.379   3.637  0.00  0.00    +0.057 S 
ATOM     16  O   LIG    1       24.683 -20.429   2.707  0.00  0.00    -0.153 OA
ATOM     17  O   LIG    1       23.224 -18.500   3.418  0.00  0.00    -0.153 OA
BRANCH  15  18
ATOM     18  N   LIG    1       24.056 -20.088   5.127  0.00  0.00    -0.203 NA
ATOM     19  H   LIG    1       23.050 -20.178   5.282  0.00  0.00    +0.144 HD
ATOM     20  H   LIG    1       24.541 -19.574   5.866  0.00  0.00    +0.144 HD
ENDBRANCH  15  18
ENDBRANCH   3  15
TORSDOF 4
ENDMDL
MODEL 2
REMARK VINA RESULT:      -1.9      1.142      1.404
REMARK  Name = *****
REMARK                            x       y       z     vdW  Elec       q    Type
REMARK                         _______ _______ _______ _____ _____    ______ ____
ROOT
ATOM      1  C   LIG    1       26.428 -16.248   3.615  0.00  0.00    +0.108 A 
ATOM      2  C   LIG    1       25.396 -17.185   3.542  0.00  0.00    +0.058 A 
ATOM      3  C   LIG    1       25.613 -18.496   3.998  0.00  0.00    +0.127 A 
ATOM      4  C   LIG    1       26.858 -18.875   4.523  0.00  0.00    +0.086 A 
ATOM      5 CL   LIG    1       27.167 -20.480   5.102  0.00  0.00    -0.080 Cl
ATOM      6  C   LIG    1       27.881 -17.909   4.590  0.00  0.00    +0.063 A 
ATOM      7 CL   LIG    1       29.450 -18.260   5.232  0.00  0.00    -0.082 Cl
ATOM      8  C   LIG    1       27.668 -16.602   4.139  0.00  0.00    +0.050 A 
ENDROOT
BRANCH   1   9
ATOM      9  S   LIG    1       26.142 -14.591   3.064  0.00  0.00    +0.056 S 
ATOM     10  O   LIG    1       26.835 -14.409   1.812  0.00  0.00    -0.153 OA
ATOM     11  O   LIG    1       24.749 -14.269   3.245  0.00  0.00    -0.153 OA
BRANCH   9  12
ATOM     12  N   LIG    1       26.970 -13.688   4.210  0.00  0.00    -0.203 NA
ATOM     13  H   LIG    1       26.439 -12.846   4.441  0.00  0.00    +0.144 HD
ATOM     14  H   LIG    1       27.175 -14.268   5.024  0.00  0.00    +0.144 HD
ENDBRANCH   9  12
ENDBRANCH   1   9
BRANCH   3  15
ATOM     15  S   LIG    1       24.270 -19.639   3.876  0.00  0.00    +0.057 S 
ATOM     16  O   LIG    1       24.105 -20.318   5.136  0.00  0.00    -0.153 OA
ATOM     17  O   LIG    1       24.398 -20.367   2.632  0.00  0.00    -0.153 OA
BRANCH  15  18
ATOM     18  N   LIG    1       22.942 -18.641   3.652  0.00  0.00    -0.203 NA
ATOM     19  H   LIG    1       22.118 -19.198   3.412  0.00  0.00    +0.144 HD
ATOM     20  H   LIG    1       23.157 -17.912   2.969  0.00  0.00    +0.144 HD
ENDBRANCH  15  18
ENDBRANCH   3  15
TORSDOF 4
ENDMDL
MODEL 3
REMARK VINA RESULT:      -1.7      2.752      3.265
REMARK  Name = *****
REMARK                            x       y       z     vdW  Elec       q    Type
REMARK                         _______ _______ _______ _____ _____    ______ ____
ROOT
ATOM      1  C   LIG    1       25.317 -15.885   3.648  0.00  0.00    +0.108 A 
ATOM      2  C   LIG    1       25.595 -17.228   3.388  0.00  0.00    +0.058 A 
ATOM      3  C   LIG    1       24.637 -18.209   3.695  0.00  0.00    +0.127 A 
ATOM      4  C   LIG    1       23.404 -17.853   4.264  0.00  0.00    +0.086 A 
ATOM      5 CL   LIG    1       22.192 -19.031   4.653  0.00  0.00    -0.080 Cl
ATOM      6  C   LIG    1       23.147 -16.491   4.512  0.00  0.00    +0.063 A 
ATOM      7 CL   LIG    1       21.656 -15.936   5.196  0.00  0.00    -0.082 Cl
ATOM      8  C   LIG    1       24.097 -15.511   4.205  0.00  0.00    +0.050 A 
ENDROOT
BRANCH   1   9
ATOM      9  S   LIG    1       26.515 -14.650   3.235  0.00  0.00    +0.056 S 
ATOM     10  O   LIG    1       27.731 -14.949   3.951  0.00  0.00    -0.153 OA
ATOM     11  O   LIG    1       26.478 -14.416   1.813  0.00  0.00    -0.153 OA
BRANCH   9  12
ATOM     12  N   LIG    1       25.865 -13.275   3.940  0.00  0.00    -0.203 NA
ATOM     13  H   LIG    1       26.554 -12.521   3.937  0.00  0.00    +0.144 HD
ATOM     14  H   LIG    1       24.995 -13.023   3.468  0.00  0.00    +0.144 HD
ENDBRANCH   9  12
ENDBRANCH   1   9
BRANCH   3  15
ATOM     15  S   LIG    1       25.048 -19.893   3.347  0.00  0.00    +0.057 S 
ATOM     16  O   LIG    1       25.513 -20.000   1.987  0.00  0.00    -0.153 OA
ATOM     17  O   LIG    1       23.990 -20.739   3.856  0.00  0.00    -0.153 OA
BRANCH  15  18
ATOM     18  N   LIG    1       26.351 -20.183   4.360  0.00  0.00    -0.203 NA
ATOM     19  H   LIG    1       27.020 -19.412   4.303  0.00  0.00    +0.144 HD
ATOM     20  H   LIG    1       26.760 -21.097   4.159  0.00  0.00    +0.144 HD
ENDBRANCH  15  18
ENDBRANCH   3  15
TORSDOF 4
ENDMDL
MODEL 4
REMARK VINA RESULT:      -1.5      3.147      5.736
REMARK  Name = *****
REMARK                            x       y       z     vdW  Elec       q    Type
REMARK                         _______ _______ _______ _____ _____    ______ ____
ROOT
ATOM      1  C   LIG    1       24.713 -17.993   3.696  0.00  0.00    +0.108 A 
ATOM      2  C   LIG    1       25.667 -17.016   3.407  0.00  0.00    +0.058 A 
ATOM      3  C   LIG    1       25.374 -15.663   3.652  0.00  0.00    +0.127 A 
ATOM      4  C   LIG    1       24.130 -15.284   4.179  0.00  0.00    +0.086 A 
ATOM      5 CL   LIG    1       23.730 -13.627   4.502  0.00  0.00    -0.080 Cl
ATOM      6  C   LIG    1       23.187 -16.290   4.466  0.00  0.00    +0.063 A 
ATOM      7 CL   LIG    1       21.628 -15.938   5.134  0.00  0.00    -0.082 Cl
ATOM      8  C   LIG    1       23.476 -17.637   4.227  0.00  0.00    +0.050 A 
ENDROOT
BRANCH   1   9
ATOM      9  S   LIG    1       25.095 -19.697   3.411  0.00  0.00    +0.056 S 
ATOM     10  O   LIG    1       24.018 -20.493   3.947  0.00  0.00    -0.153 OA
ATOM     11  O   LIG    1       25.592 -19.849   2.066  0.00  0.00    -0.153 OA
BRANCH   9  12
ATOM     12  N   LIG    1       26.418 -19.936   4.414  0.00  0.00    -0.203 NA
ATOM     13  H   LIG    1       26.147 -19.798   5.389  0.00  0.00    +0.144 HD
ATOM     14  H   LIG    1       26.823 -20.857   4.237  0.00  0.00    +0.144 HD
ENDBRANCH   9  12
ENDBRANCH   1   9
BRANCH   3  15
ATOM     15  S   LIG    1       26.620 -14.471   3.262  0.00  0.00    +0.057 S 
ATOM     16  O   LIG    1       26.398 -13.277   4.037  0.00  0.00    -0.153 OA
ATOM     17  O   LIG    1       26.779 -14.425   1.825  0.00  0.00    -0.153 OA
BRANCH  15  18
ATOM     18  N   LIG    1       28.025 -15.194   3.823  0.00  0.00    -0.203 NA
ATOM     19  H   LIG    1       28.550 -15.597   3.044  0.00  0.00    +0.144 HD
ATOM     20  H   LIG    1       27.808 -15.865   4.562  0.00  0.00    +0.144 HD
ENDBRANCH  15  18
ENDBRANCH   3  15
TORSDOF 4
ENDMDL
MODEL 5
REMARK VINA RESULT:      -0.9      1.640      4.930
REMARK  Name = *****
REMARK                            x       y       z     vdW  Elec       q    Type
REMARK                         _______ _______ _______ _____ _____    ______ ____
ROOT
ATOM      1  C   LIG    1       25.222 -18.024   3.734  0.00  0.00    +0.108 A 
ATOM      2  C   LIG    1       24.793 -16.728   3.446  0.00  0.00    +0.058 A 
ATOM      3  C   LIG    1       25.706 -15.661   3.514  0.00  0.00    +0.127 A 
ATOM      4  C   LIG    1       27.044 -15.886   3.872  0.00  0.00    +0.086 A 
ATOM      5 CL   LIG    1       28.204 -14.599   3.961  0.00  0.00    -0.080 Cl
ATOM      6  C   LIG    1       27.452 -17.204   4.152  0.00  0.00    +0.063 A 
ATOM      7 CL   LIG    1       29.081 -17.599   4.588  0.00  0.00    -0.082 Cl
ATOM      8  C   LIG    1       26.548 -18.268   4.083  0.00  0.00    +0.050 A 
ENDROOT
BRANCH   1   9
ATOM      9  S   LIG    1       24.076 -19.368   3.622  0.00  0.00    +0.056 S 
ATOM     10  O   LIG    1       22.744 -18.833   3.754  0.00  0.00    -0.153 OA
ATOM     11  O   LIG    1       24.472 -20.234   2.540  0.00  0.00    -0.153 OA
BRANCH   9  12
ATOM     12  N   LIG    1       24.395 -20.224   5.028  0.00  0.00    -0.203 NA
ATOM     13  H   LIG    1       23.989 -19.740   5.832  0.00  0.00    +0.144 HD
ATOM     14  H   LIG    1       24.064 -21.185   4.931  0.00  0.00    +0.144 HD
ENDBRANCH   9  12
ENDBRANCH   1   9
BRANCH   3  15
ATOM     15  S   LIG    1       25.102 -14.042   3.143  0.00  0.00    +0.057 S 
ATOM     16  O   LIG    1       23.663 -14.040   3.216  0.00  0.00    -0.153 OA
ATOM     17  O   LIG    1       25.804 -13.545   1.980  0.00  0.00    -0.153 OA
BRANCH  15  18
ATOM     18  N   LIG    1       25.682 -13.120   4.417  0.00  0.00    -0.203 NA
ATOM     19  H   LIG    1       26.637 -12.811   4.223  0.00  0.00    +0.144 HD
ATOM     20  H   LIG    1       25.587 -13.631   5.297  0.00  0.00    +0.144 HD
ENDBRANCH  15  18
ENDBRANCH   3  15
TORSDOF 4
ENDMDL
MODEL 6
REMARK VINA RESULT:      -0.7      2.920      3.586
REMARK  Name = *****
REMARK                            x       y       z     vdW  Elec       q    Type
REMARK                         _______ _______ _______ _____ _____    ______ ____
ROOT
ATOM      1  C   LIG    1       25.394 -15.594   3.684  0.00  0.00    +0.108 A 
ATOM      2  C   LIG    1       25.635 -16.949   3.452  0.00  0.00    +0.058 A 
ATOM      3  C   LIG    1       24.651 -17.898   3.777  0.00  0.00    +0.127 A 
ATOM      4  C   LIG    1       23.428 -17.496   4.337  0.00  0.00    +0.086 A 
ATOM      5 CL   LIG    1       22.183 -18.633   4.747  0.00  0.00    -0.080 Cl
ATOM      6  C   LIG    1       23.208 -16.123   4.556  0.00  0.00    +0.063 A 
ATOM      7 CL   LIG    1       21.731 -15.514   5.226  0.00  0.00    -0.082 Cl
ATOM      8  C   LIG    1       24.184 -15.176   4.232  0.00  0.00    +0.050 A 
ENDROOT
BRANCH   1   9
ATOM      9  S   LIG    1       26.626 -14.401   3.249  0.00  0.00    +0.056 S 
ATOM     10  O   LIG    1       26.761 -14.399   1.813  0.00  0.00    -0.153 OA
ATOM     11  O   LIG    1       26.412 -13.202   4.020  0.00  0.00    -0.153 OA
BRANCH   9  12
ATOM     12  N   LIG    1       28.024 -15.093   3.865  0.00  0.00    -0.203 NA
ATOM     13  H   LIG    1       28.308 -14.607   4.718  0.00  0.00    +0.144 HD
ATOM     14  H   LIG    1       27.882 -16.095   4.003  0.00  0.00    +0.144 HD
ENDBRANCH   9  12
ENDBRANCH   1   9
BRANCH   3  15
ATOM     15  S   LIG    1       25.016 -19.599   3.464  0.00  0.00    +0.057 S 
ATOM     16  O   LIG    1       23.815 -20.380   3.616  0.00  0.00    -0.153 OA
ATOM     17  O   LIG    1       26.238 -19.941   4.158  0.00  0.00    -0.153 OA
BRANCH  15  18
ATOM     18  N   LIG    1       25.431 -19.605   1.840  0.00  0.00    -0.203 NA
ATOM     19  H   LIG    1       25.956 -20.453   1.613  0.00  0.00    +0.144 HD
ATOM     20  H   LIG    1       25.921 -18.742   1.596  0.00  0.00    +0.144 HD
ENDBRANCH  15  18
ENDBRANCH   3  15
TORSDOF 4
ENDMDL
MODEL 7
REMARK VINA RESULT:      -0.6      3.169      5.764
REMARK  Name = *****
REMARK                            x       y       z     vdW  Elec       q    Type
REMARK                         _______ _______ _______ _____ _____    ______ ____
ROOT
ATOM      1  C   LIG    1       24.697 -17.794   3.696  0.00  0.00    +0.108 A 
ATOM      2  C   LIG    1       25.598 -16.796   3.321  0.00  0.00    +0.058 A 
ATOM      3  C   LIG    1       25.293 -15.449   3.581  0.00  0.00    +0.127 A 
ATOM      4  C   LIG    1       24.088 -15.097   4.210  0.00  0.00    +0.086 A 
ATOM      5 CL   LIG    1       23.675 -13.448   4.555  0.00  0.00    -0.080 Cl
ATOM      6  C   LIG    1       23.199 -16.124   4.582  0.00  0.00    +0.063 A 
ATOM      7 CL   LIG    1       21.694 -15.806   5.377  0.00  0.00    -0.082 Cl
ATOM      8  C   LIG    1       23.501 -17.465   4.328  0.00  0.00    +0.050 A 
ENDROOT
BRANCH   1   9
ATOM      9  S   LIG    1       25.098 -19.490   3.391  0.00  0.00    +0.056 S 
ATOM     10  O   LIG    1       24.023 -20.304   3.902  0.00  0.00    -0.153 OA
ATOM     11  O   LIG    1       25.611 -19.618   2.050  0.00  0.00    -0.153 OA
BRANCH   9  12
ATOM     12  N   LIG    1       26.412 -19.733   4.405  0.00  0.00    -0.203 NA
ATOM     13  H   LIG    1       26.760 -18.835   4.746  0.00  0.00    +0.144 HD
ATOM     14  H   LIG    1       26.154 -20.375   5.156  0.00  0.00    +0.144 HD
ENDBRANCH   9  12
ENDBRANCH   1   9
BRANCH   3  15
ATOM     15  S   LIG    1       26.470 -14.230   3.079  0.00  0.00    +0.057 S 
ATOM     16  O   LIG    1       27.546 -14.870   2.366  0.00  0.00    -0.153 OA
ATOM     17  O   LIG    1       26.720 -13.345   4.196  0.00  0.00    -0.153 OA
BRANCH  15  18
ATOM     18  N   LIG    1       25.609 -13.300   1.982  0.00  0.00    -0.203 NA
ATOM     19  H   LIG    1       25.912 -13.508   1.029  0.00  0.00    +0.144 HD
ATOM     20  H   LIG    1       25.677 -12.310   2.227  0.00  0.00    +0.144 HD
ENDBRANCH  15  18
ENDBRANCH   3  15
TORSDOF 4
ENDMDL
MODEL 8
REMARK VINA RESULT:      -0.6      1.682      4.891
REMARK  Name = *****
REMARK                            x       y       z     vdW  Elec       q    Type
REMARK                         _______ _______ _______ _____ _____    ______ ____
ROOT
ATOM      1  C   LIG    1       25.396 -17.830   3.695  0.00  0.00    +0.108 A 
ATOM      2  C   LIG    1       24.973 -16.529   3.420  0.00  0.00    +0.058 A 
ATOM      3  C   LIG    1       25.886 -15.465   3.517  0.00  0.00    +0.127 A 
ATOM      4  C   LIG    1       27.219 -15.697   3.892  0.00  0.00    +0.086 A 
ATOM      5 CL   LIG    1       28.379 -14.414   4.018  0.00  0.00    -0.080 Cl
ATOM      6  C   LIG    1       27.621 -17.020   4.159  0.00  0.00    +0.063 A 
ATOM      7 CL   LIG    1       29.242 -17.424   4.613  0.00  0.00    -0.082 Cl
ATOM      8  C   LIG    1       26.716 -18.082   4.061  0.00  0.00    +0.050 A 
ENDROOT
BRANCH   1   9
ATOM      9  S   LIG    1       24.250 -19.170   3.546  0.00  0.00    +0.056 S 
ATOM     10  O   LIG    1       22.948 -18.693   3.942  0.00  0.00    -0.153 OA
ATOM     11  O   LIG    1       24.490 -19.857   2.301  0.00  0.00    -0.153 OA
BRANCH   9  12
ATOM     12  N   LIG    1       24.769 -20.217   4.749  0.00  0.00    -0.203 NA
ATOM     13  H   LIG    1       24.077 -20.955   4.891  0.00  0.00    +0.144 HD
ATOM     14  H   LIG    1       25.697 -20.576   4.518  0.00  0.00    +0.144 HD
ENDBRANCH   9  12
ENDBRANCH   1   9
BRANCH   3  15
ATOM     15  S   LIG    1       25.291 -13.839   3.161  0.00  0.00    +0.057 S 
ATOM     16  O   LIG    1       25.707 -13.458   1.836  0.00  0.00    -0.153 OA
ATOM     17  O   LIG    1       25.544 -12.996   4.309  0.00  0.00    -0.153 OA
BRANCH  15  18
ATOM     18  N   LIG    1       23.627 -14.041   3.139  0.00  0.00    -0.203 NA
ATOM     19  H   LIG    1       23.364 -14.863   3.686  0.00  0.00    +0.144 HD
ATOM     20  H   LIG    1       23.285 -14.062   2.176  0.00  0.00    +0.144 HD
ENDBRANCH  15  18
ENDBRANCH   3  15
TORSDOF 4
ENDMDL
MODEL 9
REMARK VINA RESULT:      -0.4      3.785      5.288
REMARK  Name = *****
REMARK                            x       y       z     vdW  Elec       q    Type
REMARK                         _______ _______ _______ _____ _____    ______ ____
ROOT
ATOM      1  C   LIG    1       24.895 -19.694   4.120  0.00  0.00    +0.108 A 
ATOM      2  C   LIG    1       25.865 -20.206   4.983  0.00  0.00    +0.058 A 
ATOM      3  C   LIG    1       27.055 -19.489   5.196  0.00  0.00    +0.127 A 
ATOM      4  C   LIG    1       27.279 -18.265   4.548  0.00  0.00    +0.086 A 
ATOM      5 CL   LIG    1       28.730 -17.345   4.788  0.00  0.00    -0.080 Cl
ATOM      6  C   LIG    1       26.282 -17.768   3.687  0.00  0.00    +0.063 A 
ATOM      7 CL   LIG    1       26.444 -16.262   2.848  0.00  0.00    -0.082 Cl
ATOM      8  C   LIG    1       25.095 -18.477   3.474  0.00  0.00    +0.050 A 
ENDROOT
BRANCH   1   9
ATOM      9  S   LIG    1       23.387 -20.587   3.875  0.00  0.00    +0.056 S 
ATOM     10  O   LIG    1       22.291 -19.657   3.992  0.00  0.00    -0.153 OA
ATOM     11  O   LIG    1       23.546 -21.477   2.752  0.00  0.00    -0.153 OA
BRANCH   9  12
ATOM     12  N   LIG    1       23.333 -21.572   5.231  0.00  0.00    -0.203 NA
ATOM     13  H   LIG    1       24.281 -21.816   5.524  0.00  0.00    +0.144 HD
ATOM     14  H   LIG    1       22.791 -21.117   5.967  0.00  0.00    +0.144 HD
ENDBRANCH   9  12
ENDBRANCH   1   9
BRANCH   3  15
ATOM     15  S   LIG    1       28.249 -20.190   6.296  0.00  0.00    +0.057 S 
ATOM     16  O   LIG    1       27.685 -21.354   6.933  0.00  0.00    -0.153 OA
ATOM     17  O   LIG    1       28.851 -19.122   7.062  0.00  0.00    -0.153 OA
BRANCH  15  18
ATOM     18  N   LIG    1       29.460 -20.709   5.260  0.00  0.00    -0.203 NA
ATOM     19  H   LIG    1       29.173 -21.564   4.780  0.00  0.00    +0.144 HD
ATOM     20  H   LIG    1       30.344 -20.798   5.765  0.00  0.00    +0.144 HD
ENDBRANCH  15  18
ENDBRANCH   3  15
TORSDOF 4
ENDMDL
