MODEL 1
REMARK VINA RESULT:     -10.0      0.000      0.000
REMARK  Name = *****
REMARK                            x       y       z     vdW  Elec       q    Type
REMARK                         _______ _______ _______ _____ _____    ______ ____
ROOT
ATOM      1  C   LIG    1       25.186 -21.040   7.038  0.00  0.00    +0.161 C 
ATOM      2  C   LIG    1       25.964 -20.469   5.859  0.00  0.00    +0.179 C 
ATOM      3  O   LIG    1       25.592 -20.345   4.710  0.00  0.00    -0.291 OA
ATOM      4  C   LIG    1       27.283 -20.043   6.334  0.00  0.00    +0.029 A 
ATOM      5  C   LIG    1       27.365 -20.212   7.707  0.00  0.00    +0.029 A 
ATOM      6  C   LIG    1       28.518 -19.917   8.412  0.00  0.00    +0.012 A 
ATOM      7  C   LIG    1       29.611 -19.431   7.688  0.00  0.00    +0.001 A 
ATOM      8  C   LIG    1       29.525 -19.247   6.293  0.00  0.00    +0.001 A 
ATOM      9  C   LIG    1       28.348 -19.553   5.600  0.00  0.00    +0.012 A 
ATOM     10  C   LIG    1       26.106 -20.752   8.215  0.00  0.00    +0.179 C 
ATOM     11  O   LIG    1       25.887 -20.939   9.398  0.00  0.00    -0.291 OA
ENDROOT
BRANCH   1  15
ATOM     12  C   LIG    1       24.167 -25.229   6.501  0.00  0.00    +0.120 A 
ATOM     13  C   LIG    1       25.502 -24.841   6.581  0.00  0.00    +0.046 A 
ATOM     14  C   LIG    1       25.846 -23.497   6.755  0.00  0.00    +0.008 A 
ATOM     15  C   LIG    1       24.853 -22.509   6.864  0.00  0.00    -0.029 A 
ATOM     16  C   LIG    1       23.513 -22.908   6.773  0.00  0.00    +0.008 A 
ATOM     17  C   LIG    1       23.174 -24.256   6.594  0.00  0.00    +0.046 A 
BRANCH  12  19
ATOM     18  C   LIG    1       24.795 -27.223   5.383  0.00  0.00    +0.277 C 
ATOM     19  O   LIG    1       23.959 -26.571   6.332  0.00  0.00    -0.495 OA
ENDBRANCH  12  19
ENDBRANCH   1  15
TORSDOF 2
ENDMDL
MODEL 2
REMARK VINA RESULT:      -9.0      3.466      7.765
REMARK  Name = *****
REMARK                            x       y       z     vdW  Elec       q    Type
REMARK                         _______ _______ _______ _____ _____    ______ ____
ROOT
ATOM      1  C   LIG    1       30.611 -19.685   7.499  0.00  0.00    +0.161 C 
ATOM      2  C   LIG    1       29.719 -19.151   6.385  0.00  0.00    +0.179 C 
ATOM      3  O   LIG    1       29.969 -18.272   5.585  0.00  0.00    -0.291 OA
ATOM      4  C   LIG    1       28.460 -19.901   6.397  0.00  0.00    +0.029 A 
ATOM      5  C   LIG    1       28.521 -20.907   7.349  0.00  0.00    +0.029 A 
ATOM      6  C   LIG    1       27.452 -21.748   7.593  0.00  0.00    +0.012 A 
ATOM      7  C   LIG    1       26.293 -21.555   6.834  0.00  0.00    +0.001 A 
ATOM      8  C   LIG    1       26.233 -20.541   5.857  0.00  0.00    +0.001 A 
ATOM      9  C   LIG    1       27.328 -19.700   5.628  0.00  0.00    +0.012 A 
ATOM     10  C   LIG    1       29.822 -20.880   8.013  0.00  0.00    +0.179 C 
ATOM     11  O   LIG    1       30.163 -21.695   8.851  0.00  0.00    -0.291 OA
ENDROOT
BRANCH   1  15
ATOM     12  C   LIG    1       31.424 -16.740  10.587  0.00  0.00    +0.120 A 
ATOM     13  C   LIG    1       32.398 -17.043   9.638  0.00  0.00    +0.046 A 
ATOM     14  C   LIG    1       32.151 -17.988   8.638  0.00  0.00    +0.008 A 
ATOM     15  C   LIG    1       30.912 -18.644   8.559  0.00  0.00    -0.029 A 
ATOM     16  C   LIG    1       29.941 -18.339   9.523  0.00  0.00    +0.008 A 
ATOM     17  C   LIG    1       30.195 -17.395  10.526  0.00  0.00    +0.046 A 
BRANCH  12  19
ATOM     18  C   LIG    1       32.229 -16.291  12.771  0.00  0.00    +0.277 C 
ATOM     19  O   LIG    1       31.784 -15.799  11.512  0.00  0.00    -0.495 OA
ENDBRANCH  12  19
ENDBRANCH   1  15
TORSDOF 2
ENDMDL
MODEL 3
REMARK VINA RESULT:      -8.6      2.986      6.078
REMARK  Name = *****
REMARK                            x       y       z     vdW  Elec       q    Type
REMARK                         _______ _______ _______ _____ _____    ______ ____
ROOT
ATOM      1  C   LIG    1       24.336 -22.934   7.060  0.00  0.00    +0.161 C 
ATOM      2  C   LIG    1       25.753 -23.470   6.904  0.00  0.00    +0.179 C 
ATOM      3  O   LIG    1       26.797 -22.909   7.169  0.00  0.00    -0.291 OA
ATOM      4  C   LIG    1       25.679 -24.840   6.386  0.00  0.00    +0.029 A 
ATOM      5  C   LIG    1       24.354 -25.235   6.291  0.00  0.00    +0.029 A 
ATOM      6  C   LIG    1       23.995 -26.476   5.800  0.00  0.00    +0.012 A 
ATOM      7  C   LIG    1       25.024 -27.334   5.401  0.00  0.00    +0.001 A 
ATOM      8  C   LIG    1       26.373 -26.939   5.508  0.00  0.00    +0.001 A 
ATOM      9  C   LIG    1       26.713 -25.677   6.008  0.00  0.00    +0.012 A 
ATOM     10  C   LIG    1       23.482 -24.154   6.745  0.00  0.00    +0.179 C 
ATOM     11  O   LIG    1       22.271 -24.258   6.823  0.00  0.00    -0.291 OA
ENDROOT
BRANCH   1  15
ATOM     12  C   LIG    1       23.565 -19.562   4.431  0.00  0.00    +0.120 A 
ATOM     13  C   LIG    1       22.802 -19.737   5.584  0.00  0.00    +0.046 A 
ATOM     14  C   LIG    1       23.039 -20.816   6.440  0.00  0.00    +0.008 A 
ATOM     15  C   LIG    1       24.058 -21.743   6.164  0.00  0.00    -0.029 A 
ATOM     16  C   LIG    1       24.815 -21.563   4.998  0.00  0.00    +0.008 A 
ATOM     17  C   LIG    1       24.571 -20.482   4.141  0.00  0.00    +0.046 A 
BRANCH  12  19
ATOM     18  C   LIG    1       22.335 -17.542   4.269  0.00  0.00    +0.277 C 
ATOM     19  O   LIG    1       23.239 -18.468   3.677  0.00  0.00    -0.495 OA
ENDBRANCH  12  19
ENDBRANCH   1  15
TORSDOF 2
ENDMDL
MODEL 4
REMARK VINA RESULT:      -8.6      2.538      3.914
REMARK  Name = *****
REMARK                            x       y       z     vdW  Elec       q    Type
REMARK                         _______ _______ _______ _____ _____    ______ ____
ROOT
ATOM      1  C   LIG    1       24.846 -22.557   6.846  0.00  0.00    +0.161 C 
ATOM      2  C   LIG    1       23.402 -22.153   6.573  0.00  0.00    +0.179 C 
ATOM      3  O   LIG    1       22.390 -22.644   7.031  0.00  0.00    -0.291 OA
ATOM      4  C   LIG    1       23.404 -21.012   5.653  0.00  0.00    +0.029 A 
ATOM      5  C   LIG    1       24.708 -20.614   5.400  0.00  0.00    +0.029 A 
ATOM      6  C   LIG    1       25.000 -19.576   4.536  0.00  0.00    +0.012 A 
ATOM      7  C   LIG    1       23.925 -18.926   3.921  0.00  0.00    +0.001 A 
ATOM      8  C   LIG    1       22.599 -19.321   4.185  0.00  0.00    +0.001 A 
ATOM      9  C   LIG    1       22.326 -20.376   5.064  0.00  0.00    +0.012 A 
ATOM     10  C   LIG    1       25.636 -21.464   6.142  0.00  0.00    +0.179 C 
ATOM     11  O   LIG    1       26.842 -21.293   6.148  0.00  0.00    -0.291 OA
ENDROOT
BRANCH   1  15
ATOM     12  C   LIG    1       25.746 -26.595   5.523  0.00  0.00    +0.120 A 
ATOM     13  C   LIG    1       25.183 -25.680   4.636  0.00  0.00    +0.046 A 
ATOM     14  C   LIG    1       24.889 -24.377   5.047  0.00  0.00    +0.008 A 
ATOM     15  C   LIG    1       25.164 -23.957   6.359  0.00  0.00    -0.029 A 
ATOM     16  C   LIG    1       25.723 -24.888   7.245  0.00  0.00    +0.008 A 
ATOM     17  C   LIG    1       26.012 -26.194   6.830  0.00  0.00    +0.046 A 
BRANCH  12  19
ATOM     18  C   LIG    1       25.087 -28.869   5.384  0.00  0.00    +0.277 C 
ATOM     19  O   LIG    1       25.990 -27.837   5.001  0.00  0.00    -0.495 OA
ENDBRANCH  12  19
ENDBRANCH   1  15
TORSDOF 2
ENDMDL
MODEL 5
REMARK VINA RESULT:      -8.1      1.766      6.335
REMARK  Name = *****
REMARK                            x       y       z     vdW  Elec       q    Type
REMARK                         _______ _______ _______ _____ _____    ______ ____
ROOT
ATOM      1  C   LIG    1       25.733 -21.134   6.992  0.00  0.00    +0.161 C 
ATOM      2  C   LIG    1       25.796 -22.394   7.847  0.00  0.00    +0.179 C 
ATOM      3  O   LIG    1       26.028 -22.478   9.036  0.00  0.00    -0.291 OA
ATOM      4  C   LIG    1       25.498 -23.550   6.997  0.00  0.00    +0.029 A 
ATOM      5  C   LIG    1       25.168 -23.121   5.720  0.00  0.00    +0.029 A 
ATOM      6  C   LIG    1       24.872 -24.011   4.705  0.00  0.00    +0.012 A 
ATOM      7  C   LIG    1       24.911 -25.376   5.011  0.00  0.00    +0.001 A 
ATOM      8  C   LIG    1       25.234 -25.813   6.311  0.00  0.00    +0.001 A 
ATOM      9  C   LIG    1       25.531 -24.893   7.324  0.00  0.00    +0.012 A 
ATOM     10  C   LIG    1       25.224 -21.663   5.659  0.00  0.00    +0.179 C 
ATOM     11  O   LIG    1       24.920 -21.022   4.668  0.00  0.00    -0.291 OA
ENDROOT
BRANCH   1  15
ATOM     12  C   LIG    1       29.525 -19.041   6.674  0.00  0.00    +0.120 A 
ATOM     13  C   LIG    1       29.116 -19.559   7.900  0.00  0.00    +0.046 A 
ATOM     14  C   LIG    1       27.898 -20.236   8.018  0.00  0.00    +0.008 A 
ATOM     15  C   LIG    1       27.066 -20.419   6.901  0.00  0.00    -0.029 A 
ATOM     16  C   LIG    1       27.483 -19.886   5.674  0.00  0.00    +0.008 A 
ATOM     17  C   LIG    1       28.702 -19.205   5.562  0.00  0.00    +0.046 A 
BRANCH  12  19
ATOM     18  C   LIG    1       31.553 -18.624   7.830  0.00  0.00    +0.277 C 
ATOM     19  O   LIG    1       30.736 -18.402   6.686  0.00  0.00    -0.495 OA
ENDBRANCH  12  19
ENDBRANCH   1  15
TORSDOF 2
ENDMDL
MODEL 6
REMARK VINA RESULT:      -7.9      2.875      6.060
REMARK  Name = *****
REMARK                            x       y       z     vdW  Elec       q    Type
REMARK                         _______ _______ _______ _____ _____    ______ ____
ROOT
ATOM      1  C   LIG    1       26.048 -20.421   4.459  0.00  0.00    +0.161 C 
ATOM      2  C   LIG    1       25.412 -19.142   3.928  0.00  0.00    +0.179 C 
ATOM      3  O   LIG    1       25.966 -18.190   3.418  0.00  0.00    -0.291 OA
ATOM      4  C   LIG    1       23.960 -19.236   4.105  0.00  0.00    +0.029 A 
ATOM      5  C   LIG    1       23.627 -20.483   4.611  0.00  0.00    +0.029 A 
ATOM      6  C   LIG    1       22.321 -20.828   4.904  0.00  0.00    +0.012 A 
ATOM      7  C   LIG    1       21.332 -19.869   4.667  0.00  0.00    +0.001 A 
ATOM      8  C   LIG    1       21.666 -18.604   4.142  0.00  0.00    +0.001 A 
ATOM      9  C   LIG    1       22.996 -18.276   3.853  0.00  0.00    +0.012 A 
ATOM     10  C   LIG    1       24.837 -21.282   4.789  0.00  0.00    +0.179 C 
ATOM     11  O   LIG    1       24.825 -22.441   5.163  0.00  0.00    -0.291 OA
ENDROOT
BRANCH   1  15
ATOM     12  C   LIG    1       28.645 -19.771   7.879  0.00  0.00    +0.120 A 
ATOM     13  C   LIG    1       29.093 -19.469   6.596  0.00  0.00    +0.046 A 
ATOM     14  C   LIG    1       28.269 -19.672   5.485  0.00  0.00    +0.008 A 
ATOM     15  C   LIG    1       26.966 -20.174   5.639  0.00  0.00    -0.029 A 
ATOM     16  C   LIG    1       26.527 -20.483   6.934  0.00  0.00    +0.008 A 
ATOM     17  C   LIG    1       27.358 -20.282   8.043  0.00  0.00    +0.046 A 
BRANCH  12  19
ATOM     18  C   LIG    1       30.903 -19.389   8.490  0.00  0.00    +0.277 C 
ATOM     19  O   LIG    1       29.542 -19.527   8.883  0.00  0.00    -0.495 OA
ENDBRANCH  12  19
ENDBRANCH   1  15
TORSDOF 2
ENDMDL
MODEL 7
REMARK VINA RESULT:      -7.7      2.277      6.063
REMARK  Name = *****
REMARK                            x       y       z     vdW  Elec       q    Type
REMARK                         _______ _______ _______ _____ _____    ______ ____
ROOT
ATOM      1  C   LIG    1       26.944 -21.953   8.198  0.00  0.00    +0.161 C 
ATOM      2  C   LIG    1       26.439 -22.669   6.952  0.00  0.00    +0.179 C 
ATOM      3  O   LIG    1       26.960 -23.591   6.358  0.00  0.00    -0.291 OA
ATOM      4  C   LIG    1       25.157 -22.077   6.562  0.00  0.00    +0.029 A 
ATOM      5  C   LIG    1       24.775 -21.126   7.495  0.00  0.00    +0.029 A 
ATOM      6  C   LIG    1       23.615 -20.388   7.354  0.00  0.00    +0.012 A 
ATOM      7  C   LIG    1       22.824 -20.638   6.228  0.00  0.00    +0.001 A 
ATOM      8  C   LIG    1       23.204 -21.613   5.283  0.00  0.00    +0.001 A 
ATOM      9  C   LIG    1       24.384 -22.348   5.447  0.00  0.00    +0.012 A 
ATOM     10  C   LIG    1       25.779 -21.042   8.553  0.00  0.00    +0.179 C 
ATOM     11  O   LIG    1       25.661 -20.327   9.532  0.00  0.00    -0.291 OA
ENDROOT
BRANCH   1  15
ATOM     12  C   LIG    1       30.643 -19.781   7.514  0.00  0.00    +0.120 A 
ATOM     13  C   LIG    1       30.630 -20.886   8.363  0.00  0.00    +0.046 A 
ATOM     14  C   LIG    1       29.448 -21.595   8.592  0.00  0.00    +0.008 A 
ATOM     15  C   LIG    1       28.249 -21.219   7.964  0.00  0.00    -0.029 A 
ATOM     16  C   LIG    1       28.271 -20.101   7.118  0.00  0.00    +0.008 A 
ATOM     17  C   LIG    1       29.458 -19.390   6.895  0.00  0.00    +0.046 A 
BRANCH  12  19
ATOM     18  C   LIG    1       32.158 -18.132   8.294  0.00  0.00    +0.277 C 
ATOM     19  O   LIG    1       31.861 -19.172   7.370  0.00  0.00    -0.495 OA
ENDBRANCH  12  19
ENDBRANCH   1  15
TORSDOF 2
ENDMDL
MODEL 8
REMARK VINA RESULT:      -7.4      3.079      4.697
REMARK  Name = *****
REMARK                            x       y       z     vdW  Elec       q    Type
REMARK                         _______ _______ _______ _____ _____    ______ ____
ROOT
ATOM      1  C   LIG    1       29.168 -20.152   6.850  0.00  0.00    +0.161 C 
ATOM      2  C   LIG    1       29.817 -20.569   8.164  0.00  0.00    +0.179 C 
ATOM      3  O   LIG    1       29.874 -21.682   8.647  0.00  0.00    -0.291 OA
ATOM      4  C   LIG    1       30.416 -19.385   8.785  0.00  0.00    +0.029 A 
ATOM      5  C   LIG    1       30.280 -18.293   7.942  0.00  0.00    +0.029 A 
ATOM      6  C   LIG    1       30.732 -17.035   8.296  0.00  0.00    +0.012 A 
ATOM      7  C   LIG    1       31.343 -16.898   9.547  0.00  0.00    +0.001 A 
ATOM      8  C   LIG    1       31.493 -18.009  10.401  0.00  0.00    +0.001 A 
ATOM      9  C   LIG    1       31.028 -19.274  10.021  0.00  0.00    +0.012 A 
ATOM     10  C   LIG    1       29.591 -18.696   6.718  0.00  0.00    +0.179 C 
ATOM     11  O   LIG    1       29.395 -17.943   5.781  0.00  0.00    -0.291 OA
ENDROOT
BRANCH   1  15
ATOM     12  C   LIG    1       24.861 -20.709   6.910  0.00  0.00    +0.120 A 
ATOM     13  C   LIG    1       25.525 -20.536   5.697  0.00  0.00    +0.046 A 
ATOM     14  C   LIG    1       26.911 -20.356   5.662  0.00  0.00    +0.008 A 
ATOM     15  C   LIG    1       27.667 -20.358   6.846  0.00  0.00    -0.029 A 
ATOM     16  C   LIG    1       26.988 -20.525   8.061  0.00  0.00    +0.008 A 
ATOM     17  C   LIG    1       25.599 -20.700   8.092  0.00  0.00    +0.046 A 
BRANCH  12  19
ATOM     18  C   LIG    1       22.877 -20.282   5.684  0.00  0.00    +0.277 C 
ATOM     19  O   LIG    1       23.506 -20.877   6.813  0.00  0.00    -0.495 OA
ENDBRANCH  12  19
ENDBRANCH   1  15
TORSDOF 2
ENDMDL
MODEL 9
REMARK VINA RESULT:      -7.3      3.067      7.170
REMARK  Name = *****
REMARK                            x       y       z     vdW  Elec       q    Type
REMARK                         _______ _______ _______ _____ _____    ______ ____
ROOT
ATOM      1  C   LIG    1       26.146 -26.308   6.419  0.00  0.00    +0.161 C 
ATOM      2  C   LIG    1       25.604 -27.101   5.237  0.00  0.00    +0.179 C 
ATOM      3  O   LIG    1       25.576 -26.773   4.068  0.00  0.00    -0.291 OA
ATOM      4  C   LIG    1       25.119 -28.395   5.726  0.00  0.00    +0.029 A 
ATOM      5  C   LIG    1       25.390 -28.516   7.080  0.00  0.00    +0.029 A 
ATOM      6  C   LIG    1       25.008 -29.631   7.804  0.00  0.00    +0.012 A 
ATOM      7  C   LIG    1       24.337 -30.648   7.118  0.00  0.00    +0.001 A 
ATOM      8  C   LIG    1       24.072 -30.532   5.739  0.00  0.00    +0.001 A 
ATOM      9  C   LIG    1       24.467 -29.394   5.025  0.00  0.00    +0.012 A 
ATOM     10  C   LIG    1       26.071 -27.316   7.557  0.00  0.00    +0.179 C 
ATOM     11  O   LIG    1       26.478 -27.185   8.698  0.00  0.00    -0.291 OA
ENDROOT
BRANCH   1  15
ATOM     12  C   LIG    1       23.854 -22.697   7.172  0.00  0.00    +0.120 A 
ATOM     13  C   LIG    1       25.231 -22.704   7.380  0.00  0.00    +0.046 A 
ATOM     14  C   LIG    1       25.983 -23.859   7.141  0.00  0.00    +0.008 A 
ATOM     15  C   LIG    1       25.369 -25.033   6.675  0.00  0.00    -0.029 A 
ATOM     16  C   LIG    1       23.981 -25.018   6.478  0.00  0.00    +0.008 A 
ATOM     17  C   LIG    1       23.232 -23.860   6.723  0.00  0.00    +0.046 A 
BRANCH  12  19
ATOM     18  C   LIG    1       23.204 -20.559   6.378  0.00  0.00    +0.277 C 
ATOM     19  O   LIG    1       23.231 -21.508   7.439  0.00  0.00    -0.495 OA
ENDBRANCH  12  19
ENDBRANCH   1  15
TORSDOF 2
ENDMDL
