MODEL 1
REMARK VINA RESULT:      10.3      0.000      0.000
REMARK  Name = *****
REMARK                            x       y       z     vdW  Elec       q    Type
REMARK                         _______ _______ _______ _____ _____    ______ ____
ROOT
ATOM      1  C   LIG    1       26.281 -20.363   4.581  0.00  0.00    +0.011 C 
ATOM      2  C   LIG    1       25.011 -19.823   3.928  0.00  0.00    +0.026 C 
ATOM      3  C   LIG    1       24.023 -19.109   4.884  0.00  0.00    +0.133 C 
ATOM      4  C   LIG    1       23.225 -18.175   3.907  0.00  0.00    +0.009 C 
ATOM      5  C   LIG    1       24.340 -17.611   2.984  0.00  0.00    +0.003 C 
ATOM      6  C   LIG    1       25.086 -16.341   3.498  0.00  0.00    +0.018 C 
ATOM      7  C   LIG    1       24.169 -15.225   4.091  0.00  0.00    +0.086 C 
ATOM      8  C   LIG    1       23.199 -15.869   5.132  0.00  0.00    +0.137 C 
ATOM      9 CL   LIG    1       23.100 -14.568   2.735  0.00  0.00    -0.114 Cl
ATOM     10  C   LIG    1       25.059 -14.014   4.676  0.00  0.00    +0.029 C 
ATOM     11  C   LIG    1       26.136 -13.546   3.646  0.00  0.00    -0.054 C 
ATOM     12  C   LIG    1       26.944 -12.521   4.009  0.00  0.00    +0.051 C 
ATOM     13  C   LIG    1       27.698 -12.857   5.279  0.00  0.00    +0.179 C 
ATOM     14  C   LIG    1       27.078 -13.860   6.199  0.00  0.00    +0.047 C 
ATOM     15  O   LIG    1       28.737 -12.281   5.573  0.00  0.00    -0.288 OA
ATOM     16  C   LIG    1       26.856 -14.642   2.874  0.00  0.00    +0.032 C 
ATOM     17  C   LIG    1       24.178 -12.799   5.100  0.00  0.00    +0.022 C 
ATOM     18  C   LIG    1       25.863 -14.380   5.939  0.00  0.00    -0.011 C 
ATOM     19  C   LIG    1       25.972 -15.768   2.371  0.00  0.00    +0.010 C 
ATOM     20  C   LIG    1       22.222 -18.982   3.034  0.00  0.00    +0.015 C 
ATOM     21  C   LIG    1       22.411 -17.066   4.589  0.00  0.00    +0.043 C 
ATOM     22  C   LIG    1       25.326 -18.798   2.822  0.00  0.00    +0.011 C 
ENDROOT
BRANCH   3  23
ATOM     23  O   LIG    1       24.755 -18.304   5.806  0.00  0.00    -0.380 OA
ATOM     24  H   LIG    1       24.188 -18.124   6.581  0.00  0.00    +0.211 HD
ENDBRANCH   3  23
BRANCH   3  25
ATOM     25  C   LIG    1       23.116 -20.126   5.629  0.00  0.00    +0.180 C 
ATOM     26  O   LIG    1       22.146 -20.660   5.084  0.00  0.00    -0.293 OA
BRANCH  25  27
ATOM     27  C   LIG    1       23.465 -20.459   7.062  0.00  0.00    +0.186 C 
ATOM     28 CL   LIG    1       24.848 -21.571   7.057  0.00  0.00    -0.117 Cl
ENDBRANCH  25  27
ENDBRANCH   3  25
BRANCH   8  29
ATOM     29  O   LIG    1       22.218 -14.948   5.622  0.00  0.00    -0.390 OA
ATOM     30  H   LIG    1       22.002 -14.339   4.889  0.00  0.00    +0.210 HD
ENDBRANCH   8  29
TORSDOF 4
ENDMDL
MODEL 2
REMARK VINA RESULT:      10.5      2.161      6.726
REMARK  Name = *****
REMARK                            x       y       z     vdW  Elec       q    Type
REMARK                         _______ _______ _______ _____ _____    ______ ____
ROOT
ATOM      1  C   LIG    1       23.786 -13.349   5.418  0.00  0.00    +0.011 C 
ATOM      2  C   LIG    1       24.646 -13.805   4.241  0.00  0.00    +0.026 C 
ATOM      3  C   LIG    1       25.987 -14.484   4.621  0.00  0.00    +0.133 C 
ATOM      4  C   LIG    1       26.295 -15.352   3.351  0.00  0.00    +0.009 C 
ATOM      5  C   LIG    1       24.907 -15.958   3.004  0.00  0.00    +0.003 C 
ATOM      6  C   LIG    1       24.524 -17.276   3.743  0.00  0.00    +0.018 C 
ATOM      7  C   LIG    1       25.654 -18.353   3.813  0.00  0.00    +0.086 C 
ATOM      8  C   LIG    1       26.962 -17.677   4.334  0.00  0.00    +0.137 C 
ATOM      9 CL   LIG    1       26.023 -18.923   2.095  0.00  0.00    -0.114 Cl
ATOM     10  C   LIG    1       25.172 -19.622   4.684  0.00  0.00    +0.029 C 
ATOM     11  C   LIG    1       23.766 -20.127   4.227  0.00  0.00    -0.054 C 
ATOM     12  C   LIG    1       23.249 -21.203   4.871  0.00  0.00    +0.051 C 
ATOM     13  C   LIG    1       23.136 -20.934   6.357  0.00  0.00    +0.179 C 
ATOM     14  C   LIG    1       24.063 -19.917   6.942  0.00  0.00    +0.047 C 
ATOM     15  O   LIG    1       22.365 -21.572   7.061  0.00  0.00    -0.288 OA
ATOM     16  C   LIG    1       22.732 -19.057   3.909  0.00  0.00    +0.032 C 
ATOM     17  C   LIG    1       26.197 -20.795   4.614  0.00  0.00    +0.022 C 
ATOM     18  C   LIG    1       25.009 -19.326   6.187  0.00  0.00    -0.011 C 
ATOM     19  C   LIG    1       23.249 -17.875   3.111  0.00  0.00    +0.010 C 
ATOM     20  C   LIG    1       26.764 -14.474   2.155  0.00  0.00    +0.015 C 
ATOM     21  C   LIG    1       27.372 -16.429   3.546  0.00  0.00    +0.043 C 
ATOM     22  C   LIG    1       23.908 -14.823   3.352  0.00  0.00    +0.011 C 
ENDROOT
BRANCH   3  23
ATOM     23  O   LIG    1       25.781 -15.345   5.738  0.00  0.00    -0.380 OA
ATOM     24  H   LIG    1       25.890 -14.825   6.557  0.00  0.00    +0.211 HD
ENDBRANCH   3  23
BRANCH   3  25
ATOM     25  C   LIG    1       27.090 -13.433   4.922  0.00  0.00    +0.180 C 
ATOM     26  O   LIG    1       27.568 -13.292   6.051  0.00  0.00    -0.293 OA
BRANCH  25  27
ATOM     27  C   LIG    1       27.579 -12.580   3.774  0.00  0.00    +0.186 C 
ATOM     28 CL   LIG    1       29.354 -12.601   3.777  0.00  0.00    -0.117 Cl
ENDBRANCH  25  27
ENDBRANCH   3  25
BRANCH   8  29
ATOM     29  O   LIG    1       28.095 -18.553   4.292  0.00  0.00    -0.390 OA
ATOM     30  H   LIG    1       27.765 -19.459   4.452  0.00  0.00    +0.210 HD
ENDBRANCH   8  29
TORSDOF 4
ENDMDL
