MODEL 1
REMARK VINA RESULT:       6.3      0.000      0.000
REMARK  Name = *****
REMARK                            x       y       z     vdW  Elec       q    Type
REMARK                         _______ _______ _______ _____ _____    ______ ____
ROOT
ATOM      1  C   LIG    1       24.125 -20.901   4.494  0.00  0.00    +0.132 C 
ATOM      2  C   LIG    1       24.353 -19.357   4.710  0.00  0.00    +0.014 C 
ATOM      3  C   LIG    1       25.866 -19.258   5.103  0.00  0.00    +0.002 C 
ATOM      4  C   LIG    1       26.872 -18.708   4.052  0.00  0.00    -0.003 C 
ATOM      5  C   LIG    1       26.272 -17.631   3.119  0.00  0.00    -0.000 C 
ATOM      6  C   LIG    1       25.043 -18.240   2.448  0.00  0.00    +0.005 C 
ATOM      7  C   LIG    1       26.035 -16.299   3.882  0.00  0.00    +0.019 C 
ATOM      8  C   LIG    1       27.371 -15.848   4.443  0.00  0.00    -0.063 C 
ATOM      9  C   LIG    1       28.004 -14.724   4.061  0.00  0.00    +0.045 C 
ATOM     10  C   LIG    1       27.474 -13.891   2.956  0.00  0.00    +0.156 C 
ATOM     11  C   LIG    1       26.308 -14.434   2.162  0.00  0.00    +0.079 C 
ATOM     12  O   LIG    1       28.040 -12.844   2.662  0.00  0.00    -0.293 OA
ATOM     13  C   LIG    1       27.986 -16.817   5.414  0.00  0.00    +0.031 C 
ATOM     14  C   LIG    1       25.349 -15.182   3.075  0.00  0.00    +0.016 C 
ATOM     15  C   LIG    1       28.161 -18.183   4.736  0.00  0.00    +0.008 C 
ATOM     16  C   LIG    1       26.289 -20.681   5.551  0.00  0.00    +0.008 C 
ATOM     17  C   LIG    1       23.938 -18.538   3.446  0.00  0.00    +0.011 C 
ATOM     18  C   LIG    1       25.050 -21.570   5.507  0.00  0.00    +0.049 C 
ENDROOT
BRANCH   1  20
ATOM     19  C   LIG    1       21.593 -21.556   4.804  0.00  0.00    +0.007 C 
ATOM     20  C   LIG    1       22.737 -21.260   4.664  0.00  0.00    -0.070 C 
ENDBRANCH   1  20
BRANCH   2  21
ATOM     21  C   LIG    1       23.484 -18.737   5.883  0.00  0.00    +0.007 C 
ATOM     22  C   LIG    1       22.288 -17.854   5.551  0.00  0.00    +0.004 C 
ENDBRANCH   2  21
BRANCH   1  23
ATOM     23  O   LIG    1       24.564 -21.283   3.192  0.00  0.00    -0.376 OA
ATOM     24  H   LIG    1       23.866 -21.845   2.813  0.00  0.00    +0.211 HD
ENDBRANCH   1  23
TORSDOF 3
ENDMDL
MODEL 2
REMARK VINA RESULT:       6.4      1.868      6.904
REMARK  Name = *****
REMARK                            x       y       z     vdW  Elec       q    Type
REMARK                         _______ _______ _______ _____ _____    ______ ____
ROOT
ATOM      1  C   LIG    1       26.657 -12.833   3.480  0.00  0.00    +0.132 C 
ATOM      2  C   LIG    1       26.257 -14.134   4.272  0.00  0.00    +0.014 C 
ATOM      3  C   LIG    1       24.691 -14.130   4.221  0.00  0.00    +0.002 C 
ATOM      4  C   LIG    1       23.976 -15.138   3.278  0.00  0.00    -0.003 C 
ATOM      5  C   LIG    1       24.724 -16.482   3.120  0.00  0.00    -0.000 C 
ATOM      6  C   LIG    1       26.135 -16.166   2.631  0.00  0.00    +0.005 C 
ATOM      7  C   LIG    1       24.633 -17.329   4.419  0.00  0.00    +0.019 C 
ATOM      8  C   LIG    1       23.162 -17.557   4.716  0.00  0.00    -0.063 C 
ATOM      9  C   LIG    1       22.572 -18.766   4.699  0.00  0.00    +0.045 C 
ATOM     10  C   LIG    1       23.320 -19.971   4.268  0.00  0.00    +0.156 C 
ATOM     11  C   LIG    1       24.701 -19.772   3.685  0.00  0.00    +0.079 C 
ATOM     12  O   LIG    1       22.777 -21.069   4.312  0.00  0.00    -0.293 OA
ATOM     13  C   LIG    1       22.380 -16.294   4.948  0.00  0.00    +0.031 C 
ATOM     14  C   LIG    1       25.424 -18.649   4.411  0.00  0.00    +0.016 C 
ATOM     15  C   LIG    1       22.510 -15.377   3.724  0.00  0.00    +0.008 C 
ATOM     16  C   LIG    1       24.275 -12.680   3.864  0.00  0.00    +0.008 C 
ATOM     17  C   LIG    1       26.940 -15.402   3.667  0.00  0.00    +0.011 C 
ATOM     18  C   LIG    1       25.544 -11.836   3.791  0.00  0.00    +0.049 C 
ENDROOT
BRANCH   1  20
ATOM     19  C   LIG    1       29.048 -11.974   4.178  0.00  0.00    +0.007 C 
ATOM     20  C   LIG    1       27.968 -12.362   3.863  0.00  0.00    -0.070 C 
ENDBRANCH   1  20
BRANCH   2  21
ATOM     21  C   LIG    1       26.713 -14.129   5.791  0.00  0.00    +0.007 C 
ATOM     22  C   LIG    1       27.992 -14.850   6.197  0.00  0.00    +0.004 C 
ENDBRANCH   2  21
BRANCH   1  23
ATOM     23  O   LIG    1       26.629 -13.086   2.076  0.00  0.00    -0.376 OA
ATOM     24  H   LIG    1       26.518 -14.046   1.965  0.00  0.00    +0.211 HD
ENDBRANCH   1  23
TORSDOF 3
ENDMDL
MODEL 3
REMARK VINA RESULT:       7.7      1.063      1.205
REMARK  Name = *****
REMARK                            x       y       z     vdW  Elec       q    Type
REMARK                         _______ _______ _______ _____ _____    ______ ____
ROOT
ATOM      1  C   LIG    1       23.513 -20.718   4.109  0.00  0.00    +0.132 C 
ATOM      2  C   LIG    1       23.858 -19.271   4.626  0.00  0.00    +0.014 C 
ATOM      3  C   LIG    1       25.417 -19.191   4.489  0.00  0.00    +0.002 C 
ATOM      4  C   LIG    1       26.019 -18.336   3.338  0.00  0.00    -0.003 C 
ATOM      5  C   LIG    1       25.174 -17.091   2.979  0.00  0.00    -0.000 C 
ATOM      6  C   LIG    1       23.768 -17.577   2.636  0.00  0.00    +0.005 C 
ATOM      7  C   LIG    1       25.264 -16.014   4.094  0.00  0.00    +0.019 C 
ATOM      8  C   LIG    1       26.727 -15.647   4.261  0.00  0.00    -0.063 C 
ATOM      9  C   LIG    1       27.231 -14.430   3.990  0.00  0.00    +0.045 C 
ATOM     10  C   LIG    1       26.384 -13.373   3.388  0.00  0.00    +0.156 C 
ATOM     11  C   LIG    1       24.996 -13.759   2.930  0.00  0.00    +0.079 C 
ATOM     12  O   LIG    1       26.852 -12.256   3.200  0.00  0.00    -0.293 OA
ATOM     13  C   LIG    1       27.603 -16.797   4.677  0.00  0.00    +0.031 C 
ATOM     14  C   LIG    1       24.384 -14.768   3.889  0.00  0.00    +0.016 C 
ATOM     15  C   LIG    1       27.483 -17.932   3.651  0.00  0.00    +0.008 C 
ATOM     16  C   LIG    1       25.915 -20.655   4.381  0.00  0.00    +0.008 C 
ATOM     17  C   LIG    1       23.064 -18.180   3.838  0.00  0.00    +0.011 C 
ATOM     18  C   LIG    1       24.705 -21.572   4.535  0.00  0.00    +0.049 C 
ENDROOT
BRANCH   1  20
ATOM     19  C   LIG    1       21.221 -21.572   5.085  0.00  0.00    +0.007 C 
ATOM     20  C   LIG    1       22.256 -21.186   4.644  0.00  0.00    -0.070 C 
ENDBRANCH   1  20
BRANCH   2  21
ATOM     21  C   LIG    1       23.470 -19.020   6.143  0.00  0.00    +0.007 C 
ATOM     22  C   LIG    1       23.142 -20.203   7.044  0.00  0.00    +0.004 C 
ENDBRANCH   2  21
BRANCH   1  23
ATOM     23  O   LIG    1       23.462 -20.730   2.683  0.00  0.00    -0.376 OA
ATOM     24  H   LIG    1       23.304 -19.813   2.400  0.00  0.00    +0.211 HD
ENDBRANCH   1  23
TORSDOF 3
ENDMDL
