MODEL 1
REMARK VINA RESULT:      -9.8      0.000      0.000
REMARK  Name = *****
REMARK                            x       y       z     vdW  Elec       q    Type
REMARK                         _______ _______ _______ _____ _____    ______ ____
ROOT
ATOM      1  C   LIG    1       27.626 -21.319   7.250  0.00  0.00    +0.125 A 
ATOM      2  C   LIG    1       27.834 -20.310   6.307  0.00  0.00    +0.069 A 
ATOM      3 CL   LIG    1       26.638 -19.773   5.182  0.00  0.00    -0.082 Cl
ATOM      4  C   LIG    1       29.082 -19.667   6.243  0.00  0.00    +0.047 A 
ATOM      5  C   LIG    1       30.117 -20.001   7.122  0.00  0.00    +0.057 A 
ATOM      6  N   LIG    1       31.320 -19.322   7.085  0.00  0.00    -0.326 N 
ATOM      7  H   LIG    1       31.424 -18.635   6.346  0.00  0.00    +0.148 HD
ATOM      8  C   LIG    1       32.097 -19.036   8.286  0.00  0.00    +0.163 C 
ATOM      9  N   LIG    1       31.823 -19.933   9.390  0.00  0.00    -0.170 NA
ATOM     10  H   LIG    1       31.468 -19.553  10.262  0.00  0.00    +0.150 HD
ATOM     11  S   LIG    1       31.230 -21.447   9.070  0.00  0.00    +0.062 S 
ATOM     12  O   LIG    1       30.683 -21.917  10.325  0.00  0.00    -0.153 OA
ATOM     13  O   LIG    1       32.201 -22.209   8.321  0.00  0.00    -0.153 OA
ATOM     14  C   LIG    1       29.892 -21.042   8.014  0.00  0.00    +0.128 A 
ATOM     15  C   LIG    1       28.664 -21.697   8.112  0.00  0.00    +0.060 A 
ENDROOT
BRANCH   8  16
ATOM     16  C   LIG    1       31.776 -17.594   8.735  0.00  0.00    +0.033 C 
ATOM     17  C   LIG    1       30.337 -17.350   9.270  0.00  0.00    +0.018 C 
ATOM     18  C   LIG    1       30.529 -15.990   9.955  0.00  0.00    +0.015 C 
ATOM     19  C   LIG    1       31.604 -16.513  10.908  0.00  0.00    +0.012 C 
ATOM     20  C   LIG    1       30.858 -17.696  11.479  0.00  0.00    -0.027 C 
ATOM     21  C   LIG    1       30.094 -18.196  10.496  0.00  0.00    -0.027 C 
ATOM     22  C   LIG    1       32.653 -17.069   9.923  0.00  0.00    +0.015 C 
ENDBRANCH   8  16
BRANCH   1  23
ATOM     23  S   LIG    1       26.059 -22.111   7.427  0.00  0.00    +0.057 S 
ATOM     24  O   LIG    1       25.060 -21.320   6.748  0.00  0.00    -0.153 OA
ATOM     25  O   LIG    1       26.212 -23.523   7.173  0.00  0.00    -0.153 OA
BRANCH  23  26
ATOM     26  N   LIG    1       25.716 -21.927   9.058  0.00  0.00    -0.203 NA
ATOM     27  H   LIG    1       26.525 -22.201   9.618  0.00  0.00    +0.144 HD
ATOM     28  H   LIG    1       25.389 -20.977   9.241  0.00  0.00    +0.144 HD
ENDBRANCH  23  26
ENDBRANCH   1  23
TORSDOF 3
ENDMDL
MODEL 2
REMARK VINA RESULT:      -8.4      3.494      7.567
REMARK  Name = *****
REMARK                            x       y       z     vdW  Elec       q    Type
REMARK                         _______ _______ _______ _____ _____    ______ ____
ROOT
ATOM      1  C   LIG    1       28.804 -19.490   7.705  0.00  0.00    +0.125 A 
ATOM      2  C   LIG    1       28.900 -19.608   6.316  0.00  0.00    +0.069 A 
ATOM      3 CL   LIG    1       30.230 -19.020   5.384  0.00  0.00    -0.082 Cl
ATOM      4  C   LIG    1       27.870 -20.242   5.602  0.00  0.00    +0.047 A 
ATOM      5  C   LIG    1       26.756 -20.779   6.255  0.00  0.00    +0.057 A 
ATOM      6  N   LIG    1       25.778 -21.448   5.545  0.00  0.00    -0.326 N 
ATOM      7  H   LIG    1       25.882 -21.457   4.536  0.00  0.00    +0.148 HD
ATOM      8  C   LIG    1       25.067 -22.602   6.085  0.00  0.00    +0.163 C 
ATOM      9  N   LIG    1       25.059 -22.662   7.532  0.00  0.00    -0.170 NA
ATOM     10  H   LIG    1       25.474 -23.462   7.998  0.00  0.00    +0.150 HD
ATOM     11  S   LIG    1       25.239 -21.260   8.397  0.00  0.00    +0.062 S 
ATOM     12  O   LIG    1       25.603 -21.679   9.734  0.00  0.00    -0.153 OA
ATOM     13  O   LIG    1       24.125 -20.378   8.145  0.00  0.00    -0.153 OA
ATOM     14  C   LIG    1       26.669 -20.600   7.630  0.00  0.00    +0.128 A 
ATOM     15  C   LIG    1       27.676 -19.985   8.374  0.00  0.00    +0.060 A 
ENDROOT
BRANCH   8  16
ATOM     16  C   LIG    1       25.744 -23.881   5.545  0.00  0.00    +0.033 C 
ATOM     17  C   LIG    1       25.897 -25.051   6.557  0.00  0.00    +0.018 C 
ATOM     18  C   LIG    1       26.213 -26.203   5.594  0.00  0.00    +0.015 C 
ATOM     19  C   LIG    1       24.902 -26.046   4.823  0.00  0.00    +0.012 C 
ATOM     20  C   LIG    1       23.937 -26.101   5.985  0.00  0.00    -0.027 C 
ATOM     21  C   LIG    1       24.537 -25.505   7.027  0.00  0.00    -0.027 C 
ATOM     22  C   LIG    1       24.981 -24.575   4.365  0.00  0.00    +0.015 C 
ENDBRANCH   8  16
BRANCH   1  23
ATOM     23  S   LIG    1       30.098 -18.772   8.665  0.00  0.00    +0.057 S 
ATOM     24  O   LIG    1       30.976 -18.037   7.784  0.00  0.00    -0.153 OA
ATOM     25  O   LIG    1       29.532 -18.170   9.848  0.00  0.00    -0.153 OA
BRANCH  23  26
ATOM     26  N   LIG    1       30.998 -20.099   9.155  0.00  0.00    -0.203 NA
ATOM     27  H   LIG    1       31.408 -19.922  10.074  0.00  0.00    +0.144 HD
ATOM     28  H   LIG    1       30.425 -20.943   9.113  0.00  0.00    +0.144 HD
ENDBRANCH  23  26
ENDBRANCH   1  23
TORSDOF 3
ENDMDL
MODEL 3
REMARK VINA RESULT:      -8.3      6.174      8.444
REMARK  Name = *****
REMARK                            x       y       z     vdW  Elec       q    Type
REMARK                         _______ _______ _______ _____ _____    ______ ____
ROOT
ATOM      1  C   LIG    1       23.274 -20.059   5.049  0.00  0.00    +0.125 A 
ATOM      2  C   LIG    1       22.322 -21.079   5.118  0.00  0.00    +0.069 A 
ATOM      3 CL   LIG    1       20.752 -20.989   4.403  0.00  0.00    -0.082 Cl
ATOM      4  C   LIG    1       22.629 -22.268   5.801  0.00  0.00    +0.047 A 
ATOM      5  C   LIG    1       23.878 -22.462   6.397  0.00  0.00    +0.057 A 
ATOM      6  N   LIG    1       24.185 -23.658   7.017  0.00  0.00    -0.326 N 
ATOM      7  H   LIG    1       23.435 -24.339   7.075  0.00  0.00    +0.148 HD
ATOM      8  C   LIG    1       25.523 -24.240   6.982  0.00  0.00    +0.163 C 
ATOM      9  N   LIG    1       26.576 -23.275   6.742  0.00  0.00    -0.170 NA
ATOM     10  H   LIG    1       27.168 -23.380   5.923  0.00  0.00    +0.150 HD
ATOM     11  S   LIG    1       26.322 -21.688   7.141  0.00  0.00    +0.062 S 
ATOM     12  O   LIG    1       27.334 -20.944   6.422  0.00  0.00    -0.153 OA
ATOM     13  O   LIG    1       26.143 -21.561   8.569  0.00  0.00    -0.153 OA
ATOM     14  C   LIG    1       24.783 -21.409   6.351  0.00  0.00    +0.128 A 
ATOM     15  C   LIG    1       24.518 -20.218   5.675  0.00  0.00    +0.060 A 
ENDROOT
BRANCH   8  16
ATOM     16  C   LIG    1       25.559 -25.297   5.857  0.00  0.00    +0.033 C 
ATOM     17  C   LIG    1       26.493 -26.516   6.096  0.00  0.00    +0.018 C 
ATOM     18  C   LIG    1       25.970 -27.474   5.018  0.00  0.00    +0.015 C 
ATOM     19  C   LIG    1       24.550 -27.494   5.587  0.00  0.00    +0.012 C 
ATOM     20  C   LIG    1       24.875 -27.860   7.017  0.00  0.00    -0.027 C 
ATOM     21  C   LIG    1       26.044 -27.275   7.321  0.00  0.00    -0.027 C 
ATOM     22  C   LIG    1       24.185 -25.995   5.572  0.00  0.00    +0.015 C 
ENDBRANCH   8  16
BRANCH   1  23
ATOM     23  S   LIG    1       22.976 -18.574   4.143  0.00  0.00    +0.057 S 
ATOM     24  O   LIG    1       22.430 -18.921   2.852  0.00  0.00    -0.153 OA
ATOM     25  O   LIG    1       22.332 -17.615   5.007  0.00  0.00    -0.153 OA
BRANCH  23  26
ATOM     26  N   LIG    1       24.519 -18.004   3.817  0.00  0.00    -0.203 NA
ATOM     27  H   LIG    1       24.734 -18.128   2.826  0.00  0.00    +0.144 HD
ATOM     28  H   LIG    1       24.611 -17.042   4.143  0.00  0.00    +0.144 HD
ENDBRANCH  23  26
ENDBRANCH   1  23
TORSDOF 3
ENDMDL
MODEL 4
REMARK VINA RESULT:      -7.8      2.824      4.370
REMARK  Name = *****
REMARK                            x       y       z     vdW  Elec       q    Type
REMARK                         _______ _______ _______ _____ _____    ______ ____
ROOT
ATOM      1  C   LIG    1       24.348 -19.949   4.949  0.00  0.00    +0.125 A 
ATOM      2  C   LIG    1       25.470 -19.432   4.296  0.00  0.00    +0.069 A 
ATOM      3 CL   LIG    1       25.395 -18.398   2.914  0.00  0.00    -0.082 Cl
ATOM      4  C   LIG    1       26.755 -19.748   4.769  0.00  0.00    +0.047 A 
ATOM      5  C   LIG    1       26.936 -20.555   5.896  0.00  0.00    +0.057 A 
ATOM      6  N   LIG    1       28.203 -20.813   6.383  0.00  0.00    -0.326 N 
ATOM      7  H   LIG    1       28.976 -20.448   5.836  0.00  0.00    +0.148 HD
ATOM      8  C   LIG    1       28.485 -20.945   7.808  0.00  0.00    +0.163 C 
ATOM      9  N   LIG    1       27.332 -21.315   8.602  0.00  0.00    -0.170 NA
ATOM     10  H   LIG    1       27.016 -20.693   9.340  0.00  0.00    +0.150 HD
ATOM     11  S   LIG    1       26.081 -22.126   7.878  0.00  0.00    +0.062 S 
ATOM     12  O   LIG    1       24.957 -21.979   8.778  0.00  0.00    -0.153 OA
ATOM     13  O   LIG    1       26.532 -23.417   7.415  0.00  0.00    -0.153 OA
ATOM     14  C   LIG    1       25.801 -21.093   6.491  0.00  0.00    +0.128 A 
ATOM     15  C   LIG    1       24.510 -20.794   6.055  0.00  0.00    +0.060 A 
ENDROOT
BRANCH   8  16
ATOM     16  C   LIG    1       29.018 -19.589   8.321  0.00  0.00    +0.033 C 
ATOM     17  C   LIG    1       30.247 -19.655   9.271  0.00  0.00    +0.018 C 
ATOM     18  C   LIG    1       30.701 -18.190   9.230  0.00  0.00    +0.015 C 
ATOM     19  C   LIG    1       30.922 -18.200   7.716  0.00  0.00    +0.012 C 
ATOM     20  C   LIG    1       31.822 -19.410   7.618  0.00  0.00    -0.027 C 
ATOM     21  C   LIG    1       31.418 -20.282   8.555  0.00  0.00    -0.027 C 
ATOM     22  C   LIG    1       29.532 -18.623   7.199  0.00  0.00    +0.015 C 
ENDBRANCH   8  16
BRANCH   1  23
ATOM     23  S   LIG    1       22.710 -19.528   4.448  0.00  0.00    +0.057 S 
ATOM     24  O   LIG    1       22.188 -18.534   5.357  0.00  0.00    -0.153 OA
ATOM     25  O   LIG    1       22.687 -19.335   3.018  0.00  0.00    -0.153 OA
BRANCH  23  26
ATOM     26  N   LIG    1       21.834 -20.918   4.784  0.00  0.00    -0.203 NA
ATOM     27  H   LIG    1       21.362 -21.245   3.939  0.00  0.00    +0.144 HD
ATOM     28  H   LIG    1       22.440 -21.616   5.215  0.00  0.00    +0.144 HD
ENDBRANCH  23  26
ENDBRANCH   1  23
TORSDOF 3
ENDMDL
MODEL 5
REMARK VINA RESULT:      -7.6      9.246     11.395
REMARK  Name = *****
REMARK                            x       y       z     vdW  Elec       q    Type
REMARK                         _______ _______ _______ _____ _____    ______ ____
ROOT
ATOM      1  C   LIG    1       23.398 -29.879  12.265  0.00  0.00    +0.125 A 
ATOM      2  C   LIG    1       22.575 -30.393  11.261  0.00  0.00    +0.069 A 
ATOM      3 CL   LIG    1       20.970 -30.975  11.527  0.00  0.00    -0.082 Cl
ATOM      4  C   LIG    1       23.047 -30.452   9.939  0.00  0.00    +0.047 A 
ATOM      5  C   LIG    1       24.321 -29.985   9.601  0.00  0.00    +0.057 A 
ATOM      6  N   LIG    1       24.751 -29.998   8.288  0.00  0.00    -0.326 N 
ATOM      7  H   LIG    1       24.125 -30.428   7.616  0.00  0.00    +0.148 HD
ATOM      8  C   LIG    1       25.606 -28.955   7.732  0.00  0.00    +0.163 C 
ATOM      9  N   LIG    1       26.381 -28.240   8.725  0.00  0.00    -0.170 NA
ATOM     10  H   LIG    1       26.254 -27.238   8.827  0.00  0.00    +0.150 HD
ATOM     11  S   LIG    1       26.730 -28.985  10.164  0.00  0.00    +0.062 S 
ATOM     12  O   LIG    1       27.122 -27.919  11.061  0.00  0.00    -0.153 OA
ATOM     13  O   LIG    1       27.565 -30.140   9.931  0.00  0.00    -0.153 OA
ATOM     14  C   LIG    1       25.132 -29.526  10.632  0.00  0.00    +0.128 A 
ATOM     15  C   LIG    1       24.694 -29.444  11.954  0.00  0.00    +0.060 A 
ENDROOT
BRANCH   8  16
ATOM     16  C   LIG    1       24.708 -27.942   6.989  0.00  0.00    +0.033 C 
ATOM     17  C   LIG    1       25.307 -26.522   6.783  0.00  0.00    +0.018 C 
ATOM     18  C   LIG    1       24.349 -25.976   5.717  0.00  0.00    +0.015 C 
ATOM     19  C   LIG    1       24.681 -27.081   4.713  0.00  0.00    +0.012 C 
ATOM     20  C   LIG    1       26.186 -26.948   4.705  0.00  0.00    -0.027 C 
ATOM     21  C   LIG    1       26.561 -26.609   5.948  0.00  0.00    -0.027 C 
ATOM     22  C   LIG    1       24.340 -28.350   5.521  0.00  0.00    +0.015 C 
ENDBRANCH   8  16
BRANCH   1  23
ATOM     23  S   LIG    1       22.835 -29.710  13.928  0.00  0.00    +0.057 S 
ATOM     24  O   LIG    1       21.787 -28.717  13.965  0.00  0.00    -0.153 OA
ATOM     25  O   LIG    1       22.658 -31.022  14.503  0.00  0.00    -0.153 OA
BRANCH  23  26
ATOM     26  N   LIG    1       24.135 -28.990  14.705  0.00  0.00    -0.203 NA
ATOM     27  H   LIG    1       24.476 -28.201  14.154  0.00  0.00    +0.144 HD
ATOM     28  H   LIG    1       23.877 -28.746  15.662  0.00  0.00    +0.144 HD
ENDBRANCH  23  26
ENDBRANCH   1  23
TORSDOF 3
ENDMDL
MODEL 6
REMARK VINA RESULT:      -7.5      9.957     11.895
REMARK  Name = *****
REMARK                            x       y       z     vdW  Elec       q    Type
REMARK                         _______ _______ _______ _____ _____    ______ ____
ROOT
ATOM      1  C   LIG    1       24.761 -31.804   9.981  0.00  0.00    +0.125 A 
ATOM      2  C   LIG    1       24.055 -30.604  10.103  0.00  0.00    +0.069 A 
ATOM      3 CL   LIG    1       23.427 -29.996  11.593  0.00  0.00    -0.082 Cl
ATOM      4  C   LIG    1       23.828 -29.814   8.963  0.00  0.00    +0.047 A 
ATOM      5  C   LIG    1       24.313 -30.194   7.708  0.00  0.00    +0.057 A 
ATOM      6  N   LIG    1       24.131 -29.380   6.606  0.00  0.00    -0.326 N 
ATOM      7  H   LIG    1       23.570 -28.548   6.752  0.00  0.00    +0.148 HD
ATOM      8  C   LIG    1       25.128 -29.255   5.548  0.00  0.00    +0.163 C 
ATOM      9  N   LIG    1       26.026 -30.387   5.453  0.00  0.00    -0.170 NA
ATOM     10  H   LIG    1       27.023 -30.242   5.577  0.00  0.00    +0.150 HD
ATOM     11  S   LIG    1       25.526 -31.863   6.015  0.00  0.00    +0.062 S 
ATOM     12  O   LIG    1       26.734 -32.645   6.167  0.00  0.00    -0.153 OA
ATOM     13  O   LIG    1       24.400 -32.330   5.241  0.00  0.00    -0.153 OA
ATOM     14  C   LIG    1       24.967 -31.416   7.614  0.00  0.00    +0.128 A 
ATOM     15  C   LIG    1       25.219 -32.222   8.725  0.00  0.00    +0.060 A 
ENDROOT
BRANCH   8  16
ATOM     16  C   LIG    1       25.965 -27.987   5.823  0.00  0.00    +0.033 C 
ATOM     17  C   LIG    1       25.678 -26.768   4.902  0.00  0.00    +0.018 C 
ATOM     18  C   LIG    1       26.363 -25.654   5.704  0.00  0.00    +0.015 C 
ATOM     19  C   LIG    1       25.495 -25.879   6.943  0.00  0.00    +0.012 C 
ATOM     20  C   LIG    1       24.133 -25.794   6.294  0.00  0.00    -0.027 C 
ATOM     21  C   LIG    1       24.244 -26.325   5.067  0.00  0.00    -0.027 C 
ATOM     22  C   LIG    1       25.763 -27.367   7.248  0.00  0.00    +0.015 C 
ENDBRANCH   8  16
BRANCH   1  23
ATOM     23  S   LIG    1       25.141 -32.800  11.386  0.00  0.00    +0.057 S 
ATOM     24  O   LIG    1       23.913 -33.117  12.077  0.00  0.00    -0.153 OA
ATOM     25  O   LIG    1       26.081 -33.824  10.999  0.00  0.00    -0.153 OA
BRANCH  23  26
ATOM     26  N   LIG    1       25.944 -31.738  12.406  0.00  0.00    -0.203 NA
ATOM     27  H   LIG    1       25.288 -31.051  12.780  0.00  0.00    +0.144 HD
ATOM     28  H   LIG    1       26.450 -32.259  13.123  0.00  0.00    +0.144 HD
ENDBRANCH  23  26
ENDBRANCH   1  23
TORSDOF 3
ENDMDL
MODEL 7
REMARK VINA RESULT:      -7.0     10.283     11.334
REMARK  Name = *****
REMARK                            x       y       z     vdW  Elec       q    Type
REMARK                         _______ _______ _______ _____ _____    ______ ____
ROOT
ATOM      1  C   LIG    1       24.820 -30.140   7.542  0.00  0.00    +0.125 A 
ATOM      2  C   LIG    1       25.505 -28.934   7.709  0.00  0.00    +0.069 A 
ATOM      3 CL   LIG    1       25.912 -27.864   6.416  0.00  0.00    -0.082 Cl
ATOM      4  C   LIG    1       25.898 -28.533   8.997  0.00  0.00    +0.047 A 
ATOM      5  C   LIG    1       25.599 -29.307  10.122  0.00  0.00    +0.057 A 
ATOM      6  N   LIG    1       25.944 -28.873  11.388  0.00  0.00    -0.326 N 
ATOM      7  H   LIG    1       26.481 -28.014  11.437  0.00  0.00    +0.148 HD
ATOM      8  C   LIG    1       25.112 -29.129  12.559  0.00  0.00    +0.163 C 
ATOM      9  N   LIG    1       24.232 -30.271  12.416  0.00  0.00    -0.170 NA
ATOM     10  H   LIG    1       23.228 -30.136  12.483  0.00  0.00    +0.150 HD
ATOM     11  S   LIG    1       24.640 -31.473  11.351  0.00  0.00    +0.062 S 
ATOM     12  O   LIG    1       23.419 -32.219  11.129  0.00  0.00    -0.153 OA
ATOM     13  O   LIG    1       25.864 -32.111  11.772  0.00  0.00    -0.153 OA
ATOM     14  C   LIG    1       24.961 -30.524   9.914  0.00  0.00    +0.128 A 
ATOM     15  C   LIG    1       24.547 -30.950   8.652  0.00  0.00    +0.060 A 
ENDROOT
BRANCH   8  16
ATOM     16  C   LIG    1       24.249 -27.875  12.820  0.00  0.00    +0.033 C 
ATOM     17  C   LIG    1       23.326 -27.930  14.069  0.00  0.00    +0.018 C 
ATOM     18  C   LIG    1       22.970 -26.444  14.209  0.00  0.00    +0.015 C 
ATOM     19  C   LIG    1       24.428 -26.011  14.372  0.00  0.00    +0.012 C 
ATOM     20  C   LIG    1       24.824 -26.937  15.498  0.00  0.00    -0.027 C 
ATOM     21  C   LIG    1       24.160 -28.089  15.317  0.00  0.00    -0.027 C 
ATOM     22  C   LIG    1       25.066 -26.563  13.081  0.00  0.00    +0.015 C 
ENDBRANCH   8  16
BRANCH   1  23
ATOM     23  S   LIG    1       24.234 -30.660   5.961  0.00  0.00    +0.057 S 
ATOM     24  O   LIG    1       25.351 -30.709   5.046  0.00  0.00    -0.153 OA
ATOM     25  O   LIG    1       23.344 -31.783   6.132  0.00  0.00    -0.153 OA
BRANCH  23  26
ATOM     26  N   LIG    1       23.312 -29.360   5.443  0.00  0.00    -0.203 NA
ATOM     27  H   LIG    1       23.296 -28.635   6.163  0.00  0.00    +0.144 HD
ATOM     28  H   LIG    1       23.647 -29.033   4.536  0.00  0.00    +0.144 HD
ENDBRANCH  23  26
ENDBRANCH   1  23
TORSDOF 3
ENDMDL
MODEL 8
REMARK VINA RESULT:      -6.8     11.356     12.920
REMARK  Name = *****
REMARK                            x       y       z     vdW  Elec       q    Type
REMARK                         _______ _______ _______ _____ _____    ______ ____
ROOT
ATOM      1  C   LIG    1       24.506 -30.341   8.256  0.00  0.00    +0.125 A 
ATOM      2  C   LIG    1       25.199 -29.485   9.116  0.00  0.00    +0.069 A 
ATOM      3 CL   LIG    1       26.560 -28.532   8.643  0.00  0.00    -0.082 Cl
ATOM      4  C   LIG    1       24.789 -29.365  10.454  0.00  0.00    +0.047 A 
ATOM      5  C   LIG    1       23.683 -30.069  10.941  0.00  0.00    +0.057 A 
ATOM      6  N   LIG    1       23.257 -29.898  12.245  0.00  0.00    -0.326 N 
ATOM      7  H   LIG    1       23.832 -29.301  12.829  0.00  0.00    +0.148 HD
ATOM      8  C   LIG    1       21.848 -29.931  12.620  0.00  0.00    +0.163 C 
ATOM      9  N   LIG    1       21.009 -30.659  11.690  0.00  0.00    -0.170 NA
ATOM     10  H   LIG    1       20.249 -30.174  11.224  0.00  0.00    +0.150 HD
ATOM     11  S   LIG    1       21.691 -31.833  10.740  0.00  0.00    +0.062 S 
ATOM     12  O   LIG    1       20.739 -32.062   9.673  0.00  0.00    -0.153 OA
ATOM     13  O   LIG    1       22.193 -32.906  11.566  0.00  0.00    -0.153 OA
ATOM     14  C   LIG    1       23.048 -30.948  10.073  0.00  0.00    +0.128 A 
ATOM     15  C   LIG    1       23.421 -31.088   8.737  0.00  0.00    +0.060 A 
ENDROOT
BRANCH   8  16
ATOM     16  C   LIG    1       21.338 -28.476  12.706  0.00  0.00    +0.033 C 
ATOM     17  C   LIG    1       20.224 -28.204  13.755  0.00  0.00    +0.018 C 
ATOM     18  C   LIG    1       20.279 -26.672  13.818  0.00  0.00    +0.015 C 
ATOM     19  C   LIG    1       21.745 -26.646  14.256  0.00  0.00    +0.012 C 
ATOM     20  C   LIG    1       21.653 -27.579  15.441  0.00  0.00    -0.027 C 
ATOM     21  C   LIG    1       20.737 -28.513  15.141  0.00  0.00    -0.027 C 
ATOM     22  C   LIG    1       22.427 -27.425  13.113  0.00  0.00    +0.015 C 
ENDBRANCH   8  16
BRANCH   1  23
ATOM     23  S   LIG    1       24.927 -30.478   6.549  0.00  0.00    +0.057 S 
ATOM     24  O   LIG    1       25.050 -29.151   5.993  0.00  0.00    -0.153 OA
ATOM     25  O   LIG    1       25.970 -31.464   6.397  0.00  0.00    -0.153 OA
BRANCH  23  26
ATOM     26  N   LIG    1       23.535 -31.106   5.857  0.00  0.00    -0.203 NA
ATOM     27  H   LIG    1       22.863 -31.351   6.586  0.00  0.00    +0.144 HD
ATOM     28  H   LIG    1       23.169 -30.456   5.160  0.00  0.00    +0.144 HD
ENDBRANCH  23  26
ENDBRANCH   1  23
TORSDOF 3
ENDMDL
