MODEL 1
REMARK VINA RESULT:      -4.7      0.000      0.000
REMARK  Name = *****
REMARK                            x       y       z     vdW  Elec       q    Type
REMARK                         _______ _______ _______ _____ _____    ______ ____
ROOT
ATOM      1  O   UNK    1       25.602 -16.827   3.316  0.00  0.00    -0.283 OA
ENDROOT
BRANCH   1   2
ATOM      2  P   UNK    1       26.348 -15.433   3.508  0.00  0.00    +0.475 P 
ATOM      3  O   UNK    1       27.706 -15.510   4.117  0.00  0.00    -0.227 OA
BRANCH   2   4
ATOM      4  O   UNK    1       26.382 -14.794   2.041  0.00  0.00    -0.302 OA
ATOM      5  H   UNK    1       25.925 -15.364   1.397  0.00  0.00    +0.222 HD
ENDBRANCH   2   4
BRANCH   2   6
ATOM      6  O   UNK    1       25.282 -14.501   4.262  0.00  0.00    -0.284 OA
BRANCH   6   7
ATOM      7  C   UNK    1       25.693 -13.208   4.683  0.00  0.00    +0.202 C 
BRANCH   7   8
ATOM      8  C   UNK    1       24.744 -12.084   4.236  0.00  0.00    +0.187 C 
BRANCH   8   9
ATOM      9  N   UNK    1       23.578 -11.975   5.141  0.00  0.00    -0.317 NA
ATOM     10  H   UNK    1       23.155 -12.889   5.291  0.00  0.00    +0.119 HD
ATOM     11  H   UNK    1       23.891 -11.657   6.061  0.00  0.00    +0.119 HD
ENDBRANCH   8   9
BRANCH   8  12
ATOM     12  C   UNK    1       24.285 -12.324   2.790  0.00  0.00    +0.324 C 
ATOM     13  O   UNK    1       24.696 -11.714   1.815  0.00  0.00    -0.249 OA
BRANCH  12  14
ATOM     14  O   UNK    1       23.434 -13.375   2.675  0.00  0.00    -0.479 OA
ATOM     15  H   UNK    1       23.714 -14.168   3.172  0.00  0.00    +0.295 HD
ENDBRANCH  12  14
ENDBRANCH   8  12
ENDBRANCH   7   8
ENDBRANCH   6   7
ENDBRANCH   2   6
ENDBRANCH   1   2
BRANCH   1  16
ATOM     16  C   UNK    1       26.398 -18.004   3.362  0.00  0.00    +0.220 C 
BRANCH  16  17
ATOM     17  C   UNK    1       25.684 -19.077   4.195  0.00  0.00    +0.240 C 
BRANCH  17  18
ATOM     18  C   UNK    1       24.614 -19.800   3.361  0.00  0.00    +0.279 C 
BRANCH  18  19
ATOM     19  O   UNK    1       23.668 -20.511   4.182  0.00  0.00    -0.461 OA
BRANCH  19  20
ATOM     20  C   UNK    1       22.856 -19.698   4.920  0.00  0.00    +0.307 C 
ATOM     21  O   UNK    1       22.728 -19.773   6.121  0.00  0.00    -0.251 OA
BRANCH  20  22
ATOM     22  C   UNK    1       22.184 -18.668   4.044  0.00  0.00    +0.117 C 
ATOM     23  C   UNK    1       22.240 -17.295   4.694  0.00  0.00    +0.015 C 
ENDBRANCH  20  22
ENDBRANCH  19  20
ENDBRANCH  18  19
ENDBRANCH  17  18
BRANCH  17  24
ATOM     24  O   UNK    1       26.626 -20.082   4.649  0.00  0.00    -0.456 OA
BRANCH  24  25
ATOM     25  C   UNK    1       26.762 -20.236   5.999  0.00  0.00    +0.307 C 
ATOM     26  O   UNK    1       25.858 -20.155   6.826  0.00  0.00    -0.251 OA
BRANCH  25  27
ATOM     27  C   UNK    1       28.184 -20.599   6.351  0.00  0.00    +0.120 C 
BRANCH  27  29
ATOM     28  C   UNK    1       29.416 -18.472   5.729  0.00  0.00    +0.004 C 
ATOM     29  C   UNK    1       28.932 -19.369   6.858  0.00  0.00    +0.008 C 
ENDBRANCH  27  29
ENDBRANCH  25  27
ENDBRANCH  24  25
ENDBRANCH  17  24
ENDBRANCH  16  17
ENDBRANCH   1  16
TORSDOF 18
ENDMDL
MODEL 2
REMARK VINA RESULT:      -4.3      1.569      4.051
REMARK  Name = *****
REMARK                            x       y       z     vdW  Elec       q    Type
REMARK                         _______ _______ _______ _____ _____    ______ ____
ROOT
ATOM      1  O   UNK    1       26.664 -15.587   3.021  0.00  0.00    -0.283 OA
ENDROOT
BRANCH   1   2
ATOM      2  P   UNK    1       27.132 -14.188   3.620  0.00  0.00    +0.475 P 
ATOM      3  O   UNK    1       26.959 -14.030   5.092  0.00  0.00    -0.227 OA
BRANCH   2   4
ATOM      4  O   UNK    1       28.665 -14.059   3.178  0.00  0.00    -0.302 OA
ATOM      5  H   UNK    1       29.252 -13.990   3.952  0.00  0.00    +0.222 HD
ENDBRANCH   2   4
BRANCH   2   6
ATOM      6  O   UNK    1       26.417 -13.089   2.697  0.00  0.00    -0.284 OA
BRANCH   6   7
ATOM      7  C   UNK    1       25.261 -13.470   1.965  0.00  0.00    +0.202 C 
BRANCH   7   8
ATOM      8  C   UNK    1       23.948 -12.947   2.570  0.00  0.00    +0.187 C 
BRANCH   8   9
ATOM      9  N   UNK    1       23.843 -11.477   2.434  0.00  0.00    -0.317 NA
ATOM     10  H   UNK    1       24.481 -11.138   1.715  0.00  0.00    +0.119 HD
ATOM     11  H   UNK    1       22.904 -11.231   2.111  0.00  0.00    +0.119 HD
ENDBRANCH   8   9
BRANCH   8  12
ATOM     12  C   UNK    1       23.843 -13.361   4.045  0.00  0.00    +0.324 C 
ATOM     13  O   UNK    1       23.509 -14.468   4.439  0.00  0.00    -0.249 OA
BRANCH  12  14
ATOM     14  O   UNK    1       24.269 -12.393   4.896  0.00  0.00    -0.479 OA
ATOM     15  H   UNK    1       24.344 -11.510   4.486  0.00  0.00    +0.295 HD
ENDBRANCH  12  14
ENDBRANCH   8  12
ENDBRANCH   7   8
ENDBRANCH   6   7
ENDBRANCH   2   6
ENDBRANCH   1   2
BRANCH   1  16
ATOM     16  C   UNK    1       26.933 -16.750   3.793  0.00  0.00    +0.220 C 
BRANCH  16  17
ATOM     17  C   UNK    1       26.060 -17.911   3.298  0.00  0.00    +0.240 C 
BRANCH  17  18
ATOM     18  C   UNK    1       26.492 -19.239   3.941  0.00  0.00    +0.279 C 
BRANCH  18  19
ATOM     19  O   UNK    1       27.127 -19.048   5.219  0.00  0.00    -0.461 OA
BRANCH  19  20
ATOM     20  C   UNK    1       27.373 -20.209   5.894  0.00  0.00    +0.307 C 
ATOM     21  O   UNK    1       26.552 -21.080   6.073  0.00  0.00    -0.251 OA
BRANCH  20  22
ATOM     22  C   UNK    1       28.814 -20.279   6.338  0.00  0.00    +0.117 C 
ATOM     23  C   UNK    1       29.475 -18.915   6.227  0.00  0.00    +0.015 C 
ENDBRANCH  20  22
ENDBRANCH  19  20
ENDBRANCH  18  19
ENDBRANCH  17  18
BRANCH  17  24
ATOM     24  O   UNK    1       24.671 -17.693   3.655  0.00  0.00    -0.456 OA
BRANCH  24  25
ATOM     25  C   UNK    1       23.842 -18.777   3.602  0.00  0.00    +0.307 C 
ATOM     26  O   UNK    1       23.985 -19.755   2.873  0.00  0.00    -0.251 OA
BRANCH  25  27
ATOM     27  C   UNK    1       22.743 -18.656   4.629  0.00  0.00    +0.120 C 
BRANCH  27  29
ATOM     28  C   UNK    1       23.145 -20.490   6.332  0.00  0.00    +0.004 C 
ATOM     29  C   UNK    1       22.334 -20.038   5.128  0.00  0.00    +0.008 C 
ENDBRANCH  27  29
ENDBRANCH  25  27
ENDBRANCH  24  25
ENDBRANCH  17  24
ENDBRANCH  16  17
ENDBRANCH   1  16
TORSDOF 18
ENDMDL
MODEL 3
REMARK VINA RESULT:      -4.1      1.752      2.494
REMARK  Name = *****
REMARK                            x       y       z     vdW  Elec       q    Type
REMARK                         _______ _______ _______ _____ _____    ______ ____
ROOT
ATOM      1  O   UNK    1       26.733 -15.464   3.621  0.00  0.00    -0.283 OA
ENDROOT
BRANCH   1   2
ATOM      2  P   UNK    1       27.271 -14.035   4.075  0.00  0.00    +0.475 P 
ATOM      3  O   UNK    1       27.145 -13.734   5.529  0.00  0.00    -0.227 OA
BRANCH   2   4
ATOM      4  O   UNK    1       28.795 -14.009   3.586  0.00  0.00    -0.302 OA
ATOM      5  H   UNK    1       29.136 -13.099   3.537  0.00  0.00    +0.222 HD
ENDBRANCH   2   4
BRANCH   2   6
ATOM      6  O   UNK    1       26.572 -12.998   3.071  0.00  0.00    -0.284 OA
BRANCH   6   7
ATOM      7  C   UNK    1       25.601 -13.490   2.158  0.00  0.00    +0.202 C 
BRANCH   7   8
ATOM      8  C   UNK    1       24.164 -13.063   2.498  0.00  0.00    +0.187 C 
BRANCH   8   9
ATOM      9  N   UNK    1       23.932 -11.642   2.153  0.00  0.00    -0.317 NA
ATOM     10  H   UNK    1       23.300 -11.210   2.826  0.00  0.00    +0.119 HD
ATOM     11  H   UNK    1       24.812 -11.127   2.226  0.00  0.00    +0.119 HD
ENDBRANCH   8   9
BRANCH   8  12
ATOM     12  C   UNK    1       23.877 -13.311   3.987  0.00  0.00    +0.324 C 
ATOM     13  O   UNK    1       23.603 -14.396   4.475  0.00  0.00    -0.249 OA
BRANCH  12  14
ATOM     14  O   UNK    1       24.062 -12.204   4.751  0.00  0.00    -0.479 OA
ATOM     15  H   UNK    1       23.234 -11.741   4.985  0.00  0.00    +0.295 HD
ENDBRANCH  12  14
ENDBRANCH   8  12
ENDBRANCH   7   8
ENDBRANCH   6   7
ENDBRANCH   2   6
ENDBRANCH   1   2
BRANCH   1  16
ATOM     16  C   UNK    1       27.629 -16.561   3.728  0.00  0.00    +0.220 C 
BRANCH  16  17
ATOM     17  C   UNK    1       26.899 -17.765   4.339  0.00  0.00    +0.240 C 
BRANCH  17  18
ATOM     18  C   UNK    1       25.702 -18.184   3.469  0.00  0.00    +0.279 C 
BRANCH  18  19
ATOM     19  O   UNK    1       25.560 -19.615   3.386  0.00  0.00    -0.461 OA
BRANCH  19  20
ATOM     20  C   UNK    1       24.286 -20.057   3.595  0.00  0.00    +0.307 C 
ATOM     21  O   UNK    1       23.956 -21.221   3.568  0.00  0.00    -0.251 OA
BRANCH  20  22
ATOM     22  C   UNK    1       23.361 -18.906   3.911  0.00  0.00    +0.117 C 
ATOM     23  C   UNK    1       22.419 -19.273   5.046  0.00  0.00    +0.015 C 
ENDBRANCH  20  22
ENDBRANCH  19  20
ENDBRANCH  18  19
ENDBRANCH  17  18
BRANCH  17  24
ATOM     24  O   UNK    1       27.786 -18.909   4.430  0.00  0.00    -0.456 OA
BRANCH  24  25
ATOM     25  C   UNK    1       28.636 -18.948   5.498  0.00  0.00    +0.307 C 
ATOM     26  O   UNK    1       29.427 -18.065   5.819  0.00  0.00    -0.251 OA
BRANCH  25  27
ATOM     27  C   UNK    1       28.427 -20.211   6.297  0.00  0.00    +0.120 C 
BRANCH  27  29
ATOM     28  C   UNK    1       26.158 -21.325   6.499  0.00  0.00    +0.004 C 
ATOM     29  C   UNK    1       27.057 -20.190   6.967  0.00  0.00    +0.008 C 
ENDBRANCH  27  29
ENDBRANCH  25  27
ENDBRANCH  24  25
ENDBRANCH  17  24
ENDBRANCH  16  17
ENDBRANCH   1  16
TORSDOF 18
ENDMDL
MODEL 4
REMARK VINA RESULT:      -3.6      2.923      6.692
REMARK  Name = *****
REMARK                            x       y       z     vdW  Elec       q    Type
REMARK                         _______ _______ _______ _____ _____    ______ ____
ROOT
ATOM      1  O   UNK    1       24.589 -17.950   3.586  0.00  0.00    -0.283 OA
ENDROOT
BRANCH   1   2
ATOM      2  P   UNK    1       24.720 -19.458   4.082  0.00  0.00    +0.475 P 
ATOM      3  O   UNK    1       23.773 -19.863   5.159  0.00  0.00    -0.227 OA
BRANCH   2   4
ATOM      4  O   UNK    1       24.530 -20.332   2.755  0.00  0.00    -0.302 OA
ATOM      5  H   UNK    1       25.208 -20.117   2.090  0.00  0.00    +0.222 HD
ENDBRANCH   2   4
BRANCH   2   6
ATOM      6  O   UNK    1       26.280 -19.650   4.398  0.00  0.00    -0.284 OA
BRANCH   6   7
ATOM      7  C   UNK    1       26.660 -20.070   5.701  0.00  0.00    +0.202 C 
BRANCH   7   8
ATOM      8  C   UNK    1       28.171 -20.312   5.854  0.00  0.00    +0.187 C 
BRANCH   8   9
ATOM      9  N   UNK    1       28.460 -21.176   7.021  0.00  0.00    -0.317 NA
ATOM     10  H   UNK    1       28.594 -20.612   7.859  0.00  0.00    +0.119 HD
ATOM     11  H   UNK    1       27.650 -21.771   7.212  0.00  0.00    +0.119 HD
ENDBRANCH   8   9
BRANCH   8  12
ATOM     12  C   UNK    1       28.910 -18.971   5.979  0.00  0.00    +0.324 C 
ATOM     13  O   UNK    1       29.475 -18.575   6.986  0.00  0.00    -0.249 OA
BRANCH  12  14
ATOM     14  O   UNK    1       28.972 -18.292   4.805  0.00  0.00    -0.479 OA
ATOM     15  H   UNK    1       29.388 -18.795   4.078  0.00  0.00    +0.295 HD
ENDBRANCH  12  14
ENDBRANCH   8  12
ENDBRANCH   7   8
ENDBRANCH   6   7
ENDBRANCH   2   6
ENDBRANCH   1   2
BRANCH   1  16
ATOM     16  C   UNK    1       25.752 -17.136   3.661  0.00  0.00    +0.220 C 
BRANCH  16  17
ATOM     17  C   UNK    1       25.467 -15.771   3.021  0.00  0.00    +0.240 C 
BRANCH  17  18
ATOM     18  C   UNK    1       24.754 -14.835   4.011  0.00  0.00    +0.279 C 
BRANCH  18  19
ATOM     19  O   UNK    1       23.778 -13.996   3.366  0.00  0.00    -0.461 OA
BRANCH  19  20
ATOM     20  C   UNK    1       24.288 -12.823   2.886  0.00  0.00    +0.307 C 
ATOM     21  O   UNK    1       25.107 -12.749   2.000  0.00  0.00    -0.251 OA
BRANCH  20  22
ATOM     22  C   UNK    1       23.655 -11.639   3.577  0.00  0.00    +0.117 C 
ATOM     23  C   UNK    1       23.941 -11.675   5.069  0.00  0.00    +0.015 C 
ENDBRANCH  20  22
ENDBRANCH  19  20
ENDBRANCH  18  19
ENDBRANCH  17  18
BRANCH  17  24
ATOM     24  O   UNK    1       26.704 -15.121   2.631  0.00  0.00    -0.456 OA
BRANCH  24  25
ATOM     25  C   UNK    1       27.619 -14.893   3.619  0.00  0.00    +0.307 C 
ATOM     26  O   UNK    1       28.049 -15.730   4.408  0.00  0.00    -0.251 OA
BRANCH  25  27
ATOM     27  C   UNK    1       28.105 -13.465   3.572  0.00  0.00    +0.120 C 
BRANCH  27  29
ATOM     28  C   UNK    1       26.928 -13.310   5.812  0.00  0.00    +0.004 C 
ATOM     29  C   UNK    1       28.118 -12.867   4.975  0.00  0.00    +0.008 C 
ENDBRANCH  27  29
ENDBRANCH  25  27
ENDBRANCH  24  25
ENDBRANCH  17  24
ENDBRANCH  16  17
ENDBRANCH   1  16
TORSDOF 18
ENDMDL
MODEL 5
REMARK VINA RESULT:      -3.3      2.973      6.202
REMARK  Name = *****
REMARK                            x       y       z     vdW  Elec       q    Type
REMARK                         _______ _______ _______ _____ _____    ______ ____
ROOT
ATOM      1  O   UNK    1       25.507 -18.701   3.334  0.00  0.00    -0.283 OA
ENDROOT
BRANCH   1   2
ATOM      2  P   UNK    1       25.394 -20.050   4.174  0.00  0.00    +0.475 P 
ATOM      3  O   UNK    1       24.814 -21.213   3.446  0.00  0.00    -0.227 OA
BRANCH   2   4
ATOM      4  O   UNK    1       26.889 -20.335   4.670  0.00  0.00    -0.302 OA
ATOM      5  H   UNK    1       27.525 -19.738   4.238  0.00  0.00    +0.222 HD
ENDBRANCH   2   4
BRANCH   2   6
ATOM      6  O   UNK    1       24.659 -19.622   5.534  0.00  0.00    -0.284 OA
BRANCH   6   7
ATOM      7  C   UNK    1       23.645 -20.473   6.051  0.00  0.00    +0.202 C 
BRANCH   7   8
ATOM      8  C   UNK    1       22.248 -20.185   5.478  0.00  0.00    +0.187 C 
BRANCH   8   9
ATOM      9  N   UNK    1       21.745 -21.330   4.688  0.00  0.00    -0.317 NA
ATOM     10  H   UNK    1       21.487 -21.031   3.748  0.00  0.00    +0.119 HD
ATOM     11  H   UNK    1       22.495 -22.015   4.567  0.00  0.00    +0.119 HD
ENDBRANCH   8   9
BRANCH   8  12
ATOM     12  C   UNK    1       22.281 -18.910   4.621  0.00  0.00    +0.324 C 
ATOM     13  O   UNK    1       22.090 -17.780   5.041  0.00  0.00    -0.249 OA
BRANCH  12  14
ATOM     14  O   UNK    1       22.655 -19.148   3.338  0.00  0.00    -0.479 OA
ATOM     15  H   UNK    1       22.625 -18.358   2.764  0.00  0.00    +0.295 HD
ENDBRANCH  12  14
ENDBRANCH   8  12
ENDBRANCH   7   8
ENDBRANCH   6   7
ENDBRANCH   2   6
ENDBRANCH   1   2
BRANCH   1  16
ATOM     16  C   UNK    1       26.612 -17.852   3.609  0.00  0.00    +0.220 C 
BRANCH  16  17
ATOM     17  C   UNK    1       26.281 -16.417   3.176  0.00  0.00    +0.240 C 
BRANCH  17  18
ATOM     18  C   UNK    1       24.900 -15.989   3.699  0.00  0.00    +0.279 C 
BRANCH  18  19
ATOM     19  O   UNK    1       24.584 -14.626   3.357  0.00  0.00    -0.461 OA
BRANCH  19  20
ATOM     20  C   UNK    1       23.832 -13.980   4.297  0.00  0.00    +0.307 C 
ATOM     21  O   UNK    1       23.198 -14.538   5.163  0.00  0.00    -0.251 OA
BRANCH  20  22
ATOM     22  C   UNK    1       23.941 -12.483   4.138  0.00  0.00    +0.117 C 
ATOM     23  C   UNK    1       24.204 -12.117   2.686  0.00  0.00    +0.015 C 
ENDBRANCH  20  22
ENDBRANCH  19  20
ENDBRANCH  18  19
ENDBRANCH  17  18
BRANCH  17  24
ATOM     24  O   UNK    1       27.252 -15.484   3.713  0.00  0.00    -0.456 OA
BRANCH  24  25
ATOM     25  C   UNK    1       27.506 -14.364   2.975  0.00  0.00    +0.307 C 
ATOM     26  O   UNK    1       26.986 -14.079   1.899  0.00  0.00    -0.251 OA
BRANCH  25  27
ATOM     27  C   UNK    1       28.475 -13.460   3.697  0.00  0.00    +0.120 C 
BRANCH  27  29
ATOM     28  C   UNK    1       27.032 -13.563   5.780  0.00  0.00    +0.004 C 
ATOM     29  C   UNK    1       27.749 -12.668   4.780  0.00  0.00    +0.008 C 
ENDBRANCH  27  29
ENDBRANCH  25  27
ENDBRANCH  24  25
ENDBRANCH  17  24
ENDBRANCH  16  17
ENDBRANCH   1  16
TORSDOF 18
ENDMDL
MODEL 6
REMARK VINA RESULT:      -3.0      1.865      4.612
REMARK  Name = *****
REMARK                            x       y       z     vdW  Elec       q    Type
REMARK                         _______ _______ _______ _____ _____    ______ ____
ROOT
ATOM      1  O   UNK    1       25.083 -15.999   3.307  0.00  0.00    -0.283 OA
ENDROOT
BRANCH   1   2
ATOM      2  P   UNK    1       24.349 -14.662   3.769  0.00  0.00    +0.475 P 
ATOM      3  O   UNK    1       23.656 -13.905   2.689  0.00  0.00    -0.227 OA
BRANCH   2   4
ATOM      4  O   UNK    1       23.338 -15.138   4.914  0.00  0.00    -0.302 OA
ATOM      5  H   UNK    1       23.668 -14.902   5.799  0.00  0.00    +0.222 HD
ENDBRANCH   2   4
BRANCH   2   6
ATOM      6  O   UNK    1       25.457 -13.857   4.604  0.00  0.00    -0.284 OA
BRANCH   6   7
ATOM      7  C   UNK    1       26.076 -12.732   3.997  0.00  0.00    +0.202 C 
BRANCH   7   8
ATOM      8  C   UNK    1       27.144 -13.104   2.954  0.00  0.00    +0.187 C 
BRANCH   8   9
ATOM      9  N   UNK    1       26.582 -13.980   1.901  0.00  0.00    -0.317 NA
ATOM     10  H   UNK    1       27.004 -14.906   1.943  0.00  0.00    +0.119 HD
ATOM     11  H   UNK    1       25.583 -14.120   2.074  0.00  0.00    +0.119 HD
ENDBRANCH   8   9
BRANCH   8  12
ATOM     12  C   UNK    1       28.338 -13.784   3.641  0.00  0.00    +0.324 C 
ATOM     13  O   UNK    1       29.424 -13.260   3.835  0.00  0.00    -0.249 OA
BRANCH  12  14
ATOM     14  O   UNK    1       28.039 -15.019   4.119  0.00  0.00    -0.479 OA
ATOM     15  H   UNK    1       27.677 -15.015   5.026  0.00  0.00    +0.295 HD
ENDBRANCH  12  14
ENDBRANCH   8  12
ENDBRANCH   7   8
ENDBRANCH   6   7
ENDBRANCH   2   6
ENDBRANCH   1   2
BRANCH   1  16
ATOM     16  C   UNK    1       24.709 -17.205   3.959  0.00  0.00    +0.220 C 
BRANCH  16  17
ATOM     17  C   UNK    1       25.656 -18.335   3.532  0.00  0.00    +0.240 C 
BRANCH  17  18
ATOM     18  C   UNK    1       27.092 -18.059   4.005  0.00  0.00    +0.279 C 
BRANCH  18  19
ATOM     19  O   UNK    1       27.529 -18.997   5.007  0.00  0.00    -0.461 OA
BRANCH  19  20
ATOM     20  C   UNK    1       28.799 -18.776   5.456  0.00  0.00    +0.307 C 
ATOM     21  O   UNK    1       29.464 -17.807   5.167  0.00  0.00    -0.251 OA
BRANCH  20  22
ATOM     22  C   UNK    1       29.238 -19.874   6.395  0.00  0.00    +0.117 C 
ATOM     23  C   UNK    1       28.036 -20.648   6.911  0.00  0.00    +0.015 C 
ENDBRANCH  20  22
ENDBRANCH  19  20
ENDBRANCH  18  19
ENDBRANCH  17  18
BRANCH  17  24
ATOM     24  O   UNK    1       25.245 -19.595   4.121  0.00  0.00    -0.456 OA
BRANCH  24  25
ATOM     25  C   UNK    1       24.065 -20.126   3.683  0.00  0.00    +0.307 C 
ATOM     26  O   UNK    1       23.943 -21.000   2.829  0.00  0.00    -0.251 OA
BRANCH  25  27
ATOM     27  C   UNK    1       22.903 -19.544   4.450  0.00  0.00    +0.120 C 
BRANCH  27  29
ATOM     28  C   UNK    1       23.165 -21.569   5.953  0.00  0.00    +0.004 C 
ATOM     29  C   UNK    1       22.899 -20.073   5.881  0.00  0.00    +0.008 C 
ENDBRANCH  27  29
ENDBRANCH  25  27
ENDBRANCH  24  25
ENDBRANCH  17  24
ENDBRANCH  16  17
ENDBRANCH   1  16
TORSDOF 18
ENDMDL
MODEL 7
REMARK VINA RESULT:      -2.8      3.186      7.022
REMARK  Name = *****
REMARK                            x       y       z     vdW  Elec       q    Type
REMARK                         _______ _______ _______ _____ _____    ______ ____
ROOT
ATOM      1  O   UNK    1       25.114 -17.900   3.623  0.00  0.00    -0.283 OA
ENDROOT
BRANCH   1   2
ATOM      2  P   UNK    1       25.396 -19.446   3.883  0.00  0.00    +0.475 P 
ATOM      3  O   UNK    1       25.240 -20.335   2.697  0.00  0.00    -0.227 OA
BRANCH   2   4
ATOM      4  O   UNK    1       26.884 -19.486   4.472  0.00  0.00    -0.302 OA
ATOM      5  H   UNK    1       26.889 -19.323   5.432  0.00  0.00    +0.222 HD
ENDBRANCH   2   4
BRANCH   2   6
ATOM      6  O   UNK    1       24.509 -19.812   5.168  0.00  0.00    -0.284 OA
BRANCH   6   7
ATOM      7  C   UNK    1       23.604 -20.902   5.077  0.00  0.00    +0.202 C 
BRANCH   7   8
ATOM      8  C   UNK    1       22.129 -20.492   5.221  0.00  0.00    +0.187 C 
BRANCH   8   9
ATOM      9  N   UNK    1       21.228 -21.522   4.657  0.00  0.00    -0.317 NA
ATOM     10  H   UNK    1       20.258 -21.317   4.894  0.00  0.00    +0.119 HD
ATOM     11  H   UNK    1       21.278 -21.495   3.636  0.00  0.00    +0.119 HD
ENDBRANCH   8   9
BRANCH   8  12
ATOM     12  C   UNK    1       21.889 -19.135   4.542  0.00  0.00    +0.324 C 
ATOM     13  O   UNK    1       21.210 -18.964   3.542  0.00  0.00    -0.249 OA
BRANCH  12  14
ATOM     14  O   UNK    1       22.429 -18.098   5.232  0.00  0.00    -0.479 OA
ATOM     15  H   UNK    1       22.181 -18.079   6.176  0.00  0.00    +0.295 HD
ENDBRANCH  12  14
ENDBRANCH   8  12
ENDBRANCH   7   8
ENDBRANCH   6   7
ENDBRANCH   2   6
ENDBRANCH   1   2
BRANCH   1  16
ATOM     16  C   UNK    1       26.218 -17.092   3.236  0.00  0.00    +0.220 C 
BRANCH  16  17
ATOM     17  C   UNK    1       25.925 -15.624   3.572  0.00  0.00    +0.240 C 
BRANCH  17  18
ATOM     18  C   UNK    1       26.897 -14.685   2.839  0.00  0.00    +0.279 C 
BRANCH  18  19
ATOM     19  O   UNK    1       28.099 -14.444   3.595  0.00  0.00    -0.461 OA
BRANCH  19  20
ATOM     20  C   UNK    1       28.197 -13.175   4.089  0.00  0.00    +0.307 C 
ATOM     21  O   UNK    1       28.355 -12.189   3.406  0.00  0.00    -0.251 OA
BRANCH  20  22
ATOM     22  C   UNK    1       28.032 -13.167   5.589  0.00  0.00    +0.117 C 
ATOM     23  C   UNK    1       26.563 -13.064   5.965  0.00  0.00    +0.015 C 
ENDBRANCH  20  22
ENDBRANCH  19  20
ENDBRANCH  18  19
ENDBRANCH  17  18
BRANCH  17  24
ATOM     24  O   UNK    1       24.583 -15.263   3.156  0.00  0.00    -0.456 OA
BRANCH  24  25
ATOM     25  C   UNK    1       23.802 -14.622   4.075  0.00  0.00    +0.307 C 
ATOM     26  O   UNK    1       23.108 -15.165   4.931  0.00  0.00    -0.251 OA
BRANCH  25  27
ATOM     27  C   UNK    1       23.957 -13.126   3.954  0.00  0.00    +0.120 C 
BRANCH  27  29
ATOM     28  C   UNK    1       24.915 -11.674   2.110  0.00  0.00    +0.004 C 
ATOM     29  C   UNK    1       23.862 -12.704   2.491  0.00  0.00    +0.008 C 
ENDBRANCH  27  29
ENDBRANCH  25  27
ENDBRANCH  24  25
ENDBRANCH  17  24
ENDBRANCH  16  17
ENDBRANCH   1  16
TORSDOF 18
ENDMDL
MODEL 8
REMARK VINA RESULT:      -2.7      2.171      3.091
REMARK  Name = *****
REMARK                            x       y       z     vdW  Elec       q    Type
REMARK                         _______ _______ _______ _____ _____    ______ ____
ROOT
ATOM      1  O   UNK    1       26.000 -15.434   4.032  0.00  0.00    -0.283 OA
ENDROOT
BRANCH   1   2
ATOM      2  P   UNK    1       25.692 -14.100   3.219  0.00  0.00    +0.475 P 
ATOM      3  O   UNK    1       26.181 -14.078   1.812  0.00  0.00    -0.227 OA
BRANCH   2   4
ATOM      4  O   UNK    1       24.101 -13.940   3.305  0.00  0.00    -0.302 OA
ATOM      5  H   UNK    1       23.661 -14.369   2.550  0.00  0.00    +0.222 HD
ENDBRANCH   2   4
BRANCH   2   6
ATOM      6  O   UNK    1       26.206 -12.915   4.170  0.00  0.00    -0.284 OA
BRANCH   6   7
ATOM      7  C   UNK    1       26.964 -13.254   5.322  0.00  0.00    +0.202 C 
BRANCH   7   8
ATOM      8  C   UNK    1       28.477 -13.039   5.149  0.00  0.00    +0.187 C 
BRANCH   8   9
ATOM      9  N   UNK    1       28.981 -12.002   6.077  0.00  0.00    -0.317 NA
ATOM     10  H   UNK    1       28.207 -11.483   6.488  0.00  0.00    +0.119 HD
ATOM     11  H   UNK    1       29.463 -12.452   6.860  0.00  0.00    +0.119 HD
ENDBRANCH   8   9
BRANCH   8  12
ATOM     12  C   UNK    1       28.794 -12.662   3.694  0.00  0.00    +0.324 C 
ATOM     13  O   UNK    1       28.945 -11.522   3.284  0.00  0.00    -0.249 OA
BRANCH  12  14
ATOM     14  O   UNK    1       29.001 -13.745   2.902  0.00  0.00    -0.479 OA
ATOM     15  H   UNK    1       29.515 -13.552   2.094  0.00  0.00    +0.295 HD
ENDBRANCH  12  14
ENDBRANCH   8  12
ENDBRANCH   7   8
ENDBRANCH   6   7
ENDBRANCH   2   6
ENDBRANCH   1   2
BRANCH   1  16
ATOM     16  C   UNK    1       27.119 -16.206   3.619  0.00  0.00    +0.220 C 
BRANCH  16  17
ATOM     17  C   UNK    1       26.991 -17.634   4.166  0.00  0.00    +0.240 C 
BRANCH  17  18
ATOM     18  C   UNK    1       26.034 -18.472   3.303  0.00  0.00    +0.279 C 
BRANCH  18  19
ATOM     19  O   UNK    1       24.658 -18.308   3.694  0.00  0.00    -0.461 OA
BRANCH  19  20
ATOM     20  C   UNK    1       23.967 -19.482   3.792  0.00  0.00    +0.307 C 
ATOM     21  O   UNK    1       24.327 -20.527   3.301  0.00  0.00    -0.251 OA
BRANCH  20  22
ATOM     22  C   UNK    1       22.726 -19.307   4.634  0.00  0.00    +0.117 C 
ATOM     23  C   UNK    1       22.647 -20.388   5.701  0.00  0.00    +0.015 C 
ENDBRANCH  20  22
ENDBRANCH  19  20
ENDBRANCH  18  19
ENDBRANCH  17  18
BRANCH  17  24
ATOM     24  O   UNK    1       28.278 -18.303   4.154  0.00  0.00    -0.456 OA
BRANCH  24  25
ATOM     25  C   UNK    1       28.811 -18.640   5.365  0.00  0.00    +0.307 C 
ATOM     26  O   UNK    1       29.413 -17.883   6.122  0.00  0.00    -0.251 OA
BRANCH  25  27
ATOM     27  C   UNK    1       28.496 -20.077   5.702  0.00  0.00    +0.120 C 
BRANCH  27  29
ATOM     28  C   UNK    1       26.186 -20.488   6.662  0.00  0.00    +0.004 C 
ATOM     29  C   UNK    1       27.638 -20.148   6.961  0.00  0.00    +0.008 C 
ENDBRANCH  27  29
ENDBRANCH  25  27
ENDBRANCH  24  25
ENDBRANCH  17  24
ENDBRANCH  16  17
ENDBRANCH   1  16
TORSDOF 18
ENDMDL
MODEL 9
REMARK VINA RESULT:      -2.6      2.785      6.808
REMARK  Name = *****
REMARK                            x       y       z     vdW  Elec       q    Type
REMARK                         _______ _______ _______ _____ _____    ______ ____
ROOT
ATOM      1  O   UNK    1       24.167 -18.248   3.920  0.00  0.00    -0.283 OA
ENDROOT
BRANCH   1   2
ATOM      2  P   UNK    1       22.669 -18.081   4.435  0.00  0.00    +0.475 P 
ATOM      3  O   UNK    1       22.265 -16.692   4.792  0.00  0.00    -0.227 OA
BRANCH   2   4
ATOM      4  O   UNK    1       21.772 -18.683   3.254  0.00  0.00    -0.302 OA
ATOM      5  H   UNK    1       21.497 -17.988   2.629  0.00  0.00    +0.222 HD
ENDBRANCH   2   4
BRANCH   2   6
ATOM      6  O   UNK    1       22.507 -19.187   5.585  0.00  0.00    -0.284 OA
BRANCH   6   7
ATOM      7  C   UNK    1       22.153 -20.509   5.206  0.00  0.00    +0.202 C 
BRANCH   7   8
ATOM      8  C   UNK    1       23.187 -21.568   5.623  0.00  0.00    +0.187 C 
BRANCH   8   9
ATOM      9  N   UNK    1       23.636 -21.358   7.018  0.00  0.00    -0.317 NA
ATOM     10  H   UNK    1       23.908 -20.387   7.164  0.00  0.00    +0.119 HD
ATOM     11  H   UNK    1       22.854 -21.528   7.656  0.00  0.00    +0.119 HD
ENDBRANCH   8   9
BRANCH   8  12
ATOM     12  C   UNK    1       24.385 -21.544   4.662  0.00  0.00    +0.324 C 
ATOM     13  O   UNK    1       24.305 -21.562   3.444  0.00  0.00    -0.249 OA
BRANCH  12  14
ATOM     14  O   UNK    1       25.572 -21.391   5.303  0.00  0.00    -0.479 OA
ATOM     15  H   UNK    1       25.486 -21.199   6.256  0.00  0.00    +0.295 HD
ENDBRANCH  12  14
ENDBRANCH   8  12
ENDBRANCH   7   8
ENDBRANCH   6   7
ENDBRANCH   2   6
ENDBRANCH   1   2
BRANCH   1  16
ATOM     16  C   UNK    1       24.772 -17.123   3.299  0.00  0.00    +0.220 C 
BRANCH  16  17
ATOM     17  C   UNK    1       26.157 -16.878   3.914  0.00  0.00    +0.240 C 
BRANCH  17  18
ATOM     18  C   UNK    1       26.915 -18.201   4.111  0.00  0.00    +0.279 C 
BRANCH  18  19
ATOM     19  O   UNK    1       28.326 -17.998   4.318  0.00  0.00    -0.461 OA
BRANCH  19  20
ATOM     20  C   UNK    1       28.788 -18.496   5.502  0.00  0.00    +0.307 C 
ATOM     21  O   UNK    1       29.473 -17.874   6.282  0.00  0.00    -0.251 OA
BRANCH  20  22
ATOM     22  C   UNK    1       28.289 -19.903   5.726  0.00  0.00    +0.117 C 
ATOM     23  C   UNK    1       29.144 -20.616   6.760  0.00  0.00    +0.015 C 
ENDBRANCH  20  22
ENDBRANCH  19  20
ENDBRANCH  18  19
ENDBRANCH  17  18
BRANCH  17  24
ATOM     24  O   UNK    1       26.963 -16.046   3.042  0.00  0.00    -0.456 OA
BRANCH  24  25
ATOM     25  C   UNK    1       26.688 -14.708   3.036  0.00  0.00    +0.307 C 
ATOM     26  O   UNK    1       26.541 -14.010   2.036  0.00  0.00    -0.251 OA
BRANCH  25  27
ATOM     27  C   UNK    1       26.510 -14.196   4.444  0.00  0.00    +0.120 C 
BRANCH  27  29
ATOM     28  C   UNK    1       24.132 -13.451   3.978  0.00  0.00    +0.004 C 
ATOM     29  C   UNK    1       25.514 -13.041   4.462  0.00  0.00    +0.008 C 
ENDBRANCH  27  29
ENDBRANCH  25  27
ENDBRANCH  24  25
ENDBRANCH  17  24
ENDBRANCH  16  17
ENDBRANCH   1  16
TORSDOF 18
ENDMDL
