MODEL 1
REMARK VINA RESULT:      -1.2      0.000      0.000
REMARK  Name = *****
REMARK                            x       y       z     vdW  Elec       q    Type
REMARK                         _______ _______ _______ _____ _____    ______ ____
ROOT
ATOM      1  C   LIG    1       26.578 -16.161   3.313  0.00  0.00    +0.002 C 
ENDROOT
BRANCH   1   2
ATOM      2  C   LIG    1       27.645 -15.419   4.140  0.00  0.00    +0.000 C 
BRANCH   2   3
ATOM      3  C   LIG    1       27.977 -14.000   3.668  0.00  0.00    -0.000 C 
BRANCH   3   4
ATOM      4  C   LIG    1       27.530 -12.960   4.707  0.00  0.00    -0.000 C 
BRANCH   4   5
ATOM      5  C   LIG    1       26.776 -13.623   5.856  0.00  0.00    -0.000 C 
BRANCH   5   6
ATOM      6  C   LIG    1       25.342 -13.101   5.976  0.00  0.00    -0.000 C 
BRANCH   6   7
ATOM      7  C   LIG    1       25.149 -11.789   5.207  0.00  0.00    -0.000 C 
BRANCH   7   8
ATOM      8  C   LIG    1       23.950 -11.808   4.254  0.00  0.00    -0.000 C 
BRANCH   8   9
ATOM      9  C   LIG    1       24.386 -12.108   2.826  0.00  0.00    -0.000 C 
BRANCH   9  10
ATOM     10  C   LIG    1       24.232 -13.583   2.474  0.00  0.00    -0.000 C 
BRANCH  10  11
ATOM     11  C   LIG    1       23.070 -14.223   3.237  0.00  0.00    -0.000 C 
BRANCH  11  12
ATOM     12  C   LIG    1       23.554 -15.262   4.251  0.00  0.00    -0.000 C 
BRANCH  12  14
ATOM     13  C   LIG    1       22.026 -15.194   6.236  0.00  0.00    +0.004 C 
ATOM     14  C   LIG    1       22.396 -15.944   4.966  0.00  0.00    -0.003 C 
ENDBRANCH  12  14
ENDBRANCH  11  12
ENDBRANCH  10  11
ENDBRANCH   9  10
ENDBRANCH   8   9
ENDBRANCH   7   8
ENDBRANCH   6   7
ENDBRANCH   5   6
ENDBRANCH   4   5
ENDBRANCH   3   4
ENDBRANCH   2   3
ENDBRANCH   1   2
BRANCH   1  15
ATOM     15  C   LIG    1       26.440 -17.663   3.601  0.00  0.00    +0.029 C 
BRANCH  15  16
ATOM     16  C   LIG    1       27.697 -18.304   4.219  0.00  0.00    +0.172 C 
BRANCH  16  17
ATOM     17  O   LIG    1       27.355 -19.593   4.733  0.00  0.00    -0.287 OA
BRANCH  17  18
ATOM     18  P   LIG    1       27.816 -20.013   6.206  0.00  0.00    +0.475 P 
ATOM     19  O   LIG    1       28.788 -21.151   6.329  0.00  0.00    -0.227 OA
BRANCH  18  20
ATOM     20  O   LIG    1       28.398 -18.650   6.812  0.00  0.00    -0.302 OA
ATOM     21  H   LIG    1       29.370 -18.588   6.660  0.00  0.00    +0.222 HD
ENDBRANCH  18  20
BRANCH  18  22
ATOM     22  O   LIG    1       26.449 -20.188   7.040  0.00  0.00    -0.281 OA
BRANCH  22  23
ATOM     23  C   LIG    1       25.722 -21.402   6.895  0.00  0.00    +0.223 C 
BRANCH  23  24
ATOM     24  C   LIG    1       24.194 -21.169   6.841  0.00  0.00    +0.161 C 
BRANCH  24  25
ATOM     25  N   LIG    1       23.588 -20.850   5.442  0.00  0.00    +0.238 N 
ATOM     26  C   LIG    1       22.238 -21.572   5.325  0.00  0.00    +0.192 C 
ATOM     27  C   LIG    1       24.492 -21.385   4.335  0.00  0.00    +0.192 C 
ATOM     28  C   LIG    1       23.321 -19.363   5.243  0.00  0.00    +0.192 C 
ENDBRANCH  24  25
ENDBRANCH  23  24
ENDBRANCH  22  23
ENDBRANCH  18  22
ENDBRANCH  17  18
ENDBRANCH  16  17
ENDBRANCH  15  16
ENDBRANCH   1  15
TORSDOF 21
ENDMDL
MODEL 2
REMARK VINA RESULT:      -1.0      3.288      7.199
REMARK  Name = *****
REMARK                            x       y       z     vdW  Elec       q    Type
REMARK                         _______ _______ _______ _____ _____    ______ ____
ROOT
ATOM      1  C   LIG    1       29.474 -18.601   5.434  0.00  0.00    +0.002 C 
ENDROOT
BRANCH   1   2
ATOM      2  C   LIG    1       29.237 -19.931   6.174  0.00  0.00    +0.000 C 
BRANCH   2   3
ATOM      3  C   LIG    1       27.990 -19.980   7.062  0.00  0.00    -0.000 C 
BRANCH   3   4
ATOM      4  C   LIG    1       27.356 -21.380   7.038  0.00  0.00    -0.000 C 
BRANCH   4   5
ATOM      5  C   LIG    1       26.270 -21.471   5.971  0.00  0.00    -0.000 C 
BRANCH   5   6
ATOM      6  C   LIG    1       26.270 -20.250   5.049  0.00  0.00    -0.000 C 
BRANCH   6   7
ATOM      7  C   LIG    1       25.232 -20.383   3.928  0.00  0.00    -0.000 C 
BRANCH   7   8
ATOM      8  C   LIG    1       24.192 -21.478   4.184  0.00  0.00    -0.000 C 
BRANCH   8   9
ATOM      9  C   LIG    1       23.659 -21.410   5.610  0.00  0.00    -0.000 C 
BRANCH   9  10
ATOM     10  C   LIG    1       22.660 -20.275   5.797  0.00  0.00    -0.000 C 
BRANCH  10  11
ATOM     11  C   LIG    1       21.534 -20.342   4.762  0.00  0.00    -0.000 C 
BRANCH  11  12
ATOM     12  C   LIG    1       21.624 -19.203   3.744  0.00  0.00    -0.000 C 
BRANCH  12  14
ATOM     13  C   LIG    1       23.347 -17.430   4.154  0.00  0.00    +0.004 C 
ATOM     14  C   LIG    1       21.912 -17.865   4.410  0.00  0.00    -0.003 C 
ENDBRANCH  12  14
ENDBRANCH  11  12
ENDBRANCH  10  11
ENDBRANCH   9  10
ENDBRANCH   8   9
ENDBRANCH   7   8
ENDBRANCH   6   7
ENDBRANCH   5   6
ENDBRANCH   4   5
ENDBRANCH   3   4
ENDBRANCH   2   3
ENDBRANCH   1   2
BRANCH   1  15
ATOM     15  C   LIG    1       28.430 -17.504   5.689  0.00  0.00    +0.029 C 
BRANCH  15  16
ATOM     16  C   LIG    1       27.758 -16.965   4.411  0.00  0.00    +0.172 C 
BRANCH  16  17
ATOM     17  O   LIG    1       28.424 -15.766   4.008  0.00  0.00    -0.287 OA
BRANCH  17  18
ATOM     18  P   LIG    1       27.628 -14.379   3.985  0.00  0.00    +0.475 P 
ATOM     19  O   LIG    1       27.105 -13.859   5.293  0.00  0.00    -0.227 OA
BRANCH  18  20
ATOM     20  O   LIG    1       28.667 -13.370   3.302  0.00  0.00    -0.302 OA
ATOM     21  H   LIG    1       29.047 -12.755   3.973  0.00  0.00    +0.222 HD
ENDBRANCH  18  20
BRANCH  18  22
ATOM     22  O   LIG    1       26.522 -14.549   2.826  0.00  0.00    -0.281 OA
BRANCH  22  23
ATOM     23  C   LIG    1       26.198 -13.415   2.033  0.00  0.00    +0.223 C 
BRANCH  23  24
ATOM     24  C   LIG    1       25.729 -12.214   2.887  0.00  0.00    +0.161 C 
BRANCH  24  25
ATOM     25  N   LIG    1       24.275 -12.278   3.439  0.00  0.00    +0.238 N 
ATOM     26  C   LIG    1       23.363 -11.485   2.493  0.00  0.00    +0.192 C 
ATOM     27  C   LIG    1       24.198 -11.617   4.813  0.00  0.00    +0.192 C 
ATOM     28  C   LIG    1       23.731 -13.700   3.500  0.00  0.00    +0.192 C 
ENDBRANCH  24  25
ENDBRANCH  23  24
ENDBRANCH  22  23
ENDBRANCH  18  22
ENDBRANCH  17  18
ENDBRANCH  16  17
ENDBRANCH  15  16
ENDBRANCH   1  15
TORSDOF 21
ENDMDL
MODEL 3
REMARK VINA RESULT:      -0.3      4.097      8.296
REMARK  Name = *****
REMARK                            x       y       z     vdW  Elec       q    Type
REMARK                         _______ _______ _______ _____ _____    ______ ____
ROOT
ATOM      1  C   LIG    1       23.848 -17.711   3.843  0.00  0.00    +0.002 C 
ENDROOT
BRANCH   1   2
ATOM      2  C   LIG    1       22.340 -17.684   4.158  0.00  0.00    +0.000 C 
BRANCH   2   3
ATOM      3  C   LIG    1       21.719 -19.033   4.532  0.00  0.00    -0.000 C 
BRANCH   3   4
ATOM      4  C   LIG    1       22.607 -20.194   4.058  0.00  0.00    -0.000 C 
BRANCH   4   5
ATOM      5  C   LIG    1       22.744 -21.256   5.145  0.00  0.00    -0.000 C 
BRANCH   5   6
ATOM      6  C   LIG    1       23.323 -20.680   6.439  0.00  0.00    -0.000 C 
BRANCH   6   7
ATOM      7  C   LIG    1       24.568 -21.449   6.897  0.00  0.00    -0.000 C 
BRANCH   7   8
ATOM      8  C   LIG    1       25.827 -21.111   6.094  0.00  0.00    -0.000 C 
BRANCH   8   9
ATOM      9  C   LIG    1       27.088 -21.447   6.879  0.00  0.00    -0.000 C 
BRANCH   9  10
ATOM     10  C   LIG    1       27.992 -20.234   7.061  0.00  0.00    -0.000 C 
BRANCH  10  11
ATOM     11  C   LIG    1       28.914 -20.035   5.857  0.00  0.00    -0.000 C 
BRANCH  11  12
ATOM     12  C   LIG    1       29.456 -18.605   5.779  0.00  0.00    -0.000 C 
BRANCH  12  14
ATOM     13  C   LIG    1       27.437 -17.938   4.452  0.00  0.00    +0.004 C 
ATOM     14  C   LIG    1       28.953 -17.872   4.543  0.00  0.00    -0.003 C 
ENDBRANCH  12  14
ENDBRANCH  11  12
ENDBRANCH  10  11
ENDBRANCH   9  10
ENDBRANCH   8   9
ENDBRANCH   7   8
ENDBRANCH   6   7
ENDBRANCH   5   6
ENDBRANCH   4   5
ENDBRANCH   3   4
ENDBRANCH   2   3
ENDBRANCH   1   2
BRANCH   1  15
ATOM     15  C   LIG    1       24.516 -16.339   3.673  0.00  0.00    +0.029 C 
BRANCH  15  16
ATOM     16  C   LIG    1       23.825 -15.202   4.450  0.00  0.00    +0.172 C 
BRANCH  16  17
ATOM     17  O   LIG    1       24.506 -13.976   4.177  0.00  0.00    -0.287 OA
BRANCH  17  18
ATOM     18  P   LIG    1       23.969 -13.003   3.026  0.00  0.00    +0.475 P 
ATOM     19  O   LIG    1       22.889 -13.528   2.124  0.00  0.00    -0.227 OA
BRANCH  18  20
ATOM     20  O   LIG    1       23.506 -11.699   3.832  0.00  0.00    -0.302 OA
ATOM     21  H   LIG    1       22.537 -11.724   4.008  0.00  0.00    +0.222 HD
ENDBRANCH  18  20
BRANCH  18  22
ATOM     22  O   LIG    1       25.290 -12.474   2.272  0.00  0.00    -0.281 OA
BRANCH  22  23
ATOM     23  C   LIG    1       26.478 -13.251   2.368  0.00  0.00    +0.223 C 
BRANCH  23  24
ATOM     24  C   LIG    1       27.622 -12.491   3.077  0.00  0.00    +0.161 C 
BRANCH  24  25
ATOM     25  N   LIG    1       28.133 -13.095   4.418  0.00  0.00    +0.238 N 
ATOM     26  C   LIG    1       28.868 -11.994   5.195  0.00  0.00    +0.192 C 
ATOM     27  C   LIG    1       29.134 -14.215   4.151  0.00  0.00    +0.192 C 
ATOM     28  C   LIG    1       27.000 -13.591   5.308  0.00  0.00    +0.192 C 
ENDBRANCH  24  25
ENDBRANCH  23  24
ENDBRANCH  22  23
ENDBRANCH  18  22
ENDBRANCH  17  18
ENDBRANCH  16  17
ENDBRANCH  15  16
ENDBRANCH   1  15
TORSDOF 21
ENDMDL
MODEL 4
REMARK VINA RESULT:       0.0      2.268      4.305
REMARK  Name = *****
REMARK                            x       y       z     vdW  Elec       q    Type
REMARK                         _______ _______ _______ _____ _____    ______ ____
ROOT
ATOM      1  C   LIG    1       22.640 -15.719   3.865  0.00  0.00    +0.002 C 
ENDROOT
BRANCH   1   2
ATOM      2  C   LIG    1       23.421 -14.514   4.426  0.00  0.00    +0.000 C 
BRANCH   2   3
ATOM      3  C   LIG    1       23.641 -13.356   3.448  0.00  0.00    -0.000 C 
BRANCH   3   4
ATOM      4  C   LIG    1       24.890 -12.547   3.831  0.00  0.00    -0.000 C 
BRANCH   4   5
ATOM      5  C   LIG    1       24.915 -12.255   5.328  0.00  0.00    -0.000 C 
BRANCH   5   6
ATOM      6  C   LIG    1       25.613 -13.366   6.116  0.00  0.00    -0.000 C 
BRANCH   6   7
ATOM      7  C   LIG    1       26.983 -13.711   5.521  0.00  0.00    -0.000 C 
BRANCH   7   8
ATOM      8  C   LIG    1       28.034 -12.617   5.729  0.00  0.00    -0.000 C 
BRANCH   8   9
ATOM      9  C   LIG    1       28.770 -12.305   4.432  0.00  0.00    -0.000 C 
BRANCH   9  10
ATOM     10  C   LIG    1       28.667 -13.443   3.424  0.00  0.00    -0.000 C 
BRANCH  10  11
ATOM     11  C   LIG    1       27.300 -13.462   2.736  0.00  0.00    -0.000 C 
BRANCH  11  12
ATOM     12  C   LIG    1       26.891 -14.875   2.315  0.00  0.00    -0.000 C 
BRANCH  12  14
ATOM     13  C   LIG    1       26.070 -17.122   3.061  0.00  0.00    +0.004 C 
ATOM     14  C   LIG    1       26.520 -15.741   3.511  0.00  0.00    -0.003 C 
ENDBRANCH  12  14
ENDBRANCH  11  12
ENDBRANCH  10  11
ENDBRANCH   9  10
ENDBRANCH   8   9
ENDBRANCH   7   8
ENDBRANCH   6   7
ENDBRANCH   5   6
ENDBRANCH   4   5
ENDBRANCH   3   4
ENDBRANCH   2   3
ENDBRANCH   1   2
BRANCH   1  15
ATOM     15  C   LIG    1       22.839 -17.046   4.611  0.00  0.00    +0.029 C 
BRANCH  15  16
ATOM     16  C   LIG    1       22.446 -18.292   3.794  0.00  0.00    +0.172 C 
BRANCH  16  17
ATOM     17  O   LIG    1       23.574 -19.167   3.716  0.00  0.00    -0.287 OA
BRANCH  17  18
ATOM     18  P   LIG    1       23.689 -20.412   4.714  0.00  0.00    +0.475 P 
ATOM     19  O   LIG    1       22.440 -20.845   5.427  0.00  0.00    -0.227 OA
BRANCH  18  20
ATOM     20  O   LIG    1       24.292 -21.571   3.788  0.00  0.00    -0.302 OA
ATOM     21  H   LIG    1       25.085 -21.249   3.299  0.00  0.00    +0.222 HD
ENDBRANCH  18  20
BRANCH  18  22
ATOM     22  O   LIG    1       24.938 -20.069   5.671  0.00  0.00    -0.281 OA
BRANCH  22  23
ATOM     23  C   LIG    1       25.612 -21.146   6.312  0.00  0.00    +0.223 C 
BRANCH  23  24
ATOM     24  C   LIG    1       26.882 -20.681   7.062  0.00  0.00    +0.161 C 
BRANCH  24  25
ATOM     25  N   LIG    1       28.025 -20.083   6.190  0.00  0.00    +0.238 N 
ATOM     26  C   LIG    1       28.971 -21.222   5.786  0.00  0.00    +0.192 C 
ATOM     27  C   LIG    1       28.839 -19.076   6.998  0.00  0.00    +0.192 C 
ATOM     28  C   LIG    1       27.513 -19.448   4.904  0.00  0.00    +0.192 C 
ENDBRANCH  24  25
ENDBRANCH  23  24
ENDBRANCH  22  23
ENDBRANCH  18  22
ENDBRANCH  17  18
ENDBRANCH  16  17
ENDBRANCH  15  16
ENDBRANCH   1  15
TORSDOF 21
ENDMDL
MODEL 5
REMARK VINA RESULT:       0.1      2.369      6.363
REMARK  Name = *****
REMARK                            x       y       z     vdW  Elec       q    Type
REMARK                         _______ _______ _______ _____ _____    ______ ____
ROOT
ATOM      1  C   LIG    1       25.586 -21.481   6.920  0.00  0.00    +0.002 C 
ENDROOT
BRANCH   1   2
ATOM      2  C   LIG    1       24.141 -20.965   7.061  0.00  0.00    +0.000 C 
BRANCH   2   3
ATOM      3  C   LIG    1       23.154 -21.468   6.003  0.00  0.00    -0.000 C 
BRANCH   3   4
ATOM      4  C   LIG    1       22.541 -20.294   5.225  0.00  0.00    -0.000 C 
BRANCH   4   5
ATOM      5  C   LIG    1       21.293 -20.733   4.465  0.00  0.00    -0.000 C 
BRANCH   5   6
ATOM      6  C   LIG    1       20.477 -19.538   3.965  0.00  0.00    -0.000 C 
BRANCH   6   7
ATOM      7  C   LIG    1       21.376 -18.358   3.577  0.00  0.00    -0.000 C 
BRANCH   7   8
ATOM      8  C   LIG    1       21.530 -17.314   4.687  0.00  0.00    -0.000 C 
BRANCH   8   9
ATOM      9  C   LIG    1       22.803 -16.498   4.503  0.00  0.00    -0.000 C 
BRANCH   9  10
ATOM     10  C   LIG    1       22.526 -15.000   4.476  0.00  0.00    -0.000 C 
BRANCH  10  11
ATOM     11  C   LIG    1       23.814 -14.195   4.285  0.00  0.00    -0.000 C 
BRANCH  11  12
ATOM     12  C   LIG    1       23.676 -13.149   3.176  0.00  0.00    -0.000 C 
BRANCH  12  14
ATOM     13  C   LIG    1       23.629 -11.591   5.138  0.00  0.00    +0.004 C 
ATOM     14  C   LIG    1       24.000 -11.746   3.672  0.00  0.00    -0.003 C 
ENDBRANCH  12  14
ENDBRANCH  11  12
ENDBRANCH  10  11
ENDBRANCH   9  10
ENDBRANCH   8   9
ENDBRANCH   7   8
ENDBRANCH   6   7
ENDBRANCH   5   6
ENDBRANCH   4   5
ENDBRANCH   3   4
ENDBRANCH   2   3
ENDBRANCH   1   2
BRANCH   1  15
ATOM     15  C   LIG    1       26.647 -20.411   6.625  0.00  0.00    +0.029 C 
BRANCH  15  16
ATOM     16  C   LIG    1       27.072 -20.337   5.146  0.00  0.00    +0.172 C 
BRANCH  16  17
ATOM     17  O   LIG    1       26.990 -18.978   4.709  0.00  0.00    -0.287 OA
BRANCH  17  18
ATOM     18  P   LIG    1       25.957 -18.570   3.558  0.00  0.00    +0.475 P 
ATOM     19  O   LIG    1       26.196 -19.127   2.185  0.00  0.00    -0.227 OA
BRANCH  18  20
ATOM     20  O   LIG    1       24.542 -19.021   4.158  0.00  0.00    -0.302 OA
ATOM     21  H   LIG    1       23.890 -18.284   4.104  0.00  0.00    +0.222 HD
ENDBRANCH  18  20
BRANCH  18  22
ATOM     22  O   LIG    1       25.853 -16.965   3.637  0.00  0.00    -0.281 OA
BRANCH  22  23
ATOM     23  C   LIG    1       26.974 -16.196   3.220  0.00  0.00    +0.223 C 
BRANCH  23  24
ATOM     24  C   LIG    1       27.459 -15.221   4.317  0.00  0.00    +0.161 C 
BRANCH  24  25
ATOM     25  N   LIG    1       27.634 -13.731   3.898  0.00  0.00    +0.238 N 
ATOM     26  C   LIG    1       26.836 -13.495   2.608  0.00  0.00    +0.192 C 
ATOM     27  C   LIG    1       29.100 -13.433   3.592  0.00  0.00    +0.192 C 
ATOM     28  C   LIG    1       27.098 -12.760   4.942  0.00  0.00    +0.192 C 
ENDBRANCH  24  25
ENDBRANCH  23  24
ENDBRANCH  22  23
ENDBRANCH  18  22
ENDBRANCH  17  18
ENDBRANCH  16  17
ENDBRANCH  15  16
ENDBRANCH   1  15
TORSDOF 21
ENDMDL
MODEL 6
REMARK VINA RESULT:       0.3      4.080      8.032
REMARK  Name = *****
REMARK                            x       y       z     vdW  Elec       q    Type
REMARK                         _______ _______ _______ _____ _____    ______ ____
ROOT
ATOM      1  C   LIG    1       22.049 -17.107   4.311  0.00  0.00    +0.002 C 
ENDROOT
BRANCH   1   2
ATOM      2  C   LIG    1       22.284 -18.629   4.298  0.00  0.00    +0.000 C 
BRANCH   2   3
ATOM      3  C   LIG    1       22.331 -19.302   5.674  0.00  0.00    -0.000 C 
BRANCH   3   4
ATOM      4  C   LIG    1       23.768 -19.709   6.034  0.00  0.00    -0.000 C 
BRANCH   4   5
ATOM      5  C   LIG    1       23.814 -21.135   6.573  0.00  0.00    -0.000 C 
BRANCH   5   6
ATOM      6  C   LIG    1       25.240 -21.571   6.918  0.00  0.00    -0.000 C 
BRANCH   6   7
ATOM      7  C   LIG    1       26.258 -20.458   6.641  0.00  0.00    -0.000 C 
BRANCH   7   8
ATOM      8  C   LIG    1       27.687 -20.817   7.059  0.00  0.00    -0.000 C 
BRANCH   8   9
ATOM      9  C   LIG    1       28.667 -19.719   6.666  0.00  0.00    -0.000 C 
BRANCH   9  10
ATOM     10  C   LIG    1       28.534 -19.327   5.200  0.00  0.00    -0.000 C 
BRANCH  10  11
ATOM     11  C   LIG    1       27.130 -19.617   4.667  0.00  0.00    -0.000 C 
BRANCH  11  12
ATOM     12  C   LIG    1       26.427 -18.348   4.180  0.00  0.00    -0.000 C 
BRANCH  12  14
ATOM     13  C   LIG    1       25.313 -20.135   2.823  0.00  0.00    +0.004 C 
ATOM     14  C   LIG    1       25.426 -18.640   3.071  0.00  0.00    -0.003 C 
ENDBRANCH  12  14
ENDBRANCH  11  12
ENDBRANCH  10  11
ENDBRANCH   9  10
ENDBRANCH   8   9
ENDBRANCH   7   8
ENDBRANCH   6   7
ENDBRANCH   5   6
ENDBRANCH   4   5
ENDBRANCH   3   4
ENDBRANCH   2   3
ENDBRANCH   1   2
BRANCH   1  15
ATOM     15  C   LIG    1       23.311 -16.238   4.209  0.00  0.00    +0.029 C 
BRANCH  15  16
ATOM     16  C   LIG    1       23.190 -14.868   4.903  0.00  0.00    +0.172 C 
BRANCH  16  17
ATOM     17  O   LIG    1       24.229 -14.013   4.421  0.00  0.00    -0.287 OA
BRANCH  17  18
ATOM     18  P   LIG    1       24.026 -12.426   4.433  0.00  0.00    +0.475 P 
ATOM     19  O   LIG    1       22.647 -11.906   4.717  0.00  0.00    -0.227 OA
BRANCH  18  20
ATOM     20  O   LIG    1       25.097 -11.926   5.514  0.00  0.00    -0.302 OA
ATOM     21  H   LIG    1       25.377 -12.671   6.096  0.00  0.00    +0.222 HD
ENDBRANCH  18  20
BRANCH  18  22
ATOM     22  O   LIG    1       24.682 -11.909   3.055  0.00  0.00    -0.281 OA
BRANCH  22  23
ATOM     23  C   LIG    1       25.723 -12.682   2.472  0.00  0.00    +0.223 C 
BRANCH  23  24
ATOM     24  C   LIG    1       27.125 -12.224   2.934  0.00  0.00    +0.161 C 
BRANCH  24  25
ATOM     25  N   LIG    1       27.918 -13.212   3.839  0.00  0.00    +0.238 N 
ATOM     26  C   LIG    1       27.763 -12.761   5.298  0.00  0.00    +0.192 C 
ATOM     27  C   LIG    1       29.405 -13.169   3.501  0.00  0.00    +0.192 C 
ATOM     28  C   LIG    1       27.391 -14.640   3.753  0.00  0.00    +0.192 C 
ENDBRANCH  24  25
ENDBRANCH  23  24
ENDBRANCH  22  23
ENDBRANCH  18  22
ENDBRANCH  17  18
ENDBRANCH  16  17
ENDBRANCH  15  16
ENDBRANCH   1  15
TORSDOF 21
ENDMDL
MODEL 7
REMARK VINA RESULT:       0.5      3.977      7.365
REMARK  Name = *****
REMARK                            x       y       z     vdW  Elec       q    Type
REMARK                         _______ _______ _______ _____ _____    ______ ____
ROOT
ATOM      1  C   LIG    1       25.326 -17.810   3.310  0.00  0.00    +0.002 C 
ENDROOT
BRANCH   1   2
ATOM      2  C   LIG    1       26.848 -18.049   3.278  0.00  0.00    +0.000 C 
BRANCH   2   3
ATOM      3  C   LIG    1       27.591 -17.745   4.583  0.00  0.00    -0.000 C 
BRANCH   3   4
ATOM      4  C   LIG    1       28.674 -18.801   4.853  0.00  0.00    -0.000 C 
BRANCH   4   5
ATOM      5  C   LIG    1       29.092 -18.792   6.320  0.00  0.00    -0.000 C 
BRANCH   5   6
ATOM      6  C   LIG    1       28.797 -20.127   7.008  0.00  0.00    -0.000 C 
BRANCH   6   7
ATOM      7  C   LIG    1       27.293 -20.424   7.052  0.00  0.00    -0.000 C 
BRANCH   7   8
ATOM      8  C   LIG    1       26.839 -21.442   6.002  0.00  0.00    -0.000 C 
BRANCH   8   9
ATOM      9  C   LIG    1       25.762 -20.858   5.097  0.00  0.00    -0.000 C 
BRANCH   9  10
ATOM     10  C   LIG    1       24.358 -21.124   5.627  0.00  0.00    -0.000 C 
BRANCH  10  11
ATOM     11  C   LIG    1       23.289 -20.549   4.696  0.00  0.00    -0.000 C 
BRANCH  11  12
ATOM     12  C   LIG    1       22.345 -19.592   5.429  0.00  0.00    -0.000 C 
BRANCH  12  14
ATOM     13  C   LIG    1       21.137 -18.361   3.611  0.00  0.00    +0.004 C 
ATOM     14  C   LIG    1       22.197 -18.265   4.697  0.00  0.00    -0.003 C 
ENDBRANCH  12  14
ENDBRANCH  11  12
ENDBRANCH  10  11
ENDBRANCH   9  10
ENDBRANCH   8   9
ENDBRANCH   7   8
ENDBRANCH   6   7
ENDBRANCH   5   6
ENDBRANCH   4   5
ENDBRANCH   3   4
ENDBRANCH   2   3
ENDBRANCH   1   2
BRANCH   1  15
ATOM     15  C   LIG    1       24.886 -16.358   3.550  0.00  0.00    +0.029 C 
BRANCH  15  16
ATOM     16  C   LIG    1       25.977 -15.313   3.252  0.00  0.00    +0.172 C 
BRANCH  16  17
ATOM     17  O   LIG    1       25.393 -14.230   2.523  0.00  0.00    -0.287 OA
BRANCH  17  18
ATOM     18  P   LIG    1       24.247 -13.340   3.197  0.00  0.00    +0.475 P 
ATOM     19  O   LIG    1       24.003 -11.975   2.621  0.00  0.00    -0.227 OA
BRANCH  18  20
ATOM     20  O   LIG    1       22.952 -14.278   3.105  0.00  0.00    -0.302 OA
ATOM     21  H   LIG    1       22.421 -14.061   2.303  0.00  0.00    +0.222 HD
ENDBRANCH  18  20
BRANCH  18  22
ATOM     22  O   LIG    1       24.565 -13.370   4.775  0.00  0.00    -0.281 OA
BRANCH  22  23
ATOM     23  C   LIG    1       25.380 -12.339   5.318  0.00  0.00    +0.223 C 
BRANCH  23  24
ATOM     24  C   LIG    1       26.628 -12.057   4.450  0.00  0.00    +0.161 C 
BRANCH  24  25
ATOM     25  N   LIG    1       27.915 -12.860   4.801  0.00  0.00    +0.238 N 
ATOM     26  C   LIG    1       27.605 -13.772   5.996  0.00  0.00    +0.192 C 
ATOM     27  C   LIG    1       29.035 -11.913   5.224  0.00  0.00    +0.192 C 
ATOM     28  C   LIG    1       28.377 -13.757   3.659  0.00  0.00    +0.192 C 
ENDBRANCH  24  25
ENDBRANCH  23  24
ENDBRANCH  22  23
ENDBRANCH  18  22
ENDBRANCH  17  18
ENDBRANCH  16  17
ENDBRANCH  15  16
ENDBRANCH   1  15
TORSDOF 21
ENDMDL
MODEL 8
REMARK VINA RESULT:       1.0      2.610      4.216
REMARK  Name = *****
REMARK                            x       y       z     vdW  Elec       q    Type
REMARK                         _______ _______ _______ _____ _____    ______ ____
ROOT
ATOM      1  C   LIG    1       24.680 -17.690   3.318  0.00  0.00    +0.002 C 
ENDROOT
BRANCH   1   2
ATOM      2  C   LIG    1       26.073 -17.032   3.286  0.00  0.00    +0.000 C 
BRANCH   2   3
ATOM      3  C   LIG    1       26.109 -15.587   2.779  0.00  0.00    -0.000 C 
BRANCH   3   4
ATOM      4  C   LIG    1       27.272 -14.812   3.418  0.00  0.00    -0.000 C 
BRANCH   4   5
ATOM      5  C   LIG    1       27.855 -13.797   2.441  0.00  0.00    -0.000 C 
BRANCH   5   6
ATOM      6  C   LIG    1       28.045 -12.422   3.089  0.00  0.00    -0.000 C 
BRANCH   6   7
ATOM      7  C   LIG    1       28.816 -12.519   4.411  0.00  0.00    -0.000 C 
BRANCH   7   8
ATOM      8  C   LIG    1       27.921 -12.426   5.650  0.00  0.00    -0.000 C 
BRANCH   8   9
ATOM      9  C   LIG    1       27.036 -13.659   5.784  0.00  0.00    -0.000 C 
BRANCH   9  10
ATOM     10  C   LIG    1       25.585 -13.297   6.077  0.00  0.00    -0.000 C 
BRANCH  10  11
ATOM     11  C   LIG    1       25.049 -12.274   5.074  0.00  0.00    -0.000 C 
BRANCH  11  12
ATOM     12  C   LIG    1       24.249 -12.938   3.950  0.00  0.00    -0.000 C 
BRANCH  12  14
ATOM     13  C   LIG    1       24.961 -11.683   1.901  0.00  0.00    +0.004 C 
ATOM     14  C   LIG    1       23.828 -11.938   2.882  0.00  0.00    -0.003 C 
ENDBRANCH  12  14
ENDBRANCH  11  12
ENDBRANCH  10  11
ENDBRANCH   9  10
ENDBRANCH   8   9
ENDBRANCH   7   8
ENDBRANCH   6   7
ENDBRANCH   5   6
ENDBRANCH   4   5
ENDBRANCH   3   4
ENDBRANCH   2   3
ENDBRANCH   1   2
BRANCH   1  15
ATOM     15  C   LIG    1       23.642 -17.005   4.218  0.00  0.00    +0.029 C 
BRANCH  15  16
ATOM     16  C   LIG    1       22.350 -17.819   4.420  0.00  0.00    +0.172 C 
BRANCH  16  17
ATOM     17  O   LIG    1       22.452 -19.039   3.682  0.00  0.00    -0.287 OA
BRANCH  17  18
ATOM     18  P   LIG    1       22.238 -20.441   4.423  0.00  0.00    +0.475 P 
ATOM     19  O   LIG    1       20.826 -20.917   4.609  0.00  0.00    -0.227 OA
BRANCH  18  20
ATOM     20  O   LIG    1       23.111 -21.458   3.546  0.00  0.00    -0.302 OA
ATOM     21  H   LIG    1       23.737 -21.961   4.118  0.00  0.00    +0.222 HD
ENDBRANCH  18  20
BRANCH  18  22
ATOM     22  O   LIG    1       23.108 -20.338   5.775  0.00  0.00    -0.281 OA
BRANCH  22  23
ATOM     23  C   LIG    1       23.542 -21.545   6.390  0.00  0.00    +0.223 C 
BRANCH  23  24
ATOM     24  C   LIG    1       24.930 -21.399   7.054  0.00  0.00    +0.161 C 
BRANCH  24  25
ATOM     25  N   LIG    1       26.118 -21.043   6.113  0.00  0.00    +0.238 N 
ATOM     26  C   LIG    1       26.222 -19.514   6.024  0.00  0.00    +0.192 C 
ATOM     27  C   LIG    1       25.858 -21.569   4.704  0.00  0.00    +0.192 C 
ATOM     28  C   LIG    1       27.456 -21.554   6.636  0.00  0.00    +0.192 C 
ENDBRANCH  24  25
ENDBRANCH  23  24
ENDBRANCH  22  23
ENDBRANCH  18  22
ENDBRANCH  17  18
ENDBRANCH  16  17
ENDBRANCH  15  16
ENDBRANCH   1  15
TORSDOF 21
ENDMDL
MODEL 9
REMARK VINA RESULT:       1.1      2.596      4.561
REMARK  Name = *****
REMARK                            x       y       z     vdW  Elec       q    Type
REMARK                         _______ _______ _______ _____ _____    ______ ____
ROOT
ATOM      1  C   LIG    1       23.506 -16.540   4.688  0.00  0.00    +0.002 C 
ENDROOT
BRANCH   1   2
ATOM      2  C   LIG    1       23.946 -15.133   4.238  0.00  0.00    +0.000 C 
BRANCH   2   3
ATOM      3  C   LIG    1       23.125 -13.972   4.808  0.00  0.00    -0.000 C 
BRANCH   3   4
ATOM      4  C   LIG    1       24.014 -12.742   5.050  0.00  0.00    -0.000 C 
BRANCH   4   5
ATOM      5  C   LIG    1       23.967 -11.790   3.859  0.00  0.00    -0.000 C 
BRANCH   5   6
ATOM      6  C   LIG    1       23.601 -12.515   2.561  0.00  0.00    -0.000 C 
BRANCH   6   7
ATOM      7  C   LIG    1       24.847 -13.002   1.812  0.00  0.00    -0.000 C 
BRANCH   7   8
ATOM      8  C   LIG    1       26.150 -12.793   2.589  0.00  0.00    -0.000 C 
BRANCH   8   9
ATOM      9  C   LIG    1       27.193 -13.836   2.209  0.00  0.00    -0.000 C 
BRANCH   9  10
ATOM     10  C   LIG    1       27.412 -14.860   3.315  0.00  0.00    -0.000 C 
BRANCH  10  11
ATOM     11  C   LIG    1       26.777 -14.408   4.632  0.00  0.00    -0.000 C 
BRANCH  11  12
ATOM     12  C   LIG    1       27.382 -13.097   5.140  0.00  0.00    -0.000 C 
BRANCH  12  14
ATOM     13  C   LIG    1       29.419 -11.638   5.172  0.00  0.00    +0.004 C 
ATOM     14  C   LIG    1       28.712 -12.785   4.468  0.00  0.00    -0.003 C 
ENDBRANCH  12  14
ENDBRANCH  11  12
ENDBRANCH  10  11
ENDBRANCH   9  10
ENDBRANCH   8   9
ENDBRANCH   7   8
ENDBRANCH   6   7
ENDBRANCH   5   6
ENDBRANCH   4   5
ENDBRANCH   3   4
ENDBRANCH   2   3
ENDBRANCH   1   2
BRANCH   1  15
ATOM     15  C   LIG    1       23.958 -17.697   3.786  0.00  0.00    +0.029 C 
BRANCH  15  16
ATOM     16  C   LIG    1       22.880 -18.774   3.558  0.00  0.00    +0.172 C 
BRANCH  16  17
ATOM     17  O   LIG    1       22.346 -19.169   4.824  0.00  0.00    -0.287 OA
BRANCH  17  18
ATOM     18  P   LIG    1       22.338 -20.714   5.240  0.00  0.00    +0.475 P 
ATOM     19  O   LIG    1       21.047 -21.465   5.089  0.00  0.00    -0.227 OA
BRANCH  18  20
ATOM     20  O   LIG    1       23.513 -21.341   4.350  0.00  0.00    -0.302 OA
ATOM     21  H   LIG    1       23.994 -20.634   3.862  0.00  0.00    +0.222 HD
ENDBRANCH  18  20
BRANCH  18  22
ATOM     22  O   LIG    1       22.983 -20.754   6.716  0.00  0.00    -0.281 OA
BRANCH  22  23
ATOM     23  C   LIG    1       24.198 -21.469   6.900  0.00  0.00    +0.223 C 
BRANCH  23  24
ATOM     24  C   LIG    1       25.415 -20.528   7.062  0.00  0.00    +0.161 C 
BRANCH  24  25
ATOM     25  N   LIG    1       26.561 -20.687   6.020  0.00  0.00    +0.238 N 
ATOM     26  C   LIG    1       27.741 -21.392   6.703  0.00  0.00    +0.192 C 
ATOM     27  C   LIG    1       27.051 -19.319   5.553  0.00  0.00    +0.192 C 
ATOM     28  C   LIG    1       26.156 -21.546   4.827  0.00  0.00    +0.192 C 
ENDBRANCH  24  25
ENDBRANCH  23  24
ENDBRANCH  22  23
ENDBRANCH  18  22
ENDBRANCH  17  18
ENDBRANCH  16  17
ENDBRANCH  15  16
ENDBRANCH   1  15
TORSDOF 21
ENDMDL
