MODEL 1
REMARK VINA RESULT:      -7.5      0.000      0.000
REMARK  Name = *****
REMARK                            x       y       z     vdW  Elec       q    Type
REMARK                         _______ _______ _______ _____ _____    ______ ____
ROOT
ATOM      1  C   LIG    1       28.517 -29.668  12.867  0.00  0.00    +0.061 C 
ATOM      2  C   LIG    1       27.029 -29.877  12.939  0.00  0.00    +0.016 C 
ATOM      3  N   LIG    1       26.552 -30.523  14.075  0.00  0.00    -0.321 N 
ATOM      4  H   LIG    1       27.253 -30.876  14.725  0.00  0.00    +0.152 HD
ATOM      5  C   LIG    1       25.299 -31.123  14.127  0.00  0.00    +0.017 C 
ATOM      6  C   LIG    1       25.105 -32.142  15.213  0.00  0.00    +0.061 C 
ATOM      7  C   LIG    1       24.354 -30.779  13.216  0.00  0.00    +0.070 C 
ATOM      8  C   LIG    1       24.644 -29.616  12.269  0.00  0.00    +0.097 C 
ATOM      9  C   LIG    1       26.137 -29.487  11.994  0.00  0.00    +0.065 C 
ENDROOT
BRANCH   7  10
ATOM     10  P   LIG    1       22.782 -31.518  12.994  0.00  0.00    +0.362 P 
ATOM     11  O   LIG    1       22.323 -31.200  11.469  0.00  0.00    -0.304 OA
ATOM     12  C   LIG    1       23.071 -31.737  10.392  0.00  0.00    +0.179 C 
ATOM     13  C   LIG    1       23.105 -33.266  10.444  0.00  0.00    +0.013 C 
ATOM     14  C   LIG    1       21.680 -33.824  10.276  0.00  0.00    +0.015 C 
ATOM     15  C   LIG    1       23.991 -33.799   9.308  0.00  0.00    +0.015 C 
ATOM     16  C   LIG    1       23.691 -33.688  11.798  0.00  0.00    +0.179 C 
ATOM     17  O   LIG    1       22.981 -33.126  12.884  0.00  0.00    -0.304 OA
ATOM     18  O   LIG    1       21.656 -31.211  13.943  0.00  0.00    -0.253 OA
ENDBRANCH   7  10
BRANCH   8  19
ATOM     19  C   LIG    1       24.035 -28.300  12.778  0.00  0.00    -0.029 A 
ATOM     20  C   LIG    1       24.858 -27.274  13.276  0.00  0.00    +0.088 A 
ATOM     21  C   LIG    1       24.285 -26.077  13.744  0.00  0.00    +0.273 A 
ATOM     22  C   LIG    1       22.900 -25.881  13.709  0.00  0.00    +0.084 A 
ATOM     23  C   LIG    1       22.081 -26.892  13.215  0.00  0.00    +0.007 A 
ATOM     24  C   LIG    1       22.643 -28.086  12.760  0.00  0.00    +0.005 A 
BRANCH  21  25
ATOM     25  N   LIG    1       25.144 -25.020  14.294  0.00  0.00    +0.080 N 
ATOM     26  O   LIG    1       25.750 -25.255  15.351  0.00  0.00    -0.576 OA
ATOM     27  O   LIG    1       25.205 -23.946  13.677  0.00  0.00    +0.041 OA
ENDBRANCH  21  25
ENDBRANCH   8  19
BRANCH   9  28
ATOM     28  C   LIG    1       26.462 -29.052  10.630  0.00  0.00    +0.338 C 
ATOM     29  O   LIG    1       27.013 -27.989  10.397  0.00  0.00    -0.245 OA
BRANCH  28  30
ATOM     30  O   LIG    1       25.875 -29.842   9.722  0.00  0.00    -0.460 OA
BRANCH  30  31
ATOM     31  C   LIG    1       26.132 -29.525   8.348  0.00  0.00    +0.251 C 
BRANCH  31  32
ATOM     32  C   LIG    1       24.866 -28.978   7.669  0.00  0.00    +0.146 C 
BRANCH  32  33
ATOM     33  N   LIG    1       24.858 -29.272   6.218  0.00  0.00    -0.322 N 
BRANCH  33  34
ATOM     34  C   LIG    1       24.757 -30.617   5.828  0.00  0.00    +0.030 A 
ATOM     35  C   LIG    1       25.737 -31.233   5.021  0.00  0.00    +0.023 A 
ATOM     36  C   LIG    1       25.627 -32.562   4.581  0.00  0.00    +0.002 A 
ATOM     37  C   LIG    1       24.544 -33.339   4.966  0.00  0.00    +0.000 A 
ATOM     38  C   LIG    1       23.592 -32.791   5.813  0.00  0.00    +0.002 A 
ATOM     39  C   LIG    1       23.702 -31.457   6.232  0.00  0.00    +0.023 A 
ENDBRANCH  33  34
BRANCH  33  40
ATOM     40  C   LIG    1       25.529 -28.281   5.349  0.00  0.00    +0.140 C 
BRANCH  40  41
ATOM     41  C   LIG    1       25.283 -26.854   5.799  0.00  0.00    -0.030 A 
ATOM     42  C   LIG    1       23.992 -26.302   5.746  0.00  0.00    +0.005 A 
ATOM     43  C   LIG    1       23.750 -25.014   6.225  0.00  0.00    +0.000 A 
ATOM     44  C   LIG    1       24.786 -24.274   6.793  0.00  0.00    +0.000 A 
ATOM     45  C   LIG    1       26.073 -24.805   6.844  0.00  0.00    +0.000 A 
ATOM     46  C   LIG    1       26.327 -26.075   6.323  0.00  0.00    +0.005 A 
ENDBRANCH  40  41
ENDBRANCH  33  40
ENDBRANCH  32  33
ENDBRANCH  31  32
ENDBRANCH  30  31
ENDBRANCH  28  30
ENDBRANCH   9  28
TORSDOF 11
ENDMDL
MODEL 2
REMARK VINA RESULT:      -7.4      2.067      2.916
REMARK  Name = *****
REMARK                            x       y       z     vdW  Elec       q    Type
REMARK                         _______ _______ _______ _____ _____    ______ ____
ROOT
ATOM      1  C   LIG    1       25.283 -32.429  11.513  0.00  0.00    +0.061 C 
ATOM      2  C   LIG    1       24.049 -31.796  12.093  0.00  0.00    +0.016 C 
ATOM      3  N   LIG    1       23.738 -32.142  13.404  0.00  0.00    -0.321 N 
ATOM      4  H   LIG    1       24.321 -32.857  13.836  0.00  0.00    +0.152 HD
ATOM      5  C   LIG    1       22.470 -31.962  13.947  0.00  0.00    +0.017 C 
ATOM      6  C   LIG    1       22.164 -32.771  15.176  0.00  0.00    +0.061 C 
ATOM      7  C   LIG    1       21.602 -31.107  13.352  0.00  0.00    +0.070 C 
ATOM      8  C   LIG    1       22.108 -30.238  12.202  0.00  0.00    +0.097 C 
ATOM      9  C   LIG    1       23.233 -30.929  11.442  0.00  0.00    +0.065 C 
ENDROOT
BRANCH   7  10
ATOM     10  P   LIG    1       19.919 -30.854  13.763  0.00  0.00    +0.362 P 
ATOM     11  O   LIG    1       19.153 -30.453  12.389  0.00  0.00    -0.304 OA
ATOM     12  C   LIG    1       19.074 -31.398  11.335  0.00  0.00    +0.179 C 
ATOM     13  C   LIG    1       18.360 -32.674  11.784  0.00  0.00    +0.013 C 
ATOM     14  C   LIG    1       16.902 -32.351  12.158  0.00  0.00    +0.015 C 
ATOM     15  C   LIG    1       18.370 -33.697  10.638  0.00  0.00    +0.015 C 
ATOM     16  C   LIG    1       19.110 -33.246  12.994  0.00  0.00    +0.179 C 
ATOM     17  O   LIG    1       19.234 -32.300  14.039  0.00  0.00    -0.304 OA
ATOM     18  O   LIG    1       19.539 -29.898  14.861  0.00  0.00    -0.253 OA
ENDBRANCH   7  10
BRANCH   8  19
ATOM     19  C   LIG    1       22.512 -28.835  12.680  0.00  0.00    -0.029 A 
ATOM     20  C   LIG    1       23.853 -28.538  12.983  0.00  0.00    +0.088 A 
ATOM     21  C   LIG    1       24.206 -27.250  13.426  0.00  0.00    +0.273 A 
ATOM     22  C   LIG    1       23.240 -26.245  13.560  0.00  0.00    +0.084 A 
ATOM     23  C   LIG    1       21.912 -26.533  13.260  0.00  0.00    +0.007 A 
ATOM     24  C   LIG    1       21.554 -27.813  12.831  0.00  0.00    +0.005 A 
BRANCH  21  25
ATOM     25  N   LIG    1       25.602 -26.951  13.771  0.00  0.00    +0.080 N 
ATOM     26  O   LIG    1       26.473 -27.761  13.419  0.00  0.00    -0.576 OA
ATOM     27  O   LIG    1       25.830 -25.911  14.406  0.00  0.00    +0.041 OA
ENDBRANCH  21  25
ENDBRANCH   8  19
BRANCH   9  28
ATOM     28  C   LIG    1       23.234 -30.665   9.998  0.00  0.00    +0.338 C 
ATOM     29  O   LIG    1       22.604 -31.348   9.208  0.00  0.00    -0.245 OA
BRANCH  28  30
ATOM     30  O   LIG    1       24.172 -29.764   9.675  0.00  0.00    -0.460 OA
BRANCH  30  31
ATOM     31  C   LIG    1       24.961 -30.061   8.517  0.00  0.00    +0.251 C 
BRANCH  31  32
ATOM     32  C   LIG    1       25.207 -28.792   7.685  0.00  0.00    +0.146 C 
BRANCH  32  33
ATOM     33  N   LIG    1       24.971 -29.034   6.243  0.00  0.00    -0.322 N 
BRANCH  33  34
ATOM     34  C   LIG    1       24.882 -30.368   5.813  0.00  0.00    +0.030 A 
ATOM     35  C   LIG    1       23.756 -31.167   6.099  0.00  0.00    +0.023 A 
ATOM     36  C   LIG    1       23.673 -32.517   5.721  0.00  0.00    +0.002 A 
ATOM     37  C   LIG    1       24.704 -33.108   5.006  0.00  0.00    +0.000 A 
ATOM     38  C   LIG    1       25.801 -32.338   4.649  0.00  0.00    +0.002 A 
ATOM     39  C   LIG    1       25.882 -30.995   5.047  0.00  0.00    +0.023 A 
ENDBRANCH  33  34
BRANCH  33  40
ATOM     40  C   LIG    1       25.430 -27.972   5.322  0.00  0.00    +0.140 C 
BRANCH  40  41
ATOM     41  C   LIG    1       25.193 -26.580   5.877  0.00  0.00    -0.030 A 
ATOM     42  C   LIG    1       26.277 -25.777   6.272  0.00  0.00    +0.005 A 
ATOM     43  C   LIG    1       26.067 -24.471   6.717  0.00  0.00    +0.000 A 
ATOM     44  C   LIG    1       24.779 -23.940   6.740  0.00  0.00    +0.000 A 
ATOM     45  C   LIG    1       23.694 -24.728   6.360  0.00  0.00    +0.000 A 
ATOM     46  C   LIG    1       23.897 -26.049   5.960  0.00  0.00    +0.005 A 
ENDBRANCH  40  41
ENDBRANCH  33  40
ENDBRANCH  32  33
ENDBRANCH  31  32
ENDBRANCH  30  31
ENDBRANCH  28  30
ENDBRANCH   9  28
TORSDOF 11
ENDMDL
MODEL 3
REMARK VINA RESULT:      -7.3      2.768      6.093
REMARK  Name = *****
REMARK                            x       y       z     vdW  Elec       q    Type
REMARK                         _______ _______ _______ _____ _____    ______ ____
ROOT
ATOM      1  C   LIG    1       25.842 -30.436   5.204  0.00  0.00    +0.061 C 
ATOM      2  C   LIG    1       25.263 -30.544   6.588  0.00  0.00    +0.016 C 
ATOM      3  N   LIG    1       25.084 -31.833   7.081  0.00  0.00    -0.321 N 
ATOM      4  H   LIG    1       25.280 -32.597   6.437  0.00  0.00    +0.152 HD
ATOM      5  C   LIG    1       24.233 -32.118   8.144  0.00  0.00    +0.017 C 
ATOM      6  C   LIG    1       23.800 -33.551   8.269  0.00  0.00    +0.061 C 
ATOM      7  C   LIG    1       23.842 -31.120   8.974  0.00  0.00    +0.070 C 
ATOM      8  C   LIG    1       24.487 -29.745   8.816  0.00  0.00    +0.097 C 
ATOM      9  C   LIG    1       24.909 -29.496   7.374  0.00  0.00    +0.065 C 
ENDROOT
BRANCH   7  10
ATOM     10  P   LIG    1       22.659 -31.219  10.262  0.00  0.00    +0.362 P 
ATOM     11  O   LIG    1       22.486 -32.793  10.622  0.00  0.00    -0.304 OA
ATOM     12  C   LIG    1       23.586 -33.509  11.158  0.00  0.00    +0.179 C 
ATOM     13  C   LIG    1       24.065 -32.892  12.473  0.00  0.00    +0.013 C 
ATOM     14  C   LIG    1       22.952 -32.992  13.531  0.00  0.00    +0.015 C 
ATOM     15  C   LIG    1       25.305 -33.648  12.972  0.00  0.00    +0.015 C 
ATOM     16  C   LIG    1       24.426 -31.424  12.211  0.00  0.00    +0.179 C 
ATOM     17  O   LIG    1       23.352 -30.705  11.637  0.00  0.00    -0.304 OA
ATOM     18  O   LIG    1       21.308 -30.577  10.106  0.00  0.00    -0.253 OA
ENDBRANCH   7  10
BRANCH   8  19
ATOM     19  C   LIG    1       25.650 -29.541   9.801  0.00  0.00    -0.029 A 
ATOM     20  C   LIG    1       25.553 -28.601  10.841  0.00  0.00    +0.088 A 
ATOM     21  C   LIG    1       26.628 -28.422  11.731  0.00  0.00    +0.273 A 
ATOM     22  C   LIG    1       27.799 -29.179  11.606  0.00  0.00    +0.084 A 
ATOM     23  C   LIG    1       27.899 -30.112  10.579  0.00  0.00    +0.007 A 
ATOM     24  C   LIG    1       26.840 -30.287   9.687  0.00  0.00    +0.005 A 
BRANCH  21  25
ATOM     25  N   LIG    1       26.537 -27.416  12.798  0.00  0.00    +0.080 N 
ATOM     26  O   LIG    1       26.999 -26.287  12.573  0.00  0.00    -0.576 OA
ATOM     27  O   LIG    1       26.012 -27.756  13.869  0.00  0.00    +0.041 OA
ENDBRANCH  21  25
ENDBRANCH   8  19
BRANCH   9  28
ATOM     28  C   LIG    1       24.763 -28.102   6.936  0.00  0.00    +0.338 C 
ATOM     29  O   LIG    1       23.847 -27.736   6.217  0.00  0.00    -0.245 OA
BRANCH  28  30
ATOM     30  O   LIG    1       25.858 -27.389   7.227  0.00  0.00    -0.460 OA
BRANCH  30  31
ATOM     31  C   LIG    1       26.046 -26.183   6.477  0.00  0.00    +0.251 C 
BRANCH  31  32
ATOM     32  C   LIG    1       25.524 -24.967   7.259  0.00  0.00    +0.146 C 
BRANCH  32  33
ATOM     33  N   LIG    1       25.683 -23.714   6.487  0.00  0.00    -0.322 N 
BRANCH  33  34
ATOM     34  C   LIG    1       26.162 -22.585   7.171  0.00  0.00    +0.030 A 
ATOM     35  C   LIG    1       25.424 -21.975   8.206  0.00  0.00    +0.023 A 
ATOM     36  C   LIG    1       25.864 -20.816   8.867  0.00  0.00    +0.002 A 
ATOM     37  C   LIG    1       27.086 -20.246   8.539  0.00  0.00    +0.000 A 
ATOM     38  C   LIG    1       27.872 -20.854   7.571  0.00  0.00    +0.002 A 
ATOM     39  C   LIG    1       27.414 -22.001   6.905  0.00  0.00    +0.023 A 
ENDBRANCH  33  34
BRANCH  33  40
ATOM     40  C   LIG    1       24.813 -23.566   5.301  0.00  0.00    +0.140 C 
BRANCH  40  41
ATOM     41  C   LIG    1       24.249 -22.165   5.166  0.00  0.00    -0.030 A 
ATOM     42  C   LIG    1       24.850 -21.236   4.300  0.00  0.00    +0.005 A 
ATOM     43  C   LIG    1       24.292 -19.969   4.120  0.00  0.00    +0.000 A 
ATOM     44  C   LIG    1       23.111 -19.627   4.776  0.00  0.00    +0.000 A 
ATOM     45  C   LIG    1       22.509 -20.535   5.644  0.00  0.00    +0.000 A 
ATOM     46  C   LIG    1       23.090 -21.785   5.861  0.00  0.00    +0.005 A 
ENDBRANCH  40  41
ENDBRANCH  33  40
ENDBRANCH  32  33
ENDBRANCH  31  32
ENDBRANCH  30  31
ENDBRANCH  28  30
ENDBRANCH   9  28
TORSDOF 11
ENDMDL
MODEL 4
REMARK VINA RESULT:      -7.3      2.482      4.695
REMARK  Name = *****
REMARK                            x       y       z     vdW  Elec       q    Type
REMARK                         _______ _______ _______ _____ _____    ______ ____
ROOT
ATOM      1  C   LIG    1       24.604 -32.773  11.631  0.00  0.00    +0.061 C 
ATOM      2  C   LIG    1       23.421 -32.063  12.229  0.00  0.00    +0.016 C 
ATOM      3  N   LIG    1       23.161 -32.323  13.571  0.00  0.00    -0.321 N 
ATOM      4  H   LIG    1       23.738 -33.033  14.017  0.00  0.00    +0.152 HD
ATOM      5  C   LIG    1       21.927 -32.066  14.159  0.00  0.00    +0.017 C 
ATOM      6  C   LIG    1       21.651 -32.792  15.445  0.00  0.00    +0.061 C 
ATOM      7  C   LIG    1       21.062 -31.213  13.555  0.00  0.00    +0.070 C 
ATOM      8  C   LIG    1       21.543 -30.430  12.336  0.00  0.00    +0.097 C 
ATOM      9  C   LIG    1       22.606 -31.204  11.567  0.00  0.00    +0.065 C 
ENDROOT
BRANCH   7  10
ATOM     10  P   LIG    1       19.410 -30.875  14.027  0.00  0.00    +0.362 P 
ATOM     11  O   LIG    1       18.611 -30.454  12.677  0.00  0.00    -0.304 OA
ATOM     12  C   LIG    1       18.447 -31.407  11.641  0.00  0.00    +0.179 C 
ATOM     13  C   LIG    1       17.690 -32.642  12.134  0.00  0.00    +0.013 C 
ATOM     14  C   LIG    1       16.265 -32.244  12.559  0.00  0.00    +0.015 C 
ATOM     15  C   LIG    1       17.608 -33.679  11.004  0.00  0.00    +0.015 C 
ATOM     16  C   LIG    1       18.459 -33.234  13.323  0.00  0.00    +0.179 C 
ATOM     17  O   LIG    1       18.668 -32.283  14.349  0.00  0.00    -0.304 OA
ATOM     18  O   LIG    1       19.119 -29.888  15.124  0.00  0.00    -0.253 OA
ENDBRANCH   7  10
BRANCH   8  19
ATOM     19  C   LIG    1       22.018 -29.018  12.713  0.00  0.00    -0.029 A 
ATOM     20  C   LIG    1       23.385 -28.746  12.898  0.00  0.00    +0.088 A 
ATOM     21  C   LIG    1       23.803 -27.450  13.250  0.00  0.00    +0.273 A 
ATOM     22  C   LIG    1       22.877 -26.412  13.408  0.00  0.00    +0.084 A 
ATOM     23  C   LIG    1       21.523 -26.676  13.224  0.00  0.00    +0.007 A 
ATOM     24  C   LIG    1       21.101 -27.963  12.886  0.00  0.00    +0.005 A 
BRANCH  21  25
ATOM     25  N   LIG    1       25.229 -27.175  13.474  0.00  0.00    +0.080 N 
ATOM     26  O   LIG    1       25.572 -26.764  14.594  0.00  0.00    -0.576 OA
ATOM     27  O   LIG    1       26.009 -27.359  12.528  0.00  0.00    +0.041 OA
ENDBRANCH  21  25
ENDBRANCH   8  19
BRANCH   9  28
ATOM     28  C   LIG    1       22.549 -31.021  10.111  0.00  0.00    +0.338 C 
ATOM     29  O   LIG    1       21.950 -31.792   9.379  0.00  0.00    -0.245 OA
BRANCH  28  30
ATOM     30  O   LIG    1       23.407 -30.074   9.711  0.00  0.00    -0.460 OA
BRANCH  30  31
ATOM     31  C   LIG    1       24.557 -30.528   8.985  0.00  0.00    +0.251 C 
BRANCH  31  32
ATOM     32  C   LIG    1       25.296 -29.346   8.340  0.00  0.00    +0.146 C 
BRANCH  32  33
ATOM     33  N   LIG    1       25.194 -29.381   6.863  0.00  0.00    -0.322 N 
BRANCH  33  34
ATOM     34  C   LIG    1       25.156 -28.151   6.185  0.00  0.00    +0.030 A 
ATOM     35  C   LIG    1       25.884 -27.936   4.997  0.00  0.00    +0.023 A 
ATOM     36  C   LIG    1       25.898 -26.698   4.333  0.00  0.00    +0.002 A 
ATOM     37  C   LIG    1       25.149 -25.636   4.819  0.00  0.00    +0.000 A 
ATOM     38  C   LIG    1       24.369 -25.826   5.950  0.00  0.00    +0.002 A 
ATOM     39  C   LIG    1       24.376 -27.062   6.614  0.00  0.00    +0.023 A 
ENDBRANCH  33  34
BRANCH  33  40
ATOM     40  C   LIG    1       24.559 -30.584   6.284  0.00  0.00    +0.140 C 
BRANCH  40  41
ATOM     41  C   LIG    1       25.568 -31.532   5.664  0.00  0.00    -0.030 A 
ATOM     42  C   LIG    1       26.535 -32.164   6.464  0.00  0.00    +0.005 A 
ATOM     43  C   LIG    1       27.419 -33.090   5.909  0.00  0.00    +0.000 A 
ATOM     44  C   LIG    1       27.327 -33.420   4.558  0.00  0.00    +0.000 A 
ATOM     45  C   LIG    1       26.379 -32.794   3.751  0.00  0.00    +0.000 A 
ATOM     46  C   LIG    1       25.525 -31.834   4.294  0.00  0.00    +0.005 A 
ENDBRANCH  40  41
ENDBRANCH  33  40
ENDBRANCH  32  33
ENDBRANCH  31  32
ENDBRANCH  30  31
ENDBRANCH  28  30
ENDBRANCH   9  28
TORSDOF 11
ENDMDL
MODEL 5
REMARK VINA RESULT:      -7.0      2.728      6.004
REMARK  Name = *****
REMARK                            x       y       z     vdW  Elec       q    Type
REMARK                         _______ _______ _______ _____ _____    ______ ____
ROOT
ATOM      1  C   LIG    1       25.845 -30.004   5.190  0.00  0.00    +0.061 C 
ATOM      2  C   LIG    1       25.275 -30.116   6.578  0.00  0.00    +0.016 C 
ATOM      3  N   LIG    1       24.880 -31.388   6.980  0.00  0.00    -0.321 N 
ATOM      4  H   LIG    1       24.931 -32.123   6.277  0.00  0.00    +0.152 HD
ATOM      5  C   LIG    1       24.008 -31.602   8.042  0.00  0.00    +0.017 C 
ATOM      6  C   LIG    1       23.332 -32.944   8.074  0.00  0.00    +0.061 C 
ATOM      7  C   LIG    1       23.808 -30.617   8.953  0.00  0.00    +0.070 C 
ATOM      8  C   LIG    1       24.682 -29.367   8.878  0.00  0.00    +0.097 C 
ATOM      9  C   LIG    1       25.121 -29.086   7.447  0.00  0.00    +0.065 C 
ENDROOT
BRANCH   7  10
ATOM     10  P   LIG    1       22.644 -30.609  10.261  0.00  0.00    +0.362 P 
ATOM     11  O   LIG    1       22.479 -32.147  10.755  0.00  0.00    -0.304 OA
ATOM     12  C   LIG    1       23.588 -32.814  11.334  0.00  0.00    +0.179 C 
ATOM     13  C   LIG    1       24.084 -32.087  12.585  0.00  0.00    +0.013 C 
ATOM     14  C   LIG    1       22.987 -32.098  13.664  0.00  0.00    +0.015 C 
ATOM     15  C   LIG    1       25.333 -32.797  13.129  0.00  0.00    +0.015 C 
ATOM     16  C   LIG    1       24.439 -30.646  12.195  0.00  0.00    +0.179 C 
ATOM     17  O   LIG    1       23.355 -29.979  11.578  0.00  0.00    -0.304 OA
ATOM     18  O   LIG    1       21.289 -29.983  10.070  0.00  0.00    -0.253 OA
ENDBRANCH   7  10
BRANCH   8  19
ATOM     19  C   LIG    1       25.875 -29.444   9.843  0.00  0.00    -0.029 A 
ATOM     20  C   LIG    1       26.043 -28.483  10.856  0.00  0.00    +0.088 A 
ATOM     21  C   LIG    1       27.144 -28.563  11.727  0.00  0.00    +0.273 A 
ATOM     22  C   LIG    1       28.078 -29.600  11.614  0.00  0.00    +0.084 A 
ATOM     23  C   LIG    1       27.916 -30.555  10.614  0.00  0.00    +0.007 A 
ATOM     24  C   LIG    1       26.831 -30.474   9.740  0.00  0.00    +0.005 A 
BRANCH  21  25
ATOM     25  N   LIG    1       27.335 -27.540  12.764  0.00  0.00    +0.080 N 
ATOM     26  O   LIG    1       27.862 -27.888  13.832  0.00  0.00    -0.576 OA
ATOM     27  O   LIG    1       26.947 -26.388  12.518  0.00  0.00    +0.041 OA
ENDBRANCH  21  25
ENDBRANCH   8  19
BRANCH   9  28
ATOM     28  C   LIG    1       25.214 -27.658   7.115  0.00  0.00    +0.338 C 
ATOM     29  O   LIG    1       26.057 -26.926   7.609  0.00  0.00    -0.245 OA
BRANCH  28  30
ATOM     30  O   LIG    1       24.144 -27.256   6.419  0.00  0.00    -0.460 OA
BRANCH  30  31
ATOM     31  C   LIG    1       24.267 -26.000   5.740  0.00  0.00    +0.251 C 
BRANCH  31  32
ATOM     32  C   LIG    1       23.450 -24.912   6.455  0.00  0.00    +0.146 C 
BRANCH  32  33
ATOM     33  N   LIG    1       24.251 -23.685   6.670  0.00  0.00    -0.322 N 
BRANCH  33  34
ATOM     34  C   LIG    1       23.900 -22.543   5.931  0.00  0.00    +0.030 A 
ATOM     35  C   LIG    1       24.479 -22.264   4.676  0.00  0.00    +0.023 A 
ATOM     36  C   LIG    1       24.178 -21.102   3.946  0.00  0.00    +0.002 A 
ATOM     37  C   LIG    1       23.252 -20.191   4.434  0.00  0.00    +0.000 A 
ATOM     38  C   LIG    1       22.612 -20.461   5.635  0.00  0.00    +0.002 A 
ATOM     39  C   LIG    1       22.933 -21.616   6.363  0.00  0.00    +0.023 A 
ENDBRANCH  33  34
BRANCH  33  40
ATOM     40  C   LIG    1       25.639 -23.887   7.136  0.00  0.00    +0.140 C 
BRANCH  40  41
ATOM     41  C   LIG    1       26.306 -22.590   7.553  0.00  0.00    -0.030 A 
ATOM     42  C   LIG    1       27.494 -22.169   6.931  0.00  0.00    +0.005 A 
ATOM     43  C   LIG    1       28.072 -20.942   7.263  0.00  0.00    +0.000 A 
ATOM     44  C   LIG    1       27.454 -20.108   8.193  0.00  0.00    +0.000 A 
ATOM     45  C   LIG    1       26.281 -20.517   8.824  0.00  0.00    +0.000 A 
ATOM     46  C   LIG    1       25.727 -21.763   8.528  0.00  0.00    +0.005 A 
ENDBRANCH  40  41
ENDBRANCH  33  40
ENDBRANCH  32  33
ENDBRANCH  31  32
ENDBRANCH  30  31
ENDBRANCH  28  30
ENDBRANCH   9  28
TORSDOF 11
ENDMDL
MODEL 6
REMARK VINA RESULT:      -6.9      1.783      2.728
REMARK  Name = *****
REMARK                            x       y       z     vdW  Elec       q    Type
REMARK                         _______ _______ _______ _____ _____    ______ ____
ROOT
ATOM      1  C   LIG    1       25.651 -33.375  10.453  0.00  0.00    +0.061 C 
ATOM      2  C   LIG    1       25.001 -32.393  11.389  0.00  0.00    +0.016 C 
ATOM      3  N   LIG    1       25.036 -32.716  12.741  0.00  0.00    -0.321 N 
ATOM      4  H   LIG    1       25.422 -33.627  12.981  0.00  0.00    +0.152 HD
ATOM      5  C   LIG    1       24.178 -32.139  13.673  0.00  0.00    +0.017 C 
ATOM      6  C   LIG    1       24.019 -32.886  14.966  0.00  0.00    +0.061 C 
ATOM      7  C   LIG    1       23.542 -30.980  13.369  0.00  0.00    +0.070 C 
ATOM      8  C   LIG    1       23.923 -30.256  12.079  0.00  0.00    +0.097 C 
ATOM      9  C   LIG    1       24.397 -31.237  11.015  0.00  0.00    +0.065 C 
ENDROOT
BRANCH   7  10
ATOM     10  P   LIG    1       22.308 -30.174  14.313  0.00  0.00    +0.362 P 
ATOM     11  O   LIG    1       21.415 -29.301  13.275  0.00  0.00    -0.304 OA
ATOM     12  C   LIG    1       20.656 -29.967  12.280  0.00  0.00    +0.179 C 
ATOM     13  C   LIG    1       19.643 -30.929  12.903  0.00  0.00    +0.013 C 
ATOM     14  C   LIG    1       18.621 -30.139  13.740  0.00  0.00    +0.015 C 
ATOM     15  C   LIG    1       18.903 -31.686  11.789  0.00  0.00    +0.015 C 
ATOM     16  C   LIG    1       20.405 -31.926  13.786  0.00  0.00    +0.179 C 
ATOM     17  O   LIG    1       21.200 -31.275  14.758  0.00  0.00    -0.304 OA
ATOM     18  O   LIG    1       22.686 -29.330  15.500  0.00  0.00    -0.253 OA
ENDBRANCH   7  10
BRANCH   8  19
ATOM     19  C   LIG    1       24.949 -29.139  12.332  0.00  0.00    -0.029 A 
ATOM     20  C   LIG    1       24.547 -27.905  12.873  0.00  0.00    +0.088 A 
ATOM     21  C   LIG    1       25.496 -26.891  13.092  0.00  0.00    +0.273 A 
ATOM     22  C   LIG    1       26.849 -27.093  12.792  0.00  0.00    +0.084 A 
ATOM     23  C   LIG    1       27.252 -28.313  12.257  0.00  0.00    +0.007 A 
ATOM     24  C   LIG    1       26.312 -29.320  12.027  0.00  0.00    +0.005 A 
BRANCH  21  25
ATOM     25  N   LIG    1       25.070 -25.591  13.629  0.00  0.00    +0.080 N 
ATOM     26  O   LIG    1       25.714 -24.585  13.292  0.00  0.00    -0.576 OA
ATOM     27  O   LIG    1       24.097 -25.574  14.397  0.00  0.00    +0.041 OA
ENDBRANCH  21  25
ENDBRANCH   8  19
BRANCH   9  28
ATOM     28  C   LIG    1       24.020 -30.867   9.645  0.00  0.00    +0.338 C 
ATOM     29  O   LIG    1       22.859 -30.848   9.269  0.00  0.00    -0.245 OA
BRANCH  28  30
ATOM     30  O   LIG    1       25.097 -30.795   8.853  0.00  0.00    -0.460 OA
BRANCH  30  31
ATOM     31  C   LIG    1       25.496 -29.480   8.446  0.00  0.00    +0.251 C 
BRANCH  31  32
ATOM     32  C   LIG    1       24.467 -28.872   7.480  0.00  0.00    +0.146 C 
BRANCH  32  33
ATOM     33  N   LIG    1       24.794 -29.185   6.070  0.00  0.00    -0.322 N 
BRANCH  33  34
ATOM     34  C   LIG    1       24.807 -30.537   5.691  0.00  0.00    +0.030 A 
ATOM     35  C   LIG    1       25.927 -31.122   5.063  0.00  0.00    +0.023 A 
ATOM     36  C   LIG    1       25.939 -32.458   4.632  0.00  0.00    +0.002 A 
ATOM     37  C   LIG    1       24.837 -33.273   4.850  0.00  0.00    +0.000 A 
ATOM     38  C   LIG    1       23.740 -32.754   5.522  0.00  0.00    +0.002 A 
ATOM     39  C   LIG    1       23.733 -31.412   5.932  0.00  0.00    +0.023 A 
ENDBRANCH  33  34
BRANCH  33  40
ATOM     40  C   LIG    1       25.629 -28.192   5.360  0.00  0.00    +0.140 C 
BRANCH  40  41
ATOM     41  C   LIG    1       25.321 -26.768   5.782  0.00  0.00    -0.030 A 
ATOM     42  C   LIG    1       24.014 -26.262   5.683  0.00  0.00    +0.005 A 
ATOM     43  C   LIG    1       23.714 -24.976   6.135  0.00  0.00    +0.000 A 
ATOM     44  C   LIG    1       24.707 -24.194   6.722  0.00  0.00    +0.000 A 
ATOM     45  C   LIG    1       26.010 -24.679   6.818  0.00  0.00    +0.000 A 
ATOM     46  C   LIG    1       26.322 -25.946   6.324  0.00  0.00    +0.005 A 
ENDBRANCH  40  41
ENDBRANCH  33  40
ENDBRANCH  32  33
ENDBRANCH  31  32
ENDBRANCH  30  31
ENDBRANCH  28  30
ENDBRANCH   9  28
TORSDOF 11
ENDMDL
MODEL 7
REMARK VINA RESULT:      -6.4      1.144      3.620
REMARK  Name = *****
REMARK                            x       y       z     vdW  Elec       q    Type
REMARK                         _______ _______ _______ _____ _____    ______ ____
ROOT
ATOM      1  C   LIG    1       28.593 -29.502  11.666  0.00  0.00    +0.061 C 
ATOM      2  C   LIG    1       27.204 -29.676  12.218  0.00  0.00    +0.016 C 
ATOM      3  N   LIG    1       27.114 -30.200  13.503  0.00  0.00    -0.321 N 
ATOM      4  H   LIG    1       27.987 -30.501  13.934  0.00  0.00    +0.152 HD
ATOM      5  C   LIG    1       25.947 -30.770  14.001  0.00  0.00    +0.017 C 
ATOM      6  C   LIG    1       26.115 -31.675  15.188  0.00  0.00    +0.061 C 
ATOM      7  C   LIG    1       24.762 -30.498  13.401  0.00  0.00    +0.070 C 
ATOM      8  C   LIG    1       24.726 -29.438  12.302  0.00  0.00    +0.097 C 
ATOM      9  C   LIG    1       26.057 -29.363  11.565  0.00  0.00    +0.065 C 
ENDROOT
BRANCH   7  10
ATOM     10  P   LIG    1       23.209 -31.226  13.753  0.00  0.00    +0.362 P 
ATOM     11  O   LIG    1       22.285 -31.028  12.432  0.00  0.00    -0.304 OA
ATOM     12  C   LIG    1       22.656 -31.666  11.222  0.00  0.00    +0.179 C 
ATOM     13  C   LIG    1       22.721 -33.185  11.389  0.00  0.00    +0.013 C 
ATOM     14  C   LIG    1       21.323 -33.731  11.731  0.00  0.00    +0.015 C 
ATOM     15  C   LIG    1       23.205 -33.825  10.080  0.00  0.00    +0.015 C 
ATOM     16  C   LIG    1       23.712 -33.503  12.517  0.00  0.00    +0.179 C 
ATOM     17  O   LIG    1       23.378 -32.841  13.721  0.00  0.00    -0.304 OA
ATOM     18  O   LIG    1       22.440 -30.823  14.982  0.00  0.00    -0.253 OA
ENDBRANCH   7  10
BRANCH   8  19
ATOM     19  C   LIG    1       24.289 -28.068  12.843  0.00  0.00    -0.029 A 
ATOM     20  C   LIG    1       25.244 -27.115  13.240  0.00  0.00    +0.088 A 
ATOM     21  C   LIG    1       24.829 -25.867  13.739  0.00  0.00    +0.273 A 
ATOM     22  C   LIG    1       23.469 -25.548  13.837  0.00  0.00    +0.084 A 
ATOM     23  C   LIG    1       22.520 -26.487  13.445  0.00  0.00    +0.007 A 
ATOM     24  C   LIG    1       22.927 -27.731  12.959  0.00  0.00    +0.005 A 
BRANCH  21  25
ATOM     25  N   LIG    1       25.827 -24.885  14.182  0.00  0.00    +0.080 N 
ATOM     26  O   LIG    1       26.941 -24.904  13.636  0.00  0.00    -0.576 OA
ATOM     27  O   LIG    1       25.504 -24.100  15.086  0.00  0.00    +0.041 OA
ENDBRANCH  21  25
ENDBRANCH   8  19
BRANCH   9  28
ATOM     28  C   LIG    1       25.935 -29.069  10.131  0.00  0.00    +0.338 C 
ATOM     29  O   LIG    1       26.621 -28.226   9.576  0.00  0.00    -0.245 OA
BRANCH  28  30
ATOM     30  O   LIG    1       24.851 -29.659   9.611  0.00  0.00    -0.460 OA
BRANCH  30  31
ATOM     31  C   LIG    1       25.089 -30.818   8.802  0.00  0.00    +0.251 C 
BRANCH  31  32
ATOM     32  C   LIG    1       26.212 -30.553   7.787  0.00  0.00    +0.146 C 
BRANCH  32  33
ATOM     33  N   LIG    1       25.673 -30.329   6.426  0.00  0.00    -0.322 N 
BRANCH  33  34
ATOM     34  C   LIG    1       25.434 -29.003   6.032  0.00  0.00    +0.030 A 
ATOM     35  C   LIG    1       26.222 -28.366   5.051  0.00  0.00    +0.023 A 
ATOM     36  C   LIG    1       26.029 -27.024   4.681  0.00  0.00    +0.002 A 
ATOM     37  C   LIG    1       25.010 -26.280   5.257  0.00  0.00    +0.000 A 
ATOM     38  C   LIG    1       24.172 -26.889   6.180  0.00  0.00    +0.002 A 
ATOM     39  C   LIG    1       24.385 -28.224   6.554  0.00  0.00    +0.023 A 
ENDBRANCH  33  34
BRANCH  33  40
ATOM     40  C   LIG    1       24.894 -31.443   5.844  0.00  0.00    +0.140 C 
BRANCH  40  41
ATOM     41  C   LIG    1       25.717 -32.294   4.895  0.00  0.00    -0.030 A 
ATOM     42  C   LIG    1       25.436 -32.301   3.518  0.00  0.00    +0.005 A 
ATOM     43  C   LIG    1       26.236 -33.027   2.635  0.00  0.00    +0.000 A 
ATOM     44  C   LIG    1       27.344 -33.727   3.110  0.00  0.00    +0.000 A 
ATOM     45  C   LIG    1       27.628 -33.737   4.474  0.00  0.00    +0.000 A 
ATOM     46  C   LIG    1       26.803 -33.049   5.365  0.00  0.00    +0.005 A 
ENDBRANCH  40  41
ENDBRANCH  33  40
ENDBRANCH  32  33
ENDBRANCH  31  32
ENDBRANCH  30  31
ENDBRANCH  28  30
ENDBRANCH   9  28
TORSDOF 11
ENDMDL
MODEL 8
REMARK VINA RESULT:      -6.0      2.594      5.613
REMARK  Name = *****
REMARK                            x       y       z     vdW  Elec       q    Type
REMARK                         _______ _______ _______ _____ _____    ______ ____
ROOT
ATOM      1  C   LIG    1       25.725 -31.271   6.198  0.00  0.00    +0.061 C 
ATOM      2  C   LIG    1       25.301 -31.130   7.634  0.00  0.00    +0.016 C 
ATOM      3  N   LIG    1       25.324 -32.291   8.399  0.00  0.00    -0.321 N 
ATOM      4  H   LIG    1       25.545 -33.155   7.907  0.00  0.00    +0.152 HD
ATOM      5  C   LIG    1       24.621 -32.418   9.593  0.00  0.00    +0.017 C 
ATOM      6  C   LIG    1       24.374 -33.824  10.061  0.00  0.00    +0.061 C 
ATOM      7  C   LIG    1       24.198 -31.304  10.241  0.00  0.00    +0.070 C 
ATOM      8  C   LIG    1       24.660 -29.942   9.727  0.00  0.00    +0.097 C 
ATOM      9  C   LIG    1       24.906 -29.974   8.224  0.00  0.00    +0.065 C 
ENDROOT
BRANCH   7  10
ATOM     10  P   LIG    1       23.167 -31.232  11.655  0.00  0.00    +0.362 P 
ATOM     11  O   LIG    1       21.891 -30.309  11.261  0.00  0.00    -0.304 OA
ATOM     12  C   LIG    1       20.999 -30.750  10.251  0.00  0.00    +0.179 C 
ATOM     13  C   LIG    1       20.369 -32.096  10.613  0.00  0.00    +0.013 C 
ATOM     14  C   LIG    1       19.512 -31.946  11.882  0.00  0.00    +0.015 C 
ATOM     15  C   LIG    1       19.477 -32.572   9.457  0.00  0.00    +0.015 C 
ATOM     16  C   LIG    1       21.498 -33.109  10.843  0.00  0.00    +0.179 C 
ATOM     17  O   LIG    1       22.421 -32.665  11.820  0.00  0.00    -0.304 OA
ATOM     18  O   LIG    1       23.725 -30.798  12.983  0.00  0.00    -0.253 OA
ENDBRANCH   7  10
BRANCH   8  19
ATOM     19  C   LIG    1       25.881 -29.422  10.501  0.00  0.00    -0.029 A 
ATOM     20  C   LIG    1       25.744 -28.397  11.454  0.00  0.00    +0.088 A 
ATOM     21  C   LIG    1       26.872 -27.926  12.150  0.00  0.00    +0.273 A 
ATOM     22  C   LIG    1       28.139 -28.475  11.920  0.00  0.00    +0.084 A 
ATOM     23  C   LIG    1       28.281 -29.490  10.979  0.00  0.00    +0.007 A 
ATOM     24  C   LIG    1       27.166 -29.953  10.278  0.00  0.00    +0.005 A 
BRANCH  21  25
ATOM     25  N   LIG    1       26.731 -26.834  13.122  0.00  0.00    +0.080 N 
ATOM     26  O   LIG    1       26.939 -25.676  12.728  0.00  0.00    -0.576 OA
ATOM     27  O   LIG    1       26.424 -27.132  14.286  0.00  0.00    +0.041 OA
ENDBRANCH  21  25
ENDBRANCH   8  19
BRANCH   9  28
ATOM     28  C   LIG    1       24.555 -28.729   7.530  0.00  0.00    +0.338 C 
ATOM     29  O   LIG    1       23.518 -28.603   6.898  0.00  0.00    -0.245 OA
BRANCH  28  30
ATOM     30  O   LIG    1       25.596 -27.887   7.496  0.00  0.00    -0.460 OA
BRANCH  30  31
ATOM     31  C   LIG    1       25.429 -26.706   6.702  0.00  0.00    +0.251 C 
BRANCH  31  32
ATOM     32  C   LIG    1       26.034 -25.484   7.409  0.00  0.00    +0.146 C 
BRANCH  32  33
ATOM     33  N   LIG    1       25.676 -24.224   6.718  0.00  0.00    -0.322 N 
BRANCH  33  34
ATOM     34  C   LIG    1       26.142 -23.022   7.276  0.00  0.00    +0.030 A 
ATOM     35  C   LIG    1       25.474 -22.393   8.348  0.00  0.00    +0.023 A 
ATOM     36  C   LIG    1       25.896 -21.166   8.885  0.00  0.00    +0.002 A 
ATOM     37  C   LIG    1       27.031 -20.540   8.390  0.00  0.00    +0.000 A 
ATOM     38  C   LIG    1       27.753 -21.158   7.380  0.00  0.00    +0.002 A 
ATOM     39  C   LIG    1       27.312 -22.375   6.839  0.00  0.00    +0.023 A 
ENDBRANCH  33  34
BRANCH  33  40
ATOM     40  C   LIG    1       24.438 -24.253   5.912  0.00  0.00    +0.140 C 
BRANCH  40  41
ATOM     41  C   LIG    1       23.960 -22.865   5.530  0.00  0.00    -0.030 A 
ATOM     42  C   LIG    1       22.973 -22.217   6.292  0.00  0.00    +0.005 A 
ATOM     43  C   LIG    1       22.582 -20.912   5.985  0.00  0.00    +0.000 A 
ATOM     44  C   LIG    1       23.195 -20.229   4.937  0.00  0.00    +0.000 A 
ATOM     45  C   LIG    1       24.168 -20.862   4.167  0.00  0.00    +0.000 A 
ATOM     46  C   LIG    1       24.527 -22.182   4.443  0.00  0.00    +0.005 A 
ENDBRANCH  40  41
ENDBRANCH  33  40
ENDBRANCH  32  33
ENDBRANCH  31  32
ENDBRANCH  30  31
ENDBRANCH  28  30
ENDBRANCH   9  28
TORSDOF 11
ENDMDL
MODEL 9
REMARK VINA RESULT:      -5.7      3.399      8.256
REMARK  Name = *****
REMARK                            x       y       z     vdW  Elec       q    Type
REMARK                         _______ _______ _______ _____ _____    ______ ____
ROOT
ATOM      1  C   LIG    1       23.288 -28.124   5.549  0.00  0.00    +0.061 C 
ATOM      2  C   LIG    1       24.090 -29.053   6.419  0.00  0.00    +0.016 C 
ATOM      3  N   LIG    1       23.362 -29.897   7.252  0.00  0.00    -0.321 N 
ATOM      4  H   LIG    1       22.353 -29.762   7.267  0.00  0.00    +0.152 HD
ATOM      5  C   LIG    1       23.923 -30.522   8.361  0.00  0.00    +0.017 C 
ATOM      6  C   LIG    1       22.950 -31.018   9.393  0.00  0.00    +0.061 C 
ATOM      7  C   LIG    1       25.271 -30.633   8.457  0.00  0.00    +0.070 C 
ATOM      8  C   LIG    1       26.123 -30.222   7.257  0.00  0.00    +0.097 C 
ATOM      9  C   LIG    1       25.444 -29.124   6.449  0.00  0.00    +0.065 C 
ENDROOT
BRANCH   7  10
ATOM     10  P   LIG    1       26.187 -31.227   9.825  0.00  0.00    +0.362 P 
ATOM     11  O   LIG    1       27.529 -30.317   9.924  0.00  0.00    -0.304 OA
ATOM     12  C   LIG    1       27.412 -28.934  10.208  0.00  0.00    +0.179 C 
ATOM     13  C   LIG    1       26.720 -28.697  11.552  0.00  0.00    +0.013 C 
ATOM     14  C   LIG    1       27.577 -29.281  12.689  0.00  0.00    +0.015 C 
ATOM     15  C   LIG    1       26.542 -27.189  11.779  0.00  0.00    +0.015 C 
ATOM     16  C   LIG    1       25.346 -29.379  11.511  0.00  0.00    +0.179 C 
ATOM     17  O   LIG    1       25.442 -30.752  11.188  0.00  0.00    -0.304 OA
ATOM     18  O   LIG    1       26.546 -32.684   9.927  0.00  0.00    -0.253 OA
ENDBRANCH   7  10
BRANCH   8  19
ATOM     19  C   LIG    1       26.504 -31.429   6.386  0.00  0.00    -0.029 A 
ATOM     20  C   LIG    1       25.840 -31.674   5.171  0.00  0.00    +0.088 A 
ATOM     21  C   LIG    1       26.195 -32.787   4.387  0.00  0.00    +0.273 A 
ATOM     22  C   LIG    1       27.217 -33.655   4.790  0.00  0.00    +0.084 A 
ATOM     23  C   LIG    1       27.879 -33.415   5.991  0.00  0.00    +0.007 A 
ATOM     24  C   LIG    1       27.522 -32.319   6.778  0.00  0.00    +0.005 A 
BRANCH  21  25
ATOM     25  N   LIG    1       25.479 -33.060   3.134  0.00  0.00    +0.080 N 
ATOM     26  O   LIG    1       26.002 -32.685   2.073  0.00  0.00    -0.576 OA
ATOM     27  O   LIG    1       24.386 -33.640   3.207  0.00  0.00    +0.041 OA
ENDBRANCH  21  25
ENDBRANCH   8  19
BRANCH   9  28
ATOM     28  C   LIG    1       26.371 -28.145   5.866  0.00  0.00    +0.338 C 
ATOM     29  O   LIG    1       27.028 -28.383   4.865  0.00  0.00    -0.245 OA
BRANCH  28  30
ATOM     30  O   LIG    1       26.556 -27.108   6.692  0.00  0.00    -0.460 OA
BRANCH  30  31
ATOM     31  C   LIG    1       26.276 -25.811   6.150  0.00  0.00    +0.251 C 
BRANCH  31  32
ATOM     32  C   LIG    1       25.614 -24.911   7.206  0.00  0.00    +0.146 C 
BRANCH  32  33
ATOM     33  N   LIG    1       25.339 -23.558   6.671  0.00  0.00    -0.322 N 
BRANCH  33  34
ATOM     34  C   LIG    1       26.039 -22.480   7.239  0.00  0.00    +0.030 A 
ATOM     35  C   LIG    1       25.488 -21.702   8.278  0.00  0.00    +0.023 A 
ATOM     36  C   LIG    1       26.152 -20.590   8.822  0.00  0.00    +0.002 A 
ATOM     37  C   LIG    1       27.416 -20.240   8.369  0.00  0.00    +0.000 A 
ATOM     38  C   LIG    1       28.019 -21.019   7.393  0.00  0.00    +0.002 A 
ATOM     39  C   LIG    1       27.339 -22.116   6.844  0.00  0.00    +0.023 A 
ENDBRANCH  33  34
BRANCH  33  40
ATOM     40  C   LIG    1       24.007 -23.357   6.062  0.00  0.00    +0.140 C 
BRANCH  40  41
ATOM     41  C   LIG    1       23.837 -21.967   5.481  0.00  0.00    -0.030 A 
ATOM     42  C   LIG    1       24.580 -21.569   4.356  0.00  0.00    +0.005 A 
ATOM     43  C   LIG    1       24.374 -20.316   3.777  0.00  0.00    +0.000 A 
ATOM     44  C   LIG    1       23.403 -19.459   4.293  0.00  0.00    +0.000 A 
ATOM     45  C   LIG    1       22.666 -19.837   5.413  0.00  0.00    +0.000 A 
ATOM     46  C   LIG    1       22.902 -21.070   6.022  0.00  0.00    +0.005 A 
ENDBRANCH  40  41
ENDBRANCH  33  40
ENDBRANCH  32  33
ENDBRANCH  31  32
ENDBRANCH  30  31
ENDBRANCH  28  30
ENDBRANCH   9  28
TORSDOF 11
ENDMDL
