MODEL 1
REMARK VINA RESULT:      -9.3      0.000      0.000
REMARK  Name = *****
REMARK                            x       y       z     vdW  Elec       q    Type
REMARK                         _______ _______ _______ _____ _____    ______ ____
ROOT
ATOM      1  C   LIG    1       24.195 -20.105   4.987  0.00  0.00    +0.065 C 
ATOM      2  C   LIG    1       24.634 -20.731   6.320  0.00  0.00    +0.096 C 
ATOM      3  C   LIG    1       26.104 -20.465   6.663  0.00  0.00    +0.065 C 
ATOM      4  C   LIG    1       26.952 -19.989   5.719  0.00  0.00    +0.016 C 
ATOM      5  C   LIG    1       28.432 -19.752   5.894  0.00  0.00    +0.061 C 
ATOM      6  N   LIG    1       26.461 -19.657   4.467  0.00  0.00    -0.321 N 
ATOM      7  H   LIG    1       27.105 -19.180   3.839  0.00  0.00    +0.152 HD
ATOM      8  C   LIG    1       25.116 -19.603   4.129  0.00  0.00    +0.016 C 
ATOM      9  C   LIG    1       24.839 -18.938   2.801  0.00  0.00    +0.061 C 
ENDROOT
BRANCH   2  10
ATOM     10  C   LIG    1       24.301 -22.234   6.360  0.00  0.00    -0.029 A 
ATOM     11  C   LIG    1       25.201 -23.195   5.871  0.00  0.00    +0.088 A 
ATOM     12  C   LIG    1       24.870 -24.558   5.922  0.00  0.00    +0.273 A 
ATOM     13  C   LIG    1       23.656 -24.983   6.476  0.00  0.00    +0.084 A 
ATOM     14  C   LIG    1       22.757 -24.035   6.956  0.00  0.00    +0.007 A 
ATOM     15  C   LIG    1       23.071 -22.674   6.888  0.00  0.00    +0.005 A 
BRANCH  12  16
ATOM     16  N   LIG    1       25.803 -25.553   5.378  0.00  0.00    +0.080 N 
ATOM     17  O   LIG    1       26.743 -25.918   6.098  0.00  0.00    -0.576 OA
ATOM     18  O   LIG    1       25.597 -25.969   4.229  0.00  0.00    +0.041 OA
ENDBRANCH  12  16
ENDBRANCH   2  10
BRANCH   1  19
ATOM     19  C   LIG    1       22.724 -20.035   4.734  0.00  0.00    +0.337 C 
ATOM     20  O   LIG    1       22.030 -20.938   4.320  0.00  0.00    -0.245 OA
BRANCH  19  22
ATOM     21  C   LIG    1       21.492 -18.133   4.039  0.00  0.00    +0.280 C 
ATOM     22  O   LIG    1       22.292 -18.779   5.027  0.00  0.00    -0.465 OA
ENDBRANCH  19  22
ENDBRANCH   1  19
BRANCH   3  23
ATOM     23  C   LIG    1       26.425 -20.667   8.103  0.00  0.00    +0.338 C 
ATOM     24  O   LIG    1       25.575 -20.729   8.981  0.00  0.00    -0.245 OA
BRANCH  23  25
ATOM     25  O   LIG    1       27.756 -20.681   8.321  0.00  0.00    -0.460 OA
BRANCH  25  26
ATOM     26  C   LIG    1       28.427 -21.932   8.124  0.00  0.00    +0.247 C 
BRANCH  26  27
ATOM     27  C   LIG    1       29.928 -21.699   7.908  0.00  0.00    +0.125 C 
BRANCH  27  28
ATOM     28  N   LIG    1       30.588 -20.829   8.898  0.00  0.00    -0.298 NA
ATOM     29  C   LIG    1       31.592 -21.628   9.616  0.00  0.00    +0.105 C 
BRANCH  28  30
ATOM     30  C   LIG    1       31.187 -19.632   8.272  0.00  0.00    +0.119 C 
BRANCH  30  31
ATOM     31  C   LIG    1       31.296 -18.418   9.174  0.00  0.00    -0.033 A 
ATOM     32  C   LIG    1       30.397 -18.205  10.230  0.00  0.00    +0.005 A 
ATOM     33  C   LIG    1       30.525 -17.096  11.063  0.00  0.00    +0.000 A 
ATOM     34  C   LIG    1       31.527 -16.159  10.822  0.00  0.00    +0.000 A 
ATOM     35  C   LIG    1       32.401 -16.333   9.750  0.00  0.00    +0.000 A 
ATOM     36  C   LIG    1       32.284 -17.455   8.926  0.00  0.00    +0.005 A 
ENDBRANCH  30  31
ENDBRANCH  28  30
ENDBRANCH  27  28
ENDBRANCH  26  27
ENDBRANCH  25  26
ENDBRANCH  23  25
ENDBRANCH   3  23
TORSDOF 11
ENDMDL
MODEL 2
REMARK VINA RESULT:      -8.9      3.264      7.794
REMARK  Name = *****
REMARK                            x       y       z     vdW  Elec       q    Type
REMARK                         _______ _______ _______ _____ _____    ______ ____
ROOT
ATOM      1  C   LIG    1       24.478 -20.241   4.565  0.00  0.00    +0.065 C 
ATOM      2  C   LIG    1       25.330 -21.356   5.190  0.00  0.00    +0.096 C 
ATOM      3  C   LIG    1       24.499 -22.448   5.872  0.00  0.00    +0.065 C 
ATOM      4  C   LIG    1       23.184 -22.247   6.131  0.00  0.00    +0.016 C 
ATOM      5  C   LIG    1       22.267 -23.199   6.859  0.00  0.00    +0.061 C 
ATOM      6  N   LIG    1       22.574 -21.084   5.692  0.00  0.00    -0.321 N 
ATOM      7  H   LIG    1       21.562 -21.037   5.790  0.00  0.00    +0.152 HD
ATOM      8  C   LIG    1       23.154 -20.154   4.840  0.00  0.00    +0.016 C 
ATOM      9  C   LIG    1       22.186 -19.135   4.285  0.00  0.00    +0.061 C 
ENDROOT
BRANCH   2  10
ATOM     10  C   LIG    1       26.394 -20.770   6.138  0.00  0.00    -0.029 A 
ATOM     11  C   LIG    1       27.579 -20.202   5.643  0.00  0.00    +0.088 A 
ATOM     12  C   LIG    1       28.530 -19.674   6.531  0.00  0.00    +0.273 A 
ATOM     13  C   LIG    1       28.307 -19.687   7.914  0.00  0.00    +0.084 A 
ATOM     14  C   LIG    1       27.138 -20.256   8.410  0.00  0.00    +0.007 A 
ATOM     15  C   LIG    1       26.197 -20.802   7.532  0.00  0.00    +0.005 A 
BRANCH  12  16
ATOM     16  N   LIG    1       29.781 -19.112   6.006  0.00  0.00    +0.080 N 
ATOM     17  O   LIG    1       29.699 -18.180   5.195  0.00  0.00    -0.576 OA
ATOM     18  O   LIG    1       30.847 -19.604   6.404  0.00  0.00    +0.041 OA
ENDBRANCH  12  16
ENDBRANCH   2  10
BRANCH   1  19
ATOM     19  C   LIG    1       25.174 -19.322   3.613  0.00  0.00    +0.337 C 
ATOM     20  O   LIG    1       25.782 -19.655   2.620  0.00  0.00    -0.245 OA
BRANCH  19  22
ATOM     21  C   LIG    1       25.759 -17.039   3.358  0.00  0.00    +0.280 C 
ATOM     22  O   LIG    1       25.029 -18.045   4.057  0.00  0.00    -0.465 OA
ENDBRANCH  19  22
ENDBRANCH   1  19
BRANCH   3  23
ATOM     23  C   LIG    1       25.247 -23.718   6.086  0.00  0.00    +0.338 C 
ATOM     24  O   LIG    1       25.845 -23.982   7.121  0.00  0.00    -0.245 OA
BRANCH  23  25
ATOM     25  O   LIG    1       25.255 -24.487   4.978  0.00  0.00    -0.460 OA
BRANCH  25  26
ATOM     26  C   LIG    1       25.498 -25.887   5.168  0.00  0.00    +0.247 C 
BRANCH  26  27
ATOM     27  C   LIG    1       24.229 -26.579   5.682  0.00  0.00    +0.125 C 
BRANCH  27  28
ATOM     28  N   LIG    1       24.431 -27.901   6.304  0.00  0.00    -0.298 NA
ATOM     29  C   LIG    1       24.408 -28.918   5.243  0.00  0.00    +0.105 C 
BRANCH  28  30
ATOM     30  C   LIG    1       25.681 -27.958   7.089  0.00  0.00    +0.119 C 
BRANCH  30  31
ATOM     31  C   LIG    1       25.582 -28.702   8.407  0.00  0.00    -0.033 A 
ATOM     32  C   LIG    1       26.533 -28.524   9.424  0.00  0.00    +0.005 A 
ATOM     33  C   LIG    1       26.415 -29.199  10.637  0.00  0.00    +0.000 A 
ATOM     34  C   LIG    1       25.369 -30.097  10.832  0.00  0.00    +0.000 A 
ATOM     35  C   LIG    1       24.442 -30.320   9.815  0.00  0.00    +0.000 A 
ATOM     36  C   LIG    1       24.550 -29.629   8.606  0.00  0.00    +0.005 A 
ENDBRANCH  30  31
ENDBRANCH  28  30
ENDBRANCH  27  28
ENDBRANCH  26  27
ENDBRANCH  25  26
ENDBRANCH  23  25
ENDBRANCH   3  23
TORSDOF 11
ENDMDL
MODEL 3
REMARK VINA RESULT:      -8.8      5.538      9.825
REMARK  Name = *****
REMARK                            x       y       z     vdW  Elec       q    Type
REMARK                         _______ _______ _______ _____ _____    ______ ____
ROOT
ATOM      1  C   LIG    1       23.738 -30.947   8.821  0.00  0.00    +0.065 C 
ATOM      2  C   LIG    1       24.451 -29.590   8.721  0.00  0.00    +0.096 C 
ATOM      3  C   LIG    1       24.974 -29.279   7.314  0.00  0.00    +0.065 C 
ATOM      4  C   LIG    1       25.042 -30.256   6.377  0.00  0.00    +0.016 C 
ATOM      5  C   LIG    1       25.601 -30.112   4.983  0.00  0.00    +0.061 C 
ATOM      6  N   LIG    1       24.549 -31.517   6.671  0.00  0.00    -0.321 N 
ATOM      7  H   LIG    1       24.499 -32.177   5.898  0.00  0.00    +0.152 HD
ATOM      8  C   LIG    1       23.818 -31.840   7.806  0.00  0.00    +0.016 C 
ATOM      9  C   LIG    1       23.154 -33.196   7.748  0.00  0.00    +0.061 C 
ENDROOT
BRANCH   2  10
ATOM     10  C   LIG    1       25.561 -29.470   9.783  0.00  0.00    -0.029 A 
ATOM     11  C   LIG    1       25.390 -28.680  10.930  0.00  0.00    +0.088 A 
ATOM     12  C   LIG    1       26.418 -28.591  11.882  0.00  0.00    +0.273 A 
ATOM     13  C   LIG    1       27.615 -29.300  11.716  0.00  0.00    +0.084 A 
ATOM     14  C   LIG    1       27.792 -30.080  10.577  0.00  0.00    +0.007 A 
ATOM     15  C   LIG    1       26.780 -30.155   9.615  0.00  0.00    +0.005 A 
BRANCH  12  16
ATOM     16  N   LIG    1       26.245 -27.735  13.063  0.00  0.00    +0.080 N 
ATOM     17  O   LIG    1       27.264 -27.348  13.651  0.00  0.00    -0.576 OA
ATOM     18  O   LIG    1       25.087 -27.452  13.405  0.00  0.00    +0.041 OA
ENDBRANCH  12  16
ENDBRANCH   2  10
BRANCH   1  19
ATOM     19  C   LIG    1       22.924 -31.184  10.052  0.00  0.00    +0.337 C 
ATOM     20  O   LIG    1       23.309 -31.722  11.067  0.00  0.00    -0.245 OA
BRANCH  19  22
ATOM     21  C   LIG    1       20.638 -31.237  10.676  0.00  0.00    +0.280 C 
ATOM     22  O   LIG    1       21.666 -30.713   9.838  0.00  0.00    -0.465 OA
ENDBRANCH  19  22
ENDBRANCH   1  19
BRANCH   3  23
ATOM     23  C   LIG    1       25.261 -27.835   7.091  0.00  0.00    +0.338 C 
ATOM     24  O   LIG    1       26.251 -27.268   7.536  0.00  0.00    -0.245 OA
BRANCH  23  25
ATOM     25  O   LIG    1       24.260 -27.223   6.425  0.00  0.00    -0.460 OA
BRANCH  25  26
ATOM     26  C   LIG    1       24.580 -25.981   5.783  0.00  0.00    +0.247 C 
BRANCH  26  27
ATOM     27  C   LIG    1       23.818 -24.830   6.451  0.00  0.00    +0.125 C 
BRANCH  27  28
ATOM     28  N   LIG    1       24.534 -23.543   6.514  0.00  0.00    -0.298 NA
ATOM     29  C   LIG    1       25.789 -23.749   7.253  0.00  0.00    +0.105 C 
BRANCH  28  30
ATOM     30  C   LIG    1       24.777 -22.977   5.171  0.00  0.00    +0.119 C 
BRANCH  30  31
ATOM     31  C   LIG    1       24.176 -21.607   4.929  0.00  0.00    -0.033 A 
ATOM     32  C   LIG    1       24.749 -20.703   4.021  0.00  0.00    +0.005 A 
ATOM     33  C   LIG    1       24.170 -19.456   3.795  0.00  0.00    +0.000 A 
ATOM     34  C   LIG    1       23.036 -19.077   4.507  0.00  0.00    +0.000 A 
ATOM     35  C   LIG    1       22.480 -19.945   5.446  0.00  0.00    +0.000 A 
ATOM     36  C   LIG    1       23.049 -21.203   5.660  0.00  0.00    +0.005 A 
ENDBRANCH  30  31
ENDBRANCH  28  30
ENDBRANCH  27  28
ENDBRANCH  26  27
ENDBRANCH  25  26
ENDBRANCH  23  25
ENDBRANCH   3  23
TORSDOF 11
ENDMDL
MODEL 4
REMARK VINA RESULT:      -8.7      3.650      8.667
REMARK  Name = *****
REMARK                            x       y       z     vdW  Elec       q    Type
REMARK                         _______ _______ _______ _____ _____    ______ ____
ROOT
ATOM      1  C   LIG    1       24.507 -20.344   4.590  0.00  0.00    +0.065 C 
ATOM      2  C   LIG    1       25.377 -21.434   5.235  0.00  0.00    +0.096 C 
ATOM      3  C   LIG    1       24.563 -22.527   5.936  0.00  0.00    +0.065 C 
ATOM      4  C   LIG    1       23.245 -22.343   6.191  0.00  0.00    +0.016 C 
ATOM      5  C   LIG    1       22.343 -23.296   6.935  0.00  0.00    +0.061 C 
ATOM      6  N   LIG    1       22.616 -21.197   5.732  0.00  0.00    -0.321 N 
ATOM      7  H   LIG    1       21.603 -21.165   5.829  0.00  0.00    +0.152 HD
ATOM      8  C   LIG    1       23.182 -20.273   4.865  0.00  0.00    +0.016 C 
ATOM      9  C   LIG    1       22.198 -19.280   4.291  0.00  0.00    +0.061 C 
ENDROOT
BRANCH   2  10
ATOM     10  C   LIG    1       26.431 -20.816   6.172  0.00  0.00    -0.029 A 
ATOM     11  C   LIG    1       27.610 -20.243   5.668  0.00  0.00    +0.088 A 
ATOM     12  C   LIG    1       28.552 -19.686   6.547  0.00  0.00    +0.273 A 
ATOM     13  C   LIG    1       28.326 -19.671   7.929  0.00  0.00    +0.084 A 
ATOM     14  C   LIG    1       27.162 -20.243   8.435  0.00  0.00    +0.007 A 
ATOM     15  C   LIG    1       26.230 -20.819   7.567  0.00  0.00    +0.005 A 
BRANCH  12  16
ATOM     16  N   LIG    1       29.798 -19.120   6.013  0.00  0.00    +0.080 N 
ATOM     17  O   LIG    1       30.868 -19.588   6.426  0.00  0.00    -0.576 OA
ATOM     18  O   LIG    1       29.707 -18.204   5.183  0.00  0.00    +0.041 OA
ENDBRANCH  12  16
ENDBRANCH   2  10
BRANCH   1  19
ATOM     19  C   LIG    1       25.188 -19.431   3.623  0.00  0.00    +0.337 C 
ATOM     20  O   LIG    1       25.714 -19.761   2.583  0.00  0.00    -0.245 OA
BRANCH  19  22
ATOM     21  C   LIG    1       25.854 -17.168   3.383  0.00  0.00    +0.280 C 
ATOM     22  O   LIG    1       25.138 -18.163   4.113  0.00  0.00    -0.465 OA
ENDBRANCH  19  22
ENDBRANCH   1  19
BRANCH   3  23
ATOM     23  C   LIG    1       25.331 -23.782   6.171  0.00  0.00    +0.338 C 
ATOM     24  O   LIG    1       26.000 -23.983   7.176  0.00  0.00    -0.245 OA
BRANCH  23  25
ATOM     25  O   LIG    1       25.266 -24.614   5.112  0.00  0.00    -0.460 OA
BRANCH  25  26
ATOM     26  C   LIG    1       24.544 -25.839   5.299  0.00  0.00    +0.247 C 
BRANCH  26  27
ATOM     27  C   LIG    1       25.426 -27.035   4.920  0.00  0.00    +0.125 C 
BRANCH  27  28
ATOM     28  N   LIG    1       25.549 -28.088   5.946  0.00  0.00    -0.298 NA
ATOM     29  C   LIG    1       25.804 -27.442   7.241  0.00  0.00    +0.105 C 
BRANCH  28  30
ATOM     30  C   LIG    1       24.354 -28.956   5.994  0.00  0.00    +0.119 C 
BRANCH  30  31
ATOM     31  C   LIG    1       24.629 -30.441   5.864  0.00  0.00    -0.033 A 
ATOM     32  C   LIG    1       23.817 -31.396   6.497  0.00  0.00    +0.005 A 
ATOM     33  C   LIG    1       24.072 -32.758   6.348  0.00  0.00    +0.000 A 
ATOM     34  C   LIG    1       25.169 -33.182   5.603  0.00  0.00    +0.000 A 
ATOM     35  C   LIG    1       26.010 -32.245   5.005  0.00  0.00    +0.000 A 
ATOM     36  C   LIG    1       25.745 -30.881   5.139  0.00  0.00    +0.005 A 
ENDBRANCH  30  31
ENDBRANCH  28  30
ENDBRANCH  27  28
ENDBRANCH  26  27
ENDBRANCH  25  26
ENDBRANCH  23  25
ENDBRANCH   3  23
TORSDOF 11
ENDMDL
MODEL 5
REMARK VINA RESULT:      -8.6      6.458     10.630
REMARK  Name = *****
REMARK                            x       y       z     vdW  Elec       q    Type
REMARK                         _______ _______ _______ _____ _____    ______ ____
ROOT
ATOM      1  C   LIG    1       23.760 -30.139  12.285  0.00  0.00    +0.065 C 
ATOM      2  C   LIG    1       24.808 -29.301  11.536  0.00  0.00    +0.096 C 
ATOM      3  C   LIG    1       25.569 -30.090  10.466  0.00  0.00    +0.065 C 
ATOM      4  C   LIG    1       25.500 -31.444  10.435  0.00  0.00    +0.016 C 
ATOM      5  C   LIG    1       26.251 -32.349   9.490  0.00  0.00    +0.061 C 
ATOM      6  N   LIG    1       24.664 -32.104  11.320  0.00  0.00    -0.321 N 
ATOM      7  H   LIG    1       24.544 -33.104  11.172  0.00  0.00    +0.152 HD
ATOM      8  C   LIG    1       23.735 -31.487  12.147  0.00  0.00    +0.016 C 
ATOM      9  C   LIG    1       22.756 -32.438  12.794  0.00  0.00    +0.061 C 
ENDROOT
BRANCH   2  10
ATOM     10  C   LIG    1       25.765 -28.606  12.523  0.00  0.00    -0.029 A 
ATOM     11  C   LIG    1       25.834 -27.206  12.610  0.00  0.00    +0.088 A 
ATOM     12  C   LIG    1       26.715 -26.601  13.520  0.00  0.00    +0.273 A 
ATOM     13  C   LIG    1       27.520 -27.375  14.365  0.00  0.00    +0.084 A 
ATOM     14  C   LIG    1       27.461 -28.764  14.278  0.00  0.00    +0.007 A 
ATOM     15  C   LIG    1       26.601 -29.372  13.359  0.00  0.00    +0.005 A 
BRANCH  12  16
ATOM     16  N   LIG    1       26.804 -25.136  13.581  0.00  0.00    +0.080 N 
ATOM     17  O   LIG    1       25.747 -24.491  13.543  0.00  0.00    -0.576 OA
ATOM     18  O   LIG    1       27.933 -24.630  13.665  0.00  0.00    +0.041 OA
ENDBRANCH  12  16
ENDBRANCH   2  10
BRANCH   1  19
ATOM     19  C   LIG    1       22.762 -29.386  13.103  0.00  0.00    +0.337 C 
ATOM     20  O   LIG    1       22.742 -29.316  14.313  0.00  0.00    -0.245 OA
BRANCH  19  22
ATOM     21  C   LIG    1       21.016 -27.807  12.830  0.00  0.00    +0.280 C 
ATOM     22  O   LIG    1       21.863 -28.805  12.265  0.00  0.00    -0.465 OA
ENDBRANCH  19  22
ENDBRANCH   1  19
BRANCH   3  23
ATOM     23  C   LIG    1       26.246 -29.228   9.459  0.00  0.00    +0.338 C 
ATOM     24  O   LIG    1       27.448 -28.995   9.470  0.00  0.00    -0.245 OA
BRANCH  23  25
ATOM     25  O   LIG    1       25.365 -28.673   8.601  0.00  0.00    -0.460 OA
BRANCH  25  26
ATOM     26  C   LIG    1       25.167 -29.352   7.354  0.00  0.00    +0.247 C 
BRANCH  26  27
ATOM     27  C   LIG    1       24.465 -28.426   6.353  0.00  0.00    +0.125 C 
BRANCH  27  28
ATOM     28  N   LIG    1       25.101 -27.112   6.144  0.00  0.00    -0.298 NA
ATOM     29  C   LIG    1       26.125 -27.258   5.099  0.00  0.00    +0.105 C 
BRANCH  28  30
ATOM     30  C   LIG    1       24.115 -26.067   5.800  0.00  0.00    +0.119 C 
BRANCH  30  31
ATOM     31  C   LIG    1       24.366 -24.711   6.431  0.00  0.00    -0.033 A 
ATOM     32  C   LIG    1       25.644 -24.330   6.869  0.00  0.00    +0.005 A 
ATOM     33  C   LIG    1       25.861 -23.072   7.426  0.00  0.00    +0.000 A 
ATOM     34  C   LIG    1       24.793 -22.194   7.596  0.00  0.00    +0.000 A 
ATOM     35  C   LIG    1       23.510 -22.575   7.208  0.00  0.00    +0.000 A 
ATOM     36  C   LIG    1       23.295 -23.829   6.632  0.00  0.00    +0.005 A 
ENDBRANCH  30  31
ENDBRANCH  28  30
ENDBRANCH  27  28
ENDBRANCH  26  27
ENDBRANCH  25  26
ENDBRANCH  23  25
ENDBRANCH   3  23
TORSDOF 11
ENDMDL
MODEL 6
REMARK VINA RESULT:      -8.1      5.083      9.177
REMARK  Name = *****
REMARK                            x       y       z     vdW  Elec       q    Type
REMARK                         _______ _______ _______ _____ _____    ______ ____
ROOT
ATOM      1  C   LIG    1       24.685 -31.043   6.176  0.00  0.00    +0.065 C 
ATOM      2  C   LIG    1       24.370 -29.661   6.770  0.00  0.00    +0.096 C 
ATOM      3  C   LIG    1       25.112 -28.515   6.073  0.00  0.00    +0.065 C 
ATOM      4  C   LIG    1       26.146 -28.777   5.238  0.00  0.00    +0.016 C 
ATOM      5  C   LIG    1       27.010 -27.751   4.546  0.00  0.00    +0.061 C 
ATOM      6  N   LIG    1       26.470 -30.092   4.945  0.00  0.00    -0.321 N 
ATOM      7  H   LIG    1       27.163 -30.237   4.214  0.00  0.00    +0.152 HD
ATOM      8  C   LIG    1       25.709 -31.196   5.302  0.00  0.00    +0.016 C 
ATOM      9  C   LIG    1       26.122 -32.478   4.618  0.00  0.00    +0.061 C 
ENDROOT
BRANCH   2  10
ATOM     10  C   LIG    1       24.601 -29.650   8.293  0.00  0.00    -0.029 A 
ATOM     11  C   LIG    1       25.862 -29.357   8.838  0.00  0.00    +0.088 A 
ATOM     12  C   LIG    1       26.042 -29.353  10.230  0.00  0.00    +0.273 A 
ATOM     13  C   LIG    1       24.972 -29.617  11.094  0.00  0.00    +0.084 A 
ATOM     14  C   LIG    1       23.722 -29.915  10.560  0.00  0.00    +0.007 A 
ATOM     15  C   LIG    1       23.541 -29.942   9.174  0.00  0.00    +0.005 A 
BRANCH  12  16
ATOM     16  N   LIG    1       27.372 -29.078  10.790  0.00  0.00    +0.080 N 
ATOM     17  O   LIG    1       28.247 -29.944  10.651  0.00  0.00    -0.576 OA
ATOM     18  O   LIG    1       27.540 -27.997  11.373  0.00  0.00    +0.041 OA
ENDBRANCH  12  16
ENDBRANCH   2  10
BRANCH   1  19
ATOM     19  C   LIG    1       23.776 -32.162   6.569  0.00  0.00    +0.337 C 
ATOM     20  O   LIG    1       23.885 -32.854   7.557  0.00  0.00    -0.245 OA
BRANCH  19  22
ATOM     21  C   LIG    1       22.658 -33.583   5.036  0.00  0.00    +0.280 C 
ATOM     22  O   LIG    1       22.810 -32.291   5.619  0.00  0.00    -0.465 OA
ENDBRANCH  19  22
ENDBRANCH   1  19
BRANCH   3  23
ATOM     23  C   LIG    1       24.508 -27.177   6.322  0.00  0.00    +0.338 C 
ATOM     24  O   LIG    1       23.439 -26.820   5.843  0.00  0.00    -0.245 OA
BRANCH  23  25
ATOM     25  O   LIG    1       25.321 -26.390   7.057  0.00  0.00    -0.460 OA
BRANCH  25  26
ATOM     26  C   LIG    1       25.865 -25.237   6.400  0.00  0.00    +0.247 C 
BRANCH  26  27
ATOM     27  C   LIG    1       25.472 -23.963   7.158  0.00  0.00    +0.125 C 
BRANCH  27  28
ATOM     28  N   LIG    1       24.490 -23.096   6.481  0.00  0.00    -0.298 NA
ATOM     29  C   LIG    1       23.142 -23.581   6.812  0.00  0.00    +0.105 C 
BRANCH  28  30
ATOM     30  C   LIG    1       24.663 -21.674   6.844  0.00  0.00    +0.119 C 
BRANCH  30  31
ATOM     31  C   LIG    1       24.196 -20.680   5.799  0.00  0.00    -0.033 A 
ATOM     32  C   LIG    1       22.902 -20.137   5.829  0.00  0.00    +0.005 A 
ATOM     33  C   LIG    1       22.496 -19.207   4.873  0.00  0.00    +0.000 A 
ATOM     34  C   LIG    1       23.364 -18.843   3.847  0.00  0.00    +0.000 A 
ATOM     35  C   LIG    1       24.637 -19.407   3.777  0.00  0.00    +0.000 A 
ATOM     36  C   LIG    1       25.051 -20.325   4.746  0.00  0.00    +0.005 A 
ENDBRANCH  30  31
ENDBRANCH  28  30
ENDBRANCH  27  28
ENDBRANCH  26  27
ENDBRANCH  25  26
ENDBRANCH  23  25
ENDBRANCH   3  23
TORSDOF 11
ENDMDL
MODEL 7
REMARK VINA RESULT:      -8.1      6.727     10.587
REMARK  Name = *****
REMARK                            x       y       z     vdW  Elec       q    Type
REMARK                         _______ _______ _______ _____ _____    ______ ____
ROOT
ATOM      1  C   LIG    1       23.881 -30.696  11.827  0.00  0.00    +0.065 C 
ATOM      2  C   LIG    1       24.782 -29.648  11.156  0.00  0.00    +0.096 C 
ATOM      3  C   LIG    1       25.460 -30.155   9.879  0.00  0.00    +0.065 C 
ATOM      4  C   LIG    1       25.470 -31.479   9.589  0.00  0.00    +0.016 C 
ATOM      5  C   LIG    1       26.160 -32.124   8.412  0.00  0.00    +0.061 C 
ATOM      6  N   LIG    1       24.784 -32.361  10.407  0.00  0.00    -0.321 N 
ATOM      7  H   LIG    1       24.708 -33.321  10.077  0.00  0.00    +0.152 HD
ATOM      8  C   LIG    1       23.922 -31.990  11.429  0.00  0.00    +0.016 C 
ATOM      9  C   LIG    1       23.083 -33.124  11.972  0.00  0.00    +0.061 C 
ENDROOT
BRANCH   2  10
ATOM     10  C   LIG    1       25.803 -29.076  12.158  0.00  0.00    -0.029 A 
ATOM     11  C   LIG    1       26.824 -29.877  12.696  0.00  0.00    +0.088 A 
ATOM     12  C   LIG    1       27.742 -29.328  13.606  0.00  0.00    +0.273 A 
ATOM     13  C   LIG    1       27.670 -27.979  13.974  0.00  0.00    +0.084 A 
ATOM     14  C   LIG    1       26.656 -27.182  13.448  0.00  0.00    +0.007 A 
ATOM     15  C   LIG    1       25.726 -27.728  12.558  0.00  0.00    +0.005 A 
BRANCH  12  16
ATOM     16  N   LIG    1       28.785 -30.181  14.190  0.00  0.00    +0.080 N 
ATOM     17  O   LIG    1       29.955 -29.991  13.829  0.00  0.00    -0.576 OA
ATOM     18  O   LIG    1       28.434 -31.043  15.008  0.00  0.00    +0.041 OA
ENDBRANCH  12  16
ENDBRANCH   2  10
BRANCH   1  19
ATOM     19  C   LIG    1       22.940 -30.195  12.876  0.00  0.00    +0.337 C 
ATOM     20  O   LIG    1       23.028 -30.402  14.066  0.00  0.00    -0.245 OA
BRANCH  19  22
ATOM     21  C   LIG    1       21.705 -28.175  12.779  0.00  0.00    +0.280 C 
ATOM     22  O   LIG    1       21.953 -29.483  12.269  0.00  0.00    -0.465 OA
ENDBRANCH  19  22
ENDBRANCH   1  19
BRANCH   3  23
ATOM     23  C   LIG    1       25.963 -29.065   8.998  0.00  0.00    +0.338 C 
ATOM     24  O   LIG    1       27.021 -28.479   9.188  0.00  0.00    -0.245 OA
BRANCH  23  25
ATOM     25  O   LIG    1       25.073 -28.750   8.034  0.00  0.00    -0.460 OA
BRANCH  25  26
ATOM     26  C   LIG    1       25.567 -27.980   6.930  0.00  0.00    +0.247 C 
BRANCH  26  27
ATOM     27  C   LIG    1       24.454 -27.085   6.370  0.00  0.00    +0.125 C 
BRANCH  27  28
ATOM     28  N   LIG    1       24.825 -25.679   6.130  0.00  0.00    -0.298 NA
ATOM     29  C   LIG    1       25.217 -25.539   4.720  0.00  0.00    +0.105 C 
BRANCH  28  30
ATOM     30  C   LIG    1       23.734 -24.749   6.489  0.00  0.00    +0.119 C 
BRANCH  30  31
ATOM     31  C   LIG    1       24.180 -23.363   6.911  0.00  0.00    -0.033 A 
ATOM     32  C   LIG    1       25.482 -23.120   7.376  0.00  0.00    +0.005 A 
ATOM     33  C   LIG    1       25.881 -21.836   7.739  0.00  0.00    +0.000 A 
ATOM     34  C   LIG    1       24.970 -20.785   7.687  0.00  0.00    +0.000 A 
ATOM     35  C   LIG    1       23.660 -21.017   7.270  0.00  0.00    +0.000 A 
ATOM     36  C   LIG    1       23.265 -22.301   6.889  0.00  0.00    +0.005 A 
ENDBRANCH  30  31
ENDBRANCH  28  30
ENDBRANCH  27  28
ENDBRANCH  26  27
ENDBRANCH  25  26
ENDBRANCH  23  25
ENDBRANCH   3  23
TORSDOF 11
ENDMDL
MODEL 8
REMARK VINA RESULT:      -8.1      6.440     10.480
REMARK  Name = *****
REMARK                            x       y       z     vdW  Elec       q    Type
REMARK                         _______ _______ _______ _____ _____    ______ ____
ROOT
ATOM      1  C   LIG    1       23.689 -31.132  11.281  0.00  0.00    +0.065 C 
ATOM      2  C   LIG    1       24.533 -29.948  10.784  0.00  0.00    +0.096 C 
ATOM      3  C   LIG    1       25.466 -30.310   9.624  0.00  0.00    +0.065 C 
ATOM      4  C   LIG    1       25.702 -31.608   9.314  0.00  0.00    +0.016 C 
ATOM      5  C   LIG    1       26.650 -32.109   8.251  0.00  0.00    +0.061 C 
ATOM      6  N   LIG    1       25.023 -32.605   9.994  0.00  0.00    -0.321 N 
ATOM      7  H   LIG    1       25.131 -33.553   9.638  0.00  0.00    +0.152 HD
ATOM      8  C   LIG    1       23.968 -32.392  10.871  0.00  0.00    +0.016 C 
ATOM      9  C   LIG    1       23.217 -33.647  11.250  0.00  0.00    +0.061 C 
ENDROOT
BRANCH   2  10
ATOM     10  C   LIG    1       25.297 -29.288  11.948  0.00  0.00    -0.029 A 
ATOM     11  C   LIG    1       25.077 -27.946  12.297  0.00  0.00    +0.088 A 
ATOM     12  C   LIG    1       25.787 -27.372  13.364  0.00  0.00    +0.273 A 
ATOM     13  C   LIG    1       26.705 -28.127  14.106  0.00  0.00    +0.084 A 
ATOM     14  C   LIG    1       26.932 -29.456  13.759  0.00  0.00    +0.007 A 
ATOM     15  C   LIG    1       26.244 -30.027  12.685  0.00  0.00    +0.005 A 
BRANCH  12  16
ATOM     16  N   LIG    1       25.575 -25.959  13.702  0.00  0.00    +0.080 N 
ATOM     17  O   LIG    1       26.222 -25.111  13.071  0.00  0.00    -0.576 OA
ATOM     18  O   LIG    1       24.763 -25.696  14.601  0.00  0.00    +0.041 OA
ENDBRANCH  12  16
ENDBRANCH   2  10
BRANCH   1  19
ATOM     19  C   LIG    1       22.537 -30.802  12.174  0.00  0.00    +0.337 C 
ATOM     20  O   LIG    1       22.437 -31.097  13.345  0.00  0.00    -0.245 OA
BRANCH  19  22
ATOM     21  C   LIG    1       20.432 -30.859  11.085  0.00  0.00    +0.280 C 
ATOM     22  O   LIG    1       21.603 -30.131  11.447  0.00  0.00    -0.465 OA
ENDBRANCH  19  22
ENDBRANCH   1  19
BRANCH   3  23
ATOM     23  C   LIG    1       25.948 -29.128   8.856  0.00  0.00    +0.338 C 
ATOM     24  O   LIG    1       26.944 -28.486   9.162  0.00  0.00    -0.245 OA
BRANCH  23  25
ATOM     25  O   LIG    1       25.107 -28.808   7.851  0.00  0.00    -0.460 OA
BRANCH  25  26
ATOM     26  C   LIG    1       25.609 -27.907   6.855  0.00  0.00    +0.247 C 
BRANCH  26  27
ATOM     27  C   LIG    1       24.475 -27.020   6.325  0.00  0.00    +0.125 C 
BRANCH  27  28
ATOM     28  N   LIG    1       24.827 -25.608   6.088  0.00  0.00    -0.298 NA
ATOM     29  C   LIG    1       25.161 -25.448   4.665  0.00  0.00    +0.105 C 
BRANCH  28  30
ATOM     30  C   LIG    1       23.746 -24.690   6.502  0.00  0.00    +0.119 C 
BRANCH  30  31
ATOM     31  C   LIG    1       24.201 -23.314   6.946  0.00  0.00    -0.033 A 
ATOM     32  C   LIG    1       25.492 -23.096   7.454  0.00  0.00    +0.005 A 
ATOM     33  C   LIG    1       25.901 -21.821   7.837  0.00  0.00    +0.000 A 
ATOM     34  C   LIG    1       25.010 -20.754   7.761  0.00  0.00    +0.000 A 
ATOM     35  C   LIG    1       23.710 -20.962   7.302  0.00  0.00    +0.000 A 
ATOM     36  C   LIG    1       23.305 -22.237   6.900  0.00  0.00    +0.005 A 
ENDBRANCH  30  31
ENDBRANCH  28  30
ENDBRANCH  27  28
ENDBRANCH  26  27
ENDBRANCH  25  26
ENDBRANCH  23  25
ENDBRANCH   3  23
TORSDOF 11
ENDMDL
MODEL 9
REMARK VINA RESULT:      -8.0      5.724      9.558
REMARK  Name = *****
REMARK                            x       y       z     vdW  Elec       q    Type
REMARK                         _______ _______ _______ _____ _____    ______ ____
ROOT
ATOM      1  C   LIG    1       23.629 -31.293   8.858  0.00  0.00    +0.065 C 
ATOM      2  C   LIG    1       24.302 -29.917   8.730  0.00  0.00    +0.096 C 
ATOM      3  C   LIG    1       24.865 -29.642   7.332  0.00  0.00    +0.065 C 
ATOM      4  C   LIG    1       24.997 -30.651   6.436  0.00  0.00    +0.016 C 
ATOM      5  C   LIG    1       25.601 -30.540   5.058  0.00  0.00    +0.061 C 
ATOM      6  N   LIG    1       24.535 -31.915   6.761  0.00  0.00    -0.321 N 
ATOM      7  H   LIG    1       24.533 -32.604   6.012  0.00  0.00    +0.152 HD
ATOM      8  C   LIG    1       23.774 -32.220   7.881  0.00  0.00    +0.016 C 
ATOM      9  C   LIG    1       23.156 -33.599   7.852  0.00  0.00    +0.061 C 
ENDROOT
BRANCH   2  10
ATOM     10  C   LIG    1       25.368 -29.722   9.825  0.00  0.00    -0.029 A 
ATOM     11  C   LIG    1       25.093 -28.985  10.988  0.00  0.00    +0.088 A 
ATOM     12  C   LIG    1       26.084 -28.825  11.969  0.00  0.00    +0.273 A 
ATOM     13  C   LIG    1       27.348 -29.409  11.817  0.00  0.00    +0.084 A 
ATOM     14  C   LIG    1       27.629 -30.134  10.662  0.00  0.00    +0.007 A 
ATOM     15  C   LIG    1       26.653 -30.280   9.672  0.00  0.00    +0.005 A 
BRANCH  12  16
ATOM     16  N   LIG    1       25.799 -28.025  13.167  0.00  0.00    +0.080 N 
ATOM     17  O   LIG    1       26.761 -27.626  13.839  0.00  0.00    -0.576 OA
ATOM     18  O   LIG    1       24.611 -27.797  13.440  0.00  0.00    +0.041 OA
ENDBRANCH  12  16
ENDBRANCH   2  10
BRANCH   1  19
ATOM     19  C   LIG    1       22.779 -31.511  10.068  0.00  0.00    +0.337 C 
ATOM     20  O   LIG    1       23.054 -32.220  11.011  0.00  0.00    -0.245 OA
BRANCH  19  22
ATOM     21  C   LIG    1       20.474 -31.310  10.583  0.00  0.00    +0.280 C 
ATOM     22  O   LIG    1       21.631 -30.795   9.927  0.00  0.00    -0.465 OA
ENDBRANCH  19  22
ENDBRANCH   1  19
BRANCH   3  23
ATOM     23  C   LIG    1       25.113 -28.198   7.064  0.00  0.00    +0.338 C 
ATOM     24  O   LIG    1       26.055 -27.577   7.539  0.00  0.00    -0.245 OA
BRANCH  23  25
ATOM     25  O   LIG    1       24.133 -27.652   6.315  0.00  0.00    -0.460 OA
BRANCH  25  26
ATOM     26  C   LIG    1       24.519 -26.610   5.410  0.00  0.00    +0.247 C 
BRANCH  26  27
ATOM     27  C   LIG    1       24.079 -25.246   5.955  0.00  0.00    +0.125 C 
BRANCH  27  28
ATOM     28  N   LIG    1       25.091 -24.175   5.890  0.00  0.00    -0.298 NA
ATOM     29  C   LIG    1       24.407 -22.913   5.574  0.00  0.00    +0.105 C 
BRANCH  28  30
ATOM     30  C   LIG    1       25.874 -24.075   7.139  0.00  0.00    +0.119 C 
BRANCH  30  31
ATOM     31  C   LIG    1       26.322 -22.675   7.510  0.00  0.00    -0.033 A 
ATOM     32  C   LIG    1       27.563 -22.167   7.092  0.00  0.00    +0.005 A 
ATOM     33  C   LIG    1       27.949 -20.870   7.423  0.00  0.00    +0.000 A 
ATOM     34  C   LIG    1       27.121 -20.080   8.215  0.00  0.00    +0.000 A 
ATOM     35  C   LIG    1       25.906 -20.585   8.675  0.00  0.00    +0.000 A 
ATOM     36  C   LIG    1       25.510 -21.879   8.328  0.00  0.00    +0.005 A 
ENDBRANCH  30  31
ENDBRANCH  28  30
ENDBRANCH  27  28
ENDBRANCH  26  27
ENDBRANCH  25  26
ENDBRANCH  23  25
ENDBRANCH   3  23
TORSDOF 11
ENDMDL
