MODEL 1
REMARK VINA RESULT:      -4.9      0.000      0.000
REMARK  Name = *****
REMARK                            x       y       z     vdW  Elec       q    Type
REMARK                         _______ _______ _______ _____ _____    ______ ____
ROOT
ATOM      1  C   LIG    1       25.305 -14.200   4.044  0.00  0.00    +0.098 C 
ENDROOT
BRANCH   1   2
ATOM      2  C   LIG    1       26.091 -15.057   3.049  0.00  0.00    +0.308 C 
ATOM      3  O   LIG    1       26.361 -16.232   3.210  0.00  0.00    -0.251 OA
BRANCH   2   4
ATOM      4  O   LIG    1       26.507 -14.367   1.952  0.00  0.00    -0.480 OA
ATOM      5  H   LIG    1       27.182 -14.802   1.407  0.00  0.00    +0.295 HD
ENDBRANCH   2   4
ENDBRANCH   1   2
BRANCH   1   6
ATOM      6  C   LIG    1       26.188 -13.316   4.951  0.00  0.00    +0.014 C 
BRANCH   6   8
ATOM      7  C   LIG    1       28.541 -12.706   4.195  0.00  0.00    +0.004 C 
ATOM      8  C   LIG    1       27.684 -13.618   5.070  0.00  0.00    -0.003 C 
ENDBRANCH   6   8
ENDBRANCH   1   6
BRANCH   1   9
ATOM      9  C   LIG    1       24.054 -13.586   3.375  0.00  0.00    +0.014 C 
BRANCH   9  10
ATOM     10  C   LIG    1       23.953 -12.063   3.260  0.00  0.00    -0.003 C 
ATOM     11  C   LIG    1       24.388 -11.548   1.893  0.00  0.00    +0.004 C 
ENDBRANCH   9  10
ENDBRANCH   1   9
TORSDOF 6
ENDMDL
MODEL 2
REMARK VINA RESULT:      -4.7      6.004      7.724
REMARK  Name = *****
REMARK                            x       y       z     vdW  Elec       q    Type
REMARK                         _______ _______ _______ _____ _____    ______ ____
ROOT
ATOM      1  C   LIG    1       24.555 -20.310   5.439  0.00  0.00    +0.098 C 
ENDROOT
BRANCH   1   2
ATOM      2  C   LIG    1       24.764 -20.613   3.953  0.00  0.00    +0.308 C 
ATOM      3  O   LIG    1       24.271 -21.554   3.363  0.00  0.00    -0.251 OA
BRANCH   2   4
ATOM      4  O   LIG    1       25.604 -19.737   3.336  0.00  0.00    -0.480 OA
ATOM      5  H   LIG    1       25.952 -20.016   2.474  0.00  0.00    +0.295 HD
ENDBRANCH   2   4
ENDBRANCH   1   2
BRANCH   1   6
ATOM      6  C   LIG    1       23.078 -20.128   5.845  0.00  0.00    +0.014 C 
BRANCH   6   8
ATOM      7  C   LIG    1       22.198 -18.106   4.572  0.00  0.00    +0.004 C 
ATOM      8  C   LIG    1       22.072 -19.609   4.814  0.00  0.00    -0.003 C 
ENDBRANCH   6   8
ENDBRANCH   1   6
BRANCH   1   9
ATOM      9  C   LIG    1       25.478 -21.187   6.315  0.00  0.00    +0.014 C 
BRANCH   9  10
ATOM     10  C   LIG    1       26.637 -20.522   7.061  0.00  0.00    -0.003 C 
ATOM     11  C   LIG    1       27.790 -20.146   6.138  0.00  0.00    +0.004 C 
ENDBRANCH   9  10
ENDBRANCH   1   9
TORSDOF 6
ENDMDL
MODEL 3
REMARK VINA RESULT:      -4.6      6.343      7.317
REMARK  Name = *****
REMARK                            x       y       z     vdW  Elec       q    Type
REMARK                         _______ _______ _______ _____ _____    ______ ____
ROOT
ATOM      1  C   LIG    1       24.494 -20.913   5.853  0.00  0.00    +0.098 C 
ENDROOT
BRANCH   1   2
ATOM      2  C   LIG    1       24.829 -20.927   4.360  0.00  0.00    +0.308 C 
ATOM      3  O   LIG    1       24.228 -21.571   3.521  0.00  0.00    -0.251 OA
BRANCH   2   4
ATOM      4  O   LIG    1       25.912 -20.165   4.043  0.00  0.00    -0.480 OA
ATOM      5  H   LIG    1       26.191 -19.523   4.714  0.00  0.00    +0.295 HD
ENDBRANCH   2   4
ENDBRANCH   1   2
BRANCH   1   6
ATOM      6  C   LIG    1       25.680 -20.531   6.764  0.00  0.00    +0.014 C 
BRANCH   6   8
ATOM      7  C   LIG    1       28.176 -21.007   6.907  0.00  0.00    +0.004 C 
ATOM      8  C   LIG    1       26.765 -21.568   7.062  0.00  0.00    -0.003 C 
ENDBRANCH   6   8
ENDBRANCH   1   6
BRANCH   1   9
ATOM      9  C   LIG    1       23.111 -20.268   6.101  0.00  0.00    +0.014 C 
BRANCH   9  10
ATOM     10  C   LIG    1       22.263 -19.855   4.895  0.00  0.00    -0.003 C 
ATOM     11  C   LIG    1       22.347 -18.362   4.604  0.00  0.00    +0.004 C 
ENDBRANCH   9  10
ENDBRANCH   1   9
TORSDOF 6
ENDMDL
MODEL 4
REMARK VINA RESULT:      -4.6      6.150      7.451
REMARK  Name = *****
REMARK                            x       y       z     vdW  Elec       q    Type
REMARK                         _______ _______ _______ _____ _____    ______ ____
ROOT
ATOM      1  C   LIG    1       26.615 -20.387   5.599  0.00  0.00    +0.098 C 
ENDROOT
BRANCH   1   2
ATOM      2  C   LIG    1       28.088 -20.023   5.804  0.00  0.00    +0.308 C 
ATOM      3  O   LIG    1       28.851 -20.616   6.542  0.00  0.00    -0.251 OA
BRANCH   2   4
ATOM      4  O   LIG    1       28.476 -18.925   5.099  0.00  0.00    -0.480 OA
ATOM      5  H   LIG    1       28.058 -18.087   5.354  0.00  0.00    +0.295 HD
ENDBRANCH   2   4
ENDBRANCH   1   2
BRANCH   1   6
ATOM      6  C   LIG    1       25.799 -20.474   6.906  0.00  0.00    +0.014 C 
BRANCH   6   8
ATOM      7  C   LIG    1       23.315 -21.011   7.057  0.00  0.00    +0.004 C 
ATOM      8  C   LIG    1       24.737 -21.566   7.059  0.00  0.00    -0.003 C 
ENDBRANCH   6   8
ENDBRANCH   1   6
BRANCH   1   9
ATOM      9  C   LIG    1       26.025 -19.631   4.387  0.00  0.00    +0.014 C 
BRANCH   9  10
ATOM     10  C   LIG    1       24.743 -20.162   3.740  0.00  0.00    -0.003 C 
ATOM     11  C   LIG    1       23.600 -19.156   3.791  0.00  0.00    +0.004 C 
ENDBRANCH   9  10
ENDBRANCH   1   9
TORSDOF 6
ENDMDL
MODEL 5
REMARK VINA RESULT:      -4.5      5.613      7.213
REMARK  Name = *****
REMARK                            x       y       z     vdW  Elec       q    Type
REMARK                         _______ _______ _______ _____ _____    ______ ____
ROOT
ATOM      1  C   LIG    1       25.269 -20.632   5.211  0.00  0.00    +0.098 C 
ENDROOT
BRANCH   1   2
ATOM      2  C   LIG    1       26.623 -20.343   5.862  0.00  0.00    +0.308 C 
ATOM      3  O   LIG    1       26.807 -20.233   7.059  0.00  0.00    -0.251 OA
BRANCH   2   4
ATOM      4  O   LIG    1       27.631 -20.179   4.962  0.00  0.00    -0.480 OA
ATOM      5  H   LIG    1       27.720 -19.291   4.580  0.00  0.00    +0.295 HD
ENDBRANCH   2   4
ENDBRANCH   1   2
BRANCH   1   6
ATOM      6  C   LIG    1       24.064 -20.477   6.163  0.00  0.00    +0.014 C 
BRANCH   6   8
ATOM      7  C   LIG    1       21.927 -21.165   4.964  0.00  0.00    +0.004 C 
ATOM      8  C   LIG    1       22.714 -20.023   5.603  0.00  0.00    -0.003 C 
ENDBRANCH   6   8
ENDBRANCH   1   6
BRANCH   1   9
ATOM      9  C   LIG    1       25.197 -20.018   3.794  0.00  0.00    +0.014 C 
BRANCH   9  10
ATOM     10  C   LIG    1       24.754 -18.560   3.644  0.00  0.00    -0.003 C 
ATOM     11  C   LIG    1       25.908 -17.631   3.287  0.00  0.00    +0.004 C 
ENDBRANCH   9  10
ENDBRANCH   1   9
TORSDOF 6
ENDMDL
MODEL 6
REMARK VINA RESULT:      -4.5      6.026      7.804
REMARK  Name = *****
REMARK                            x       y       z     vdW  Elec       q    Type
REMARK                         _______ _______ _______ _____ _____    ______ ____
ROOT
ATOM      1  C   LIG    1       24.781 -21.018   5.283  0.00  0.00    +0.098 C 
ENDROOT
BRANCH   1   2
ATOM      2  C   LIG    1       23.375 -20.926   5.881  0.00  0.00    +0.308 C 
ATOM      3  O   LIG    1       23.117 -20.465   6.976  0.00  0.00    -0.251 OA
BRANCH   2   4
ATOM      4  O   LIG    1       22.411 -21.455   5.077  0.00  0.00    -0.480 OA
ATOM      5  H   LIG    1       21.538 -21.035   5.129  0.00  0.00    +0.295 HD
ENDBRANCH   2   4
ENDBRANCH   1   2
BRANCH   1   6
ATOM      6  C   LIG    1       24.917 -20.377   3.886  0.00  0.00    +0.014 C 
BRANCH   6   8
ATOM      7  C   LIG    1       25.598 -17.987   3.331  0.00  0.00    +0.004 C 
ATOM      8  C   LIG    1       24.449 -18.935   3.670  0.00  0.00    -0.003 C 
ENDBRANCH   6   8
ENDBRANCH   1   6
BRANCH   1   9
ATOM      9  C   LIG    1       25.856 -20.728   6.357  0.00  0.00    +0.014 C 
BRANCH   9  10
ATOM     10  C   LIG    1       27.218 -20.191   5.910  0.00  0.00    -0.003 C 
ATOM     11  C   LIG    1       28.207 -20.071   7.062  0.00  0.00    +0.004 C 
ENDBRANCH   9  10
ENDBRANCH   1   9
TORSDOF 6
ENDMDL
MODEL 7
REMARK VINA RESULT:      -4.4      2.011      3.106
REMARK  Name = *****
REMARK                            x       y       z     vdW  Elec       q    Type
REMARK                         _______ _______ _______ _____ _____    ______ ____
ROOT
ATOM      1  C   LIG    1       26.542 -14.119   2.960  0.00  0.00    +0.098 C 
ENDROOT
BRANCH   1   2
ATOM      2  C   LIG    1       27.569 -13.540   3.937  0.00  0.00    +0.308 C 
ATOM      3  O   LIG    1       27.379 -13.380   5.127  0.00  0.00    -0.251 OA
BRANCH   2   4
ATOM      4  O   LIG    1       28.735 -13.173   3.338  0.00  0.00    -0.480 OA
ATOM      5  H   LIG    1       29.536 -13.620   3.658  0.00  0.00    +0.295 HD
ENDBRANCH   2   4
ENDBRANCH   1   2
BRANCH   1   6
ATOM      6  C   LIG    1       25.873 -15.422   3.446  0.00  0.00    +0.014 C 
BRANCH   6   8
ATOM      7  C   LIG    1       25.759 -17.962   3.322  0.00  0.00    +0.004 C 
ATOM      8  C   LIG    1       26.662 -16.734   3.405  0.00  0.00    -0.003 C 
ENDBRANCH   6   8
ENDBRANCH   1   6
BRANCH   1   9
ATOM      9  C   LIG    1       25.665 -12.999   2.355  0.00  0.00    +0.014 C 
BRANCH   9  10
ATOM     10  C   LIG    1       24.199 -12.898   2.782  0.00  0.00    -0.003 C 
ATOM     11  C   LIG    1       24.034 -12.306   4.176  0.00  0.00    +0.004 C 
ENDBRANCH   9  10
ENDBRANCH   1   9
TORSDOF 6
ENDMDL
MODEL 8
REMARK VINA RESULT:      -4.4      2.141      3.987
REMARK  Name = *****
REMARK                            x       y       z     vdW  Elec       q    Type
REMARK                         _______ _______ _______ _____ _____    ______ ____
ROOT
ATOM      1  C   LIG    1       26.912 -13.803   3.658  0.00  0.00    +0.098 C 
ENDROOT
BRANCH   1   2
ATOM      2  C   LIG    1       28.239 -13.161   4.070  0.00  0.00    +0.308 C 
ATOM      3  O   LIG    1       28.404 -12.495   5.074  0.00  0.00    -0.251 OA
BRANCH   2   4
ATOM      4  O   LIG    1       29.242 -13.373   3.174  0.00  0.00    -0.480 OA
ATOM      5  H   LIG    1       30.145 -13.312   3.525  0.00  0.00    +0.295 HD
ENDBRANCH   2   4
ENDBRANCH   1   2
BRANCH   1   6
ATOM      6  C   LIG    1       26.189 -13.074   2.506  0.00  0.00    +0.014 C 
BRANCH   6   8
ATOM      7  C   LIG    1       24.189 -12.881   4.069  0.00  0.00    +0.004 C 
ATOM      8  C   LIG    1       24.697 -12.755   2.634  0.00  0.00    -0.003 C 
ENDBRANCH   6   8
ENDBRANCH   1   6
BRANCH   1   9
ATOM      9  C   LIG    1       27.033 -15.343   3.621  0.00  0.00    +0.014 C 
BRANCH   9  10
ATOM     10  C   LIG    1       25.786 -16.173   3.301  0.00  0.00    -0.003 C 
ATOM     11  C   LIG    1       26.057 -17.672   3.329  0.00  0.00    +0.004 C 
ENDBRANCH   9  10
ENDBRANCH   1   9
TORSDOF 6
ENDMDL
MODEL 9
REMARK VINA RESULT:      -4.4      6.143      7.321
REMARK  Name = *****
REMARK                            x       y       z     vdW  Elec       q    Type
REMARK                         _______ _______ _______ _____ _____    ______ ____
ROOT
ATOM      1  C   LIG    1       24.803 -20.632   5.543  0.00  0.00    +0.098 C 
ENDROOT
BRANCH   1   2
ATOM      2  C   LIG    1       23.441 -21.217   5.926  0.00  0.00    +0.308 C 
ATOM      3  O   LIG    1       23.092 -21.474   7.062  0.00  0.00    -0.251 OA
BRANCH   2   4
ATOM      4  O   LIG    1       22.641 -21.468   4.853  0.00  0.00    -0.480 OA
ATOM      5  H   LIG    1       21.690 -21.528   5.037  0.00  0.00    +0.295 HD
ENDBRANCH   2   4
ENDBRANCH   1   2
BRANCH   1   6
ATOM      6  C   LIG    1       26.000 -21.314   6.239  0.00  0.00    +0.014 C 
BRANCH   6   8
ATOM      7  C   LIG    1       28.098 -19.891   6.006  0.00  0.00    +0.004 C 
ATOM      8  C   LIG    1       27.044 -20.454   6.956  0.00  0.00    -0.003 C 
ENDBRANCH   6   8
ENDBRANCH   1   6
BRANCH   1   9
ATOM      9  C   LIG    1       24.872 -20.344   4.026  0.00  0.00    +0.014 C 
BRANCH   9  10
ATOM     10  C   LIG    1       24.490 -18.949   3.523  0.00  0.00    -0.003 C 
ATOM     11  C   LIG    1       25.701 -18.050   3.313  0.00  0.00    +0.004 C 
ENDBRANCH   9  10
ENDBRANCH   1   9
TORSDOF 6
ENDMDL
