MODEL 1
REMARK VINA RESULT:      -7.4      0.000      0.000
REMARK  Name = *****
REMARK                            x       y       z     vdW  Elec       q    Type
REMARK                         _______ _______ _______ _____ _____    ______ ____
ROOT
ATOM      1  C   LIG    1       27.062 -20.344   6.060  0.00  0.00    +0.033 C 
ATOM      2  C   LIG    1       26.800 -20.581   7.547  0.00  0.00    +0.106 C 
ENDROOT
BRANCH   2   3
ATOM      3  N   LIG    1       27.970 -20.056   8.285  0.00  0.00    -0.288 NA
ATOM      4  C   LIG    1       29.107 -20.227   7.694  0.00  0.00    +0.132 C 
BRANCH   4   5
ATOM      5  C   LIG    1       30.436 -19.733   8.239  0.00  0.00    +0.225 C 
ATOM      6 CL   LIG    1       31.211 -21.099   9.068  0.00  0.00    -0.077 Cl
ATOM      7 CL   LIG    1       30.206 -18.364   9.344  0.00  0.00    -0.077 Cl
ATOM      8 CL   LIG    1       31.445 -19.217   6.861  0.00  0.00    -0.077 Cl
ENDBRANCH   4   5
ENDBRANCH   2   3
BRANCH   2   9
ATOM      9  C   LIG    1       26.637 -22.093   7.813  0.00  0.00    +0.061 C 
BRANCH   9  10
ATOM     10  C   LIG    1       25.298 -22.641   7.371  0.00  0.00    -0.045 A 
ATOM     11  C   LIG    1       25.203 -23.950   6.871  0.00  0.00    +0.003 A 
ATOM     12  C   LIG    1       23.964 -24.490   6.529  0.00  0.00    +0.000 A 
ATOM     13  C   LIG    1       22.810 -23.721   6.661  0.00  0.00    +0.000 A 
ATOM     14  C   LIG    1       22.895 -22.413   7.138  0.00  0.00    +0.000 A 
ATOM     15  C   LIG    1       24.133 -21.876   7.499  0.00  0.00    +0.003 A 
ENDBRANCH   9  10
ENDBRANCH   2   9
TORSDOF 4
ENDMDL
MODEL 2
REMARK VINA RESULT:      -7.4      0.199      1.300
REMARK  Name = *****
REMARK                            x       y       z     vdW  Elec       q    Type
REMARK                         _______ _______ _______ _____ _____    ______ ____
ROOT
ATOM      1  C   LIG    1       26.776 -20.298   6.197  0.00  0.00    +0.033 C 
ATOM      2  C   LIG    1       26.652 -20.583   7.694  0.00  0.00    +0.106 C 
ENDROOT
BRANCH   2   3
ATOM      3  N   LIG    1       27.869 -20.048   8.343  0.00  0.00    -0.288 NA
ATOM      4  C   LIG    1       28.957 -20.189   7.659  0.00  0.00    +0.132 C 
BRANCH   4   5
ATOM      5  C   LIG    1       30.317 -19.678   8.101  0.00  0.00    +0.225 C 
ATOM      6 CL   LIG    1       31.214 -19.222   6.638  0.00  0.00    -0.077 Cl
ATOM      7 CL   LIG    1       31.193 -20.912   9.029  0.00  0.00    -0.077 Cl
ATOM      8 CL   LIG    1       30.065 -18.239   9.125  0.00  0.00    -0.077 Cl
ENDBRANCH   4   5
ENDBRANCH   2   3
BRANCH   2   9
ATOM      9  C   LIG    1       26.549 -22.106   7.927  0.00  0.00    +0.061 C 
BRANCH   9  10
ATOM     10  C   LIG    1       25.258 -22.708   7.418  0.00  0.00    -0.045 A 
ATOM     11  C   LIG    1       25.246 -24.010   6.896  0.00  0.00    +0.003 A 
ATOM     12  C   LIG    1       24.049 -24.601   6.491  0.00  0.00    +0.000 A 
ATOM     13  C   LIG    1       22.856 -23.888   6.583  0.00  0.00    +0.000 A 
ATOM     14  C   LIG    1       22.859 -22.586   7.082  0.00  0.00    +0.000 A 
ATOM     15  C   LIG    1       24.054 -21.999   7.505  0.00  0.00    +0.003 A 
ENDBRANCH   9  10
ENDBRANCH   2   9
TORSDOF 4
ENDMDL
MODEL 3
REMARK VINA RESULT:      -7.3      0.120      1.814
REMARK  Name = *****
REMARK                            x       y       z     vdW  Elec       q    Type
REMARK                         _______ _______ _______ _____ _____    ______ ____
ROOT
ATOM      1  C   LIG    1       26.965 -20.306   6.114  0.00  0.00    +0.033 C 
ATOM      2  C   LIG    1       26.775 -20.685   7.583  0.00  0.00    +0.106 C 
ENDROOT
BRANCH   2   3
ATOM      3  N   LIG    1       27.964 -20.197   8.316  0.00  0.00    -0.288 NA
ATOM      4  C   LIG    1       29.056 -20.167   7.624  0.00  0.00    +0.132 C 
BRANCH   4   5
ATOM      5  C   LIG    1       30.389 -19.663   8.151  0.00  0.00    +0.225 C 
ATOM      6 CL   LIG    1       30.048 -18.297   9.233  0.00  0.00    -0.077 Cl
ATOM      7 CL   LIG    1       31.459 -19.174   6.822  0.00  0.00    -0.077 Cl
ATOM      8 CL   LIG    1       31.158 -20.983   9.073  0.00  0.00    -0.077 Cl
ENDBRANCH   4   5
ENDBRANCH   2   3
BRANCH   2   9
ATOM      9  C   LIG    1       26.660 -22.219   7.715  0.00  0.00    +0.061 C 
BRANCH   9  10
ATOM     10  C   LIG    1       25.283 -22.750   7.380  0.00  0.00    -0.045 A 
ATOM     11  C   LIG    1       24.156 -21.927   7.529  0.00  0.00    +0.003 A 
ATOM     12  C   LIG    1       22.892 -22.382   7.155  0.00  0.00    +0.000 A 
ATOM     13  C   LIG    1       22.739 -23.671   6.650  0.00  0.00    +0.000 A 
ATOM     14  C   LIG    1       23.849 -24.504   6.515  0.00  0.00    +0.000 A 
ATOM     15  C   LIG    1       25.119 -24.044   6.872  0.00  0.00    +0.003 A 
ENDBRANCH   9  10
ENDBRANCH   2   9
TORSDOF 4
ENDMDL
MODEL 4
REMARK VINA RESULT:      -7.3      1.096      1.874
REMARK  Name = *****
REMARK                            x       y       z     vdW  Elec       q    Type
REMARK                         _______ _______ _______ _____ _____    ______ ____
ROOT
ATOM      1  C   LIG    1       25.970 -20.484   8.742  0.00  0.00    +0.033 C 
ATOM      2  C   LIG    1       26.795 -21.689   8.291  0.00  0.00    +0.106 C 
ENDROOT
BRANCH   2   3
ATOM      3  N   LIG    1       28.220 -21.302   8.386  0.00  0.00    -0.288 NA
ATOM      4  C   LIG    1       28.504 -20.144   7.886  0.00  0.00    +0.132 C 
BRANCH   4   5
ATOM      5  C   LIG    1       29.888 -19.519   7.909  0.00  0.00    +0.225 C 
ATOM      6 CL   LIG    1       31.027 -20.773   8.442  0.00  0.00    -0.077 Cl
ATOM      7 CL   LIG    1       29.937 -18.112   8.990  0.00  0.00    -0.077 Cl
ATOM      8 CL   LIG    1       30.294 -19.004   6.250  0.00  0.00    -0.077 Cl
ENDBRANCH   4   5
ENDBRANCH   2   3
BRANCH   2   9
ATOM      9  C   LIG    1       26.436 -22.049   6.833  0.00  0.00    +0.061 C 
BRANCH   9  10
ATOM     10  C   LIG    1       25.557 -23.274   6.714  0.00  0.00    -0.045 A 
ATOM     11  C   LIG    1       24.161 -23.149   6.796  0.00  0.00    +0.003 A 
ATOM     12  C   LIG    1       23.338 -24.260   6.616  0.00  0.00    +0.000 A 
ATOM     13  C   LIG    1       23.901 -25.510   6.374  0.00  0.00    +0.000 A 
ATOM     14  C   LIG    1       25.287 -25.650   6.310  0.00  0.00    +0.000 A 
ATOM     15  C   LIG    1       26.113 -24.535   6.472  0.00  0.00    +0.003 A 
ENDBRANCH   9  10
ENDBRANCH   2   9
TORSDOF 4
ENDMDL
MODEL 5
REMARK VINA RESULT:      -7.2      5.056      6.656
REMARK  Name = *****
REMARK                            x       y       z     vdW  Elec       q    Type
REMARK                         _______ _______ _______ _____ _____    ______ ____
ROOT
ATOM      1  C   LIG    1       22.846 -23.716   6.835  0.00  0.00    +0.033 C 
ATOM      2  C   LIG    1       24.021 -23.447   5.895  0.00  0.00    +0.106 C 
ENDROOT
BRANCH   2   3
ATOM      3  N   LIG    1       24.963 -24.578   6.040  0.00  0.00    -0.288 NA
ATOM      4  C   LIG    1       24.427 -25.750   5.932  0.00  0.00    +0.132 C 
BRANCH   4   5
ATOM      5  C   LIG    1       25.203 -27.055   6.000  0.00  0.00    +0.225 C 
ATOM      6 CL   LIG    1       26.335 -27.070   4.633  0.00  0.00    -0.077 Cl
ATOM      7 CL   LIG    1       24.111 -28.453   5.940  0.00  0.00    -0.077 Cl
ATOM      8 CL   LIG    1       26.113 -27.081   7.534  0.00  0.00    -0.077 Cl
ENDBRANCH   4   5
ENDBRANCH   2   3
BRANCH   2   9
ATOM      9  C   LIG    1       24.711 -22.124   6.289  0.00  0.00    +0.061 C 
BRANCH   9  10
ATOM     10  C   LIG    1       24.219 -20.929   5.502  0.00  0.00    -0.045 A 
ATOM     11  C   LIG    1       24.986 -20.419   4.444  0.00  0.00    +0.003 A 
ATOM     12  C   LIG    1       24.509 -19.365   3.666  0.00  0.00    +0.000 A 
ATOM     13  C   LIG    1       23.271 -18.795   3.952  0.00  0.00    +0.000 A 
ATOM     14  C   LIG    1       22.508 -19.282   5.013  0.00  0.00    +0.000 A 
ATOM     15  C   LIG    1       22.976 -20.350   5.782  0.00  0.00    +0.003 A 
ENDBRANCH   9  10
ENDBRANCH   2   9
TORSDOF 4
ENDMDL
MODEL 6
REMARK VINA RESULT:      -7.1      2.140      3.298
REMARK  Name = *****
REMARK                            x       y       z     vdW  Elec       q    Type
REMARK                         _______ _______ _______ _____ _____    ______ ____
ROOT
ATOM      1  C   LIG    1       26.239 -23.340   7.321  0.00  0.00    +0.033 C 
ATOM      2  C   LIG    1       26.504 -21.878   6.962  0.00  0.00    +0.106 C 
ENDROOT
BRANCH   2   3
ATOM      3  N   LIG    1       27.654 -21.429   7.777  0.00  0.00    -0.288 NA
ATOM      4  C   LIG    1       28.547 -20.753   7.132  0.00  0.00    +0.132 C 
BRANCH   4   5
ATOM      5  C   LIG    1       29.789 -20.152   7.767  0.00  0.00    +0.225 C 
ATOM      6 CL   LIG    1       30.764 -19.446   6.462  0.00  0.00    -0.077 Cl
ATOM      7 CL   LIG    1       30.709 -21.380   8.659  0.00  0.00    -0.077 Cl
ATOM      8 CL   LIG    1       29.273 -18.868   8.893  0.00  0.00    -0.077 Cl
ENDBRANCH   4   5
ENDBRANCH   2   3
BRANCH   2   9
ATOM      9  C   LIG    1       25.256 -21.028   7.286  0.00  0.00    +0.061 C 
BRANCH   9  10
ATOM     10  C   LIG    1       24.568 -20.474   6.058  0.00  0.00    -0.045 A 
ATOM     11  C   LIG    1       23.187 -20.225   6.077  0.00  0.00    +0.003 A 
ATOM     12  C   LIG    1       22.555 -19.649   4.975  0.00  0.00    +0.000 A 
ATOM     13  C   LIG    1       23.293 -19.336   3.836  0.00  0.00    +0.000 A 
ATOM     14  C   LIG    1       24.662 -19.597   3.799  0.00  0.00    +0.000 A 
ATOM     15  C   LIG    1       25.300 -20.158   4.908  0.00  0.00    +0.003 A 
ENDBRANCH   9  10
ENDBRANCH   2   9
TORSDOF 4
ENDMDL
MODEL 7
REMARK VINA RESULT:      -6.9      4.476      6.772
REMARK  Name = *****
REMARK                            x       y       z     vdW  Elec       q    Type
REMARK                         _______ _______ _______ _____ _____    ______ ____
ROOT
ATOM      1  C   LIG    1       25.142 -21.194   8.204  0.00  0.00    +0.033 C 
ATOM      2  C   LIG    1       26.082 -20.601   7.154  0.00  0.00    +0.106 C 
ENDROOT
BRANCH   2   3
ATOM      3  N   LIG    1       25.342 -20.569   5.874  0.00  0.00    -0.288 NA
ATOM      4  C   LIG    1       24.073 -20.347   5.985  0.00  0.00    +0.132 C 
BRANCH   4   5
ATOM      5  C   LIG    1       23.120 -20.226   4.808  0.00  0.00    +0.225 C 
ATOM      6 CL   LIG    1       24.050 -20.571   3.335  0.00  0.00    -0.077 Cl
ATOM      7 CL   LIG    1       22.391 -18.609   4.738  0.00  0.00    -0.077 Cl
ATOM      8 CL   LIG    1       21.833 -21.446   5.006  0.00  0.00    -0.077 Cl
ENDBRANCH   4   5
ENDBRANCH   2   3
BRANCH   2   9
ATOM      9  C   LIG    1       27.339 -21.488   7.021  0.00  0.00    +0.061 C 
BRANCH   9  10
ATOM     10  C   LIG    1       28.634 -20.705   7.048  0.00  0.00    -0.045 A 
ATOM     11  C   LIG    1       28.820 -19.622   6.175  0.00  0.00    +0.003 A 
ATOM     12  C   LIG    1       29.979 -18.849   6.241  0.00  0.00    +0.000 A 
ATOM     13  C   LIG    1       30.973 -19.164   7.164  0.00  0.00    +0.000 A 
ATOM     14  C   LIG    1       30.807 -20.250   8.023  0.00  0.00    +0.000 A 
ATOM     15  C   LIG    1       29.639 -21.015   7.971  0.00  0.00    +0.003 A 
ENDBRANCH   9  10
ENDBRANCH   2   9
TORSDOF 4
ENDMDL
MODEL 8
REMARK VINA RESULT:      -6.9      4.906      6.257
REMARK  Name = *****
REMARK                            x       y       z     vdW  Elec       q    Type
REMARK                         _______ _______ _______ _____ _____    ______ ____
ROOT
ATOM      1  C   LIG    1       25.699 -22.707   7.773  0.00  0.00    +0.033 C 
ATOM      2  C   LIG    1       24.625 -23.042   6.739  0.00  0.00    +0.106 C 
ENDROOT
BRANCH   2   3
ATOM      3  N   LIG    1       24.525 -24.516   6.675  0.00  0.00    -0.288 NA
ATOM      4  C   LIG    1       25.583 -25.115   6.234  0.00  0.00    +0.132 C 
BRANCH   4   5
ATOM      5  C   LIG    1       25.728 -26.623   6.123  0.00  0.00    +0.225 C 
ATOM      6 CL   LIG    1       26.195 -27.229   7.725  0.00  0.00    -0.077 Cl
ATOM      7 CL   LIG    1       26.936 -27.061   4.898  0.00  0.00    -0.077 Cl
ATOM      8 CL   LIG    1       24.145 -27.302   5.660  0.00  0.00    -0.077 Cl
ENDBRANCH   4   5
ENDBRANCH   2   3
BRANCH   2   9
ATOM      9  C   LIG    1       25.033 -22.475   5.362  0.00  0.00    +0.061 C 
BRANCH   9  10
ATOM     10  C   LIG    1       24.276 -21.222   4.978  0.00  0.00    -0.045 A 
ATOM     11  C   LIG    1       23.123 -20.851   5.688  0.00  0.00    +0.003 A 
ATOM     12  C   LIG    1       22.459 -19.662   5.390  0.00  0.00    +0.000 A 
ATOM     13  C   LIG    1       22.927 -18.843   4.364  0.00  0.00    +0.000 A 
ATOM     14  C   LIG    1       24.059 -19.212   3.640  0.00  0.00    +0.000 A 
ATOM     15  C   LIG    1       24.737 -20.394   3.949  0.00  0.00    +0.003 A 
ENDBRANCH   9  10
ENDBRANCH   2   9
TORSDOF 4
ENDMDL
MODEL 9
REMARK VINA RESULT:      -6.9      4.053      4.944
REMARK  Name = *****
REMARK                            x       y       z     vdW  Elec       q    Type
REMARK                         _______ _______ _______ _____ _____    ______ ____
ROOT
ATOM      1  C   LIG    1       26.545 -20.339   8.007  0.00  0.00    +0.033 C 
ATOM      2  C   LIG    1       26.235 -21.470   7.027  0.00  0.00    +0.106 C 
ENDROOT
BRANCH   2   3
ATOM      3  N   LIG    1       25.927 -20.844   5.722  0.00  0.00    -0.288 NA
ATOM      4  C   LIG    1       24.679 -20.562   5.535  0.00  0.00    +0.132 C 
BRANCH   4   5
ATOM      5  C   LIG    1       24.134 -19.877   4.294  0.00  0.00    +0.225 C 
ATOM      6 CL   LIG    1       23.806 -21.141   3.091  0.00  0.00    -0.077 Cl
ATOM      7 CL   LIG    1       25.285 -18.680   3.666  0.00  0.00    -0.077 Cl
ATOM      8 CL   LIG    1       22.612 -19.057   4.734  0.00  0.00    -0.077 Cl
ENDBRANCH   4   5
ENDBRANCH   2   3
BRANCH   2   9
ATOM      9  C   LIG    1       25.019 -22.277   7.531  0.00  0.00    +0.061 C 
BRANCH   9  10
ATOM     10  C   LIG    1       24.948 -23.677   6.961  0.00  0.00    -0.045 A 
ATOM     11  C   LIG    1       26.113 -24.453   6.854  0.00  0.00    +0.003 A 
ATOM     12  C   LIG    1       26.048 -25.769   6.398  0.00  0.00    +0.000 A 
ATOM     13  C   LIG    1       24.823 -26.316   6.024  0.00  0.00    +0.000 A 
ATOM     14  C   LIG    1       23.662 -25.548   6.108  0.00  0.00    +0.000 A 
ATOM     15  C   LIG    1       23.722 -24.235   6.581  0.00  0.00    +0.003 A 
ENDBRANCH   9  10
ENDBRANCH   2   9
TORSDOF 4
ENDMDL
