MODEL 1
REMARK VINA RESULT:      17.2      0.000      0.000
REMARK  Name = *****
REMARK                            x       y       z     vdW  Elec       q    Type
REMARK                         _______ _______ _______ _____ _____    ______ ____
ROOT
ATOM      1  C   LIG    1       25.973 -14.844   2.973  0.00  0.00    +0.106 C 
ATOM      2  C   LIG    1       25.664 -15.669   4.253  0.00  0.00    +0.172 C 
ATOM      3  C   LIG    1       24.631 -14.882   5.117  0.00  0.00    +0.175 C 
ATOM      4  C   LIG    1       23.240 -14.747   4.434  0.00  0.00    +0.169 C 
ATOM      5  C   LIG    1       23.358 -14.918   2.885  0.00  0.00    +0.084 C 
ATOM      6  C   LIG    1       24.666 -14.281   2.360  0.00  0.00    +0.046 C 
ENDROOT
BRANCH   1   8
ATOM      7  C   LIG    1       28.224 -13.810   3.595  0.00  0.00    +0.242 C 
ATOM      8  N   LIG    1       26.931 -13.685   3.151  0.00  0.00    -0.308 N 
ATOM      9  H   LIG    1       26.819 -12.970   2.419  0.00  0.00    +0.149 HD
ATOM     10  O   LIG    1       28.709 -14.832   4.079  0.00  0.00    -0.273 OA
BRANCH   7  11
ATOM     11  C   LIG    1       29.089 -12.584   3.440  0.00  0.00    +0.201 C 
BRANCH  11  12
ATOM     12  O   LIG    1       28.478 -11.655   2.545  0.00  0.00    -0.383 OA
ATOM     13  H   LIG    1       28.214 -12.183   1.767  0.00  0.00    +0.210 HD
ENDBRANCH  11  12
BRANCH  11  14
ATOM     14  C   LIG    1       29.475 -11.906   4.765  0.00  0.00    +0.056 C 
BRANCH  14  15
ATOM     15  C   LIG    1       28.408 -11.883   5.856  0.00  0.00    +0.080 C 
BRANCH  15  16
ATOM     16  N   LIG    1       27.801 -13.194   6.075  0.00  0.00    -0.330 NA
ATOM     17  H   LIG    1       28.467 -13.750   6.619  0.00  0.00    +0.118 HD
ATOM     18  H   LIG    1       27.029 -13.097   6.757  0.00  0.00    +0.118 HD
ENDBRANCH  15  16
ENDBRANCH  14  15
ENDBRANCH  11  14
ENDBRANCH   7  11
ENDBRANCH   1   8
BRANCH   5  19
ATOM     19  N   LIG    1       22.250 -14.280   2.134  0.00  0.00    -0.325 NA
ATOM     20  H   LIG    1       22.125 -14.701   1.215  0.00  0.00    +0.118 HD
ATOM     21  H   LIG    1       22.518 -13.319   1.908  0.00  0.00    +0.118 HD
ENDBRANCH   5  19
BRANCH   3  22
ATOM     22  O   LIG    1       25.098 -13.561   5.467  0.00  0.00    -0.387 OA
ATOM     23  H   LIG    1       25.487 -13.143   4.672  0.00  0.00    +0.210 HD
ENDBRANCH   3  22
BRANCH   4  24
ATOM     24  O   LIG    1       22.353 -15.683   5.084  0.00  0.00    -0.341 OA
BRANCH  24  25
ATOM     25  C   LIG    1       22.454 -17.056   4.693  0.00  0.00    +0.282 C 
ATOM     26  C   LIG    1       22.191 -17.217   3.173  0.00  0.00    +0.201 C 
ATOM     27  C   LIG    1       22.046 -18.683   2.749  0.00  0.00    +0.179 C 
ATOM     28  C   LIG    1       21.156 -19.472   3.721  0.00  0.00    +0.175 C 
ATOM     29  C   LIG    1       21.551 -19.231   5.187  0.00  0.00    +0.166 C 
ATOM     30  O   LIG    1       21.508 -17.812   5.460  0.00  0.00    -0.342 OA
BRANCH  28  31
ATOM     31  O   LIG    1       19.784 -19.082   3.556  0.00  0.00    -0.387 OA
ATOM     32  H   LIG    1       19.692 -18.198   3.972  0.00  0.00    +0.210 HD
ENDBRANCH  28  31
BRANCH  27  33
ATOM     33  O   LIG    1       23.340 -19.289   2.658  0.00  0.00    -0.386 OA
ATOM     34  H   LIG    1       23.282 -20.151   3.117  0.00  0.00    +0.210 HD
ENDBRANCH  27  33
BRANCH  26  35
ATOM     35  O   LIG    1       20.996 -16.503   2.803  0.00  0.00    -0.384 OA
ATOM     36  H   LIG    1       20.347 -17.185   2.523  0.00  0.00    +0.210 HD
ENDBRANCH  26  35
BRANCH  29  37
ATOM     37  C   LIG    1       22.898 -19.900   5.569  0.00  0.00    +0.112 C 
BRANCH  37  38
ATOM     38  N   LIG    1       22.777 -20.801   6.720  0.00  0.00    -0.328 NA
ATOM     39  H   LIG    1       23.650 -20.770   7.254  0.00  0.00    +0.118 HD
ATOM     40  H   LIG    1       22.077 -20.424   7.361  0.00  0.00    +0.118 HD
ENDBRANCH  37  38
ENDBRANCH  29  37
ENDBRANCH  24  25
ENDBRANCH   4  24
BRANCH   2  41
ATOM     41  O   LIG    1       25.120 -16.960   3.924  0.00  0.00    -0.341 OA
BRANCH  41  42
ATOM     42  C   LIG    1       25.698 -18.119   4.565  0.00  0.00    +0.281 C 
ATOM     43  C   LIG    1       26.641 -18.748   3.508  0.00  0.00    +0.189 C 
ATOM     44  C   LIG    1       27.238 -20.100   3.952  0.00  0.00    +0.116 C 
ATOM     45  C   LIG    1       26.108 -21.000   4.507  0.00  0.00    +0.165 C 
ATOM     46  C   LIG    1       25.263 -20.277   5.578  0.00  0.00    +0.177 C 
ATOM     47  O   LIG    1       24.722 -19.047   5.036  0.00  0.00    -0.341 OA
BRANCH  44  48
ATOM     48  N   LIG    1       28.366 -19.973   4.898  0.00  0.00    -0.323 NA
ATOM     49  H   LIG    1       29.016 -20.745   4.720  0.00  0.00    +0.119 HD
ATOM     50  H   LIG    1       28.903 -19.136   4.655  0.00  0.00    +0.119 HD
ENDBRANCH  44  48
BRANCH  45  51
ATOM     51  O   LIG    1       25.263 -21.376   3.404  0.00  0.00    -0.388 OA
ATOM     52  H   LIG    1       24.338 -21.317   3.700  0.00  0.00    +0.210 HD
ENDBRANCH  45  51
BRANCH  43  53
ATOM     53  O   LIG    1       25.951 -18.960   2.261  0.00  0.00    -0.385 OA
ATOM     54  H   LIG    1       25.609 -19.878   2.302  0.00  0.00    +0.210 HD
ENDBRANCH  43  53
BRANCH  46  55
ATOM     55  C   LIG    1       26.030 -20.122   6.910  0.00  0.00    +0.190 C 
BRANCH  55  56
ATOM     56  O   LIG    1       27.018 -21.140   7.062  0.00  0.00    -0.392 OA
ATOM     57  H   LIG    1       27.564 -21.122   6.256  0.00  0.00    +0.209 HD
ENDBRANCH  55  56
ENDBRANCH  46  55
ENDBRANCH  41  42
ENDBRANCH   2  41
TORSDOF 22
ENDMDL
MODEL 2
REMARK VINA RESULT:      18.0      2.142      6.709
REMARK  Name = *****
REMARK                            x       y       z     vdW  Elec       q    Type
REMARK                         _______ _______ _______ _____ _____    ______ ____
ROOT
ATOM      1  C   LIG    1       23.262 -18.315   4.672  0.00  0.00    +0.106 C 
ATOM      2  C   LIG    1       24.134 -18.000   3.424  0.00  0.00    +0.172 C 
ATOM      3  C   LIG    1       23.437 -16.877   2.598  0.00  0.00    +0.175 C 
ATOM      4  C   LIG    1       23.378 -15.514   3.346  0.00  0.00    +0.169 C 
ATOM      5  C   LIG    1       23.505 -15.718   4.890  0.00  0.00    +0.084 C 
ATOM      6  C   LIG    1       22.772 -17.004   5.337  0.00  0.00    +0.046 C 
ENDROOT
BRANCH   1   8
ATOM      7  C   LIG    1       22.091 -20.544   4.244  0.00  0.00    +0.242 C 
ATOM      8  N   LIG    1       22.047 -19.184   4.423  0.00  0.00    -0.308 N 
ATOM      9  H   LIG    1       21.226 -18.870   4.960  0.00  0.00    +0.149 HD
ATOM     10  O   LIG    1       23.117 -21.201   4.075  0.00  0.00    -0.273 OA
BRANCH   7  11
ATOM     11  C   LIG    1       20.760 -21.252   4.287  0.00  0.00    +0.201 C 
BRANCH  11  12
ATOM     12  O   LIG    1       20.411 -21.571   5.634  0.00  0.00    -0.383 OA
ATOM     13  H   LIG    1       21.246 -21.512   6.137  0.00  0.00    +0.210 HD
ENDBRANCH  11  12
BRANCH  11  14
ATOM     14  C   LIG    1       19.617 -20.502   3.582  0.00  0.00    +0.056 C 
BRANCH  14  15
ATOM     15  C   LIG    1       19.498 -19.008   3.874  0.00  0.00    +0.080 C 
BRANCH  15  16
ATOM     16  N   LIG    1       19.675 -18.187   2.679  0.00  0.00    -0.330 NA
ATOM     17  H   LIG    1       20.349 -18.669   2.076  0.00  0.00    +0.118 HD
ATOM     18  H   LIG    1       18.820 -18.248   2.100  0.00  0.00    +0.118 HD
ENDBRANCH  15  16
ENDBRANCH  14  15
ENDBRANCH  11  14
ENDBRANCH   7  11
ENDBRANCH   1   8
BRANCH   5  19
ATOM     19  N   LIG    1       22.925 -14.607   5.683  0.00  0.00    -0.325 NA
ATOM     20  H   LIG    1       23.183 -14.669   6.666  0.00  0.00    +0.118 HD
ATOM     21  H   LIG    1       21.908 -14.720   5.709  0.00  0.00    +0.118 HD
ENDBRANCH   5  19
BRANCH   3  22
ATOM     22  O   LIG    1       22.096 -17.237   2.200  0.00  0.00    -0.387 OA
ATOM     23  H   LIG    1       22.040 -18.211   2.125  0.00  0.00    +0.210 HD
ENDBRANCH   3  22
BRANCH   4  24
ATOM     24  O   LIG    1       24.384 -14.661   2.759  0.00  0.00    -0.341 OA
BRANCH  24  25
ATOM     25  C   LIG    1       25.325 -14.053   3.651  0.00  0.00    +0.282 C 
ATOM     26  C   LIG    1       25.201 -12.508   3.612  0.00  0.00    +0.201 C 
ATOM     27  C   LIG    1       26.340 -11.803   4.357  0.00  0.00    +0.179 C 
ATOM     28  C   LIG    1       27.706 -12.425   4.028  0.00  0.00    +0.175 C 
ATOM     29  C   LIG    1       27.680 -13.958   4.132  0.00  0.00    +0.166 C 
ATOM     30  O   LIG    1       26.641 -14.472   3.269  0.00  0.00    -0.342 OA
BRANCH  28  31
ATOM     31  O   LIG    1       28.096 -12.072   2.692  0.00  0.00    -0.387 OA
ATOM     32  H   LIG    1       27.292 -11.731   2.246  0.00  0.00    +0.210 HD
ENDBRANCH  28  31
BRANCH  27  33
ATOM     33  O   LIG    1       26.099 -11.854   5.768  0.00  0.00    -0.386 OA
ATOM     34  H   LIG    1       25.344 -11.260   5.948  0.00  0.00    +0.210 HD
ENDBRANCH  27  33
BRANCH  26  35
ATOM     35  O   LIG    1       25.183 -12.050   2.246  0.00  0.00    -0.384 OA
ATOM     36  H   LIG    1       24.832 -11.133   2.271  0.00  0.00    +0.210 HD
ENDBRANCH  26  35
BRANCH  29  37
ATOM     37  C   LIG    1       27.583 -14.464   5.595  0.00  0.00    +0.112 C 
BRANCH  37  38
ATOM     38  N   LIG    1       27.953 -13.438   6.576  0.00  0.00    -0.328 NA
ATOM     39  H   LIG    1       28.132 -12.560   6.081  0.00  0.00    +0.118 HD
ATOM     40  H   LIG    1       27.142 -13.234   7.162  0.00  0.00    +0.118 HD
ENDBRANCH  37  38
ENDBRANCH  29  37
ENDBRANCH  24  25
ENDBRANCH   4  24
BRANCH   2  41
ATOM     41  O   LIG    1       25.451 -17.560   3.805  0.00  0.00    -0.341 OA
BRANCH  41  42
ATOM     42  C   LIG    1       26.161 -18.335   4.796  0.00  0.00    +0.281 C 
ATOM     43  C   LIG    1       27.630 -17.844   4.730  0.00  0.00    +0.189 C 
ATOM     44  C   LIG    1       28.589 -18.670   5.612  0.00  0.00    +0.116 C 
ATOM     45  C   LIG    1       28.343 -20.177   5.361  0.00  0.00    +0.165 C 
ATOM     46  C   LIG    1       26.850 -20.551   5.492  0.00  0.00    +0.177 C 
ATOM     47  O   LIG    1       26.055 -19.743   4.591  0.00  0.00    -0.341 OA
BRANCH  44  48
ATOM     48  N   LIG    1       28.527 -18.326   7.047  0.00  0.00    -0.323 NA
ATOM     49  H   LIG    1       28.847 -17.359   7.154  0.00  0.00    +0.119 HD
ATOM     50  H   LIG    1       27.544 -18.295   7.333  0.00  0.00    +0.119 HD
ENDBRANCH  44  48
BRANCH  45  51
ATOM     51  O   LIG    1       28.797 -20.482   4.030  0.00  0.00    -0.388 OA
ATOM     52  H   LIG    1       28.064 -20.308   3.414  0.00  0.00    +0.210 HD
ENDBRANCH  45  51
BRANCH  43  53
ATOM     53  O   LIG    1       28.128 -17.885   3.379  0.00  0.00    -0.385 OA
ATOM     54  H   LIG    1       27.353 -17.701   2.806  0.00  0.00    +0.210 HD
ENDBRANCH  43  53
BRANCH  46  55
ATOM     55  C   LIG    1       26.381 -20.542   6.964  0.00  0.00    +0.190 C 
BRANCH  55  56
ATOM     56  O   LIG    1       24.965 -20.684   7.058  0.00  0.00    -0.392 OA
ATOM     57  H   LIG    1       24.603 -20.477   6.179  0.00  0.00    +0.209 HD
ENDBRANCH  55  56
ENDBRANCH  46  55
ENDBRANCH  41  42
ENDBRANCH   2  41
TORSDOF 22
ENDMDL
MODEL 3
REMARK VINA RESULT:      18.6      1.515      1.742
REMARK  Name = *****
REMARK                            x       y       z     vdW  Elec       q    Type
REMARK                         _______ _______ _______ _____ _____    ______ ____
ROOT
ATOM      1  C   LIG    1       26.332 -14.734   2.781  0.00  0.00    +0.106 C 
ATOM      2  C   LIG    1       26.090 -15.627   4.030  0.00  0.00    +0.172 C 
ATOM      3  C   LIG    1       25.015 -14.945   4.931  0.00  0.00    +0.175 C 
ATOM      4  C   LIG    1       23.611 -14.879   4.262  0.00  0.00    +0.169 C 
ATOM      5  C   LIG    1       23.727 -14.981   2.707  0.00  0.00    +0.084 C 
ATOM      6  C   LIG    1       24.985 -14.237   2.199  0.00  0.00    +0.046 C 
ENDROOT
BRANCH   1   8
ATOM      7  C   LIG    1       28.411 -13.543   3.665  0.00  0.00    +0.242 C 
ATOM      8  N   LIG    1       27.211 -13.521   2.999  0.00  0.00    -0.308 N 
ATOM      9  H   LIG    1       27.207 -12.885   2.189  0.00  0.00    +0.149 HD
ATOM     10  O   LIG    1       28.835 -14.491   4.326  0.00  0.00    -0.273 OA
BRANCH   7  11
ATOM     11  C   LIG    1       29.255 -12.300   3.533  0.00  0.00    +0.201 C 
BRANCH  11  12
ATOM     12  O   LIG    1       28.729 -11.448   2.516  0.00  0.00    -0.383 OA
ATOM     13  H   LIG    1       27.980 -11.942   2.129  0.00  0.00    +0.210 HD
ENDBRANCH  11  12
BRANCH  11  14
ATOM     14  C   LIG    1       29.462 -11.529   4.848  0.00  0.00    +0.056 C 
BRANCH  14  15
ATOM     15  C   LIG    1       28.555 -11.913   6.014  0.00  0.00    +0.080 C 
BRANCH  15  16
ATOM     16  N   LIG    1       27.202 -12.256   5.584  0.00  0.00    -0.330 NA
ATOM     17  H   LIG    1       26.908 -13.072   6.128  0.00  0.00    +0.118 HD
ATOM     18  H   LIG    1       26.545 -11.541   5.939  0.00  0.00    +0.118 HD
ENDBRANCH  15  16
ENDBRANCH  14  15
ENDBRANCH  11  14
ENDBRANCH   7  11
ENDBRANCH   1   8
BRANCH   5  19
ATOM     19  N   LIG    1       22.572 -14.392   1.987  0.00  0.00    -0.325 NA
ATOM     20  H   LIG    1       21.865 -14.041   2.630  0.00  0.00    +0.118 HD
ATOM     21  H   LIG    1       22.078 -15.139   1.494  0.00  0.00    +0.118 HD
ENDBRANCH   5  19
BRANCH   3  22
ATOM     22  O   LIG    1       25.394 -13.611   5.329  0.00  0.00    -0.387 OA
ATOM     23  H   LIG    1       25.924 -13.206   4.612  0.00  0.00    +0.210 HD
ENDBRANCH   3  22
BRANCH   4  24
ATOM     24  O   LIG    1       22.795 -15.897   4.880  0.00  0.00    -0.341 OA
BRANCH  24  25
ATOM     25  C   LIG    1       22.451 -17.032   4.079  0.00  0.00    +0.282 C 
ATOM     26  C   LIG    1       20.912 -17.197   3.991  0.00  0.00    +0.201 C 
ATOM     27  C   LIG    1       20.494 -18.527   3.354  0.00  0.00    +0.179 C 
ATOM     28  C   LIG    1       21.314 -19.705   3.904  0.00  0.00    +0.175 C 
ATOM     29  C   LIG    1       22.821 -19.403   3.908  0.00  0.00    +0.166 C 
ATOM     30  O   LIG    1       23.059 -18.193   4.661  0.00  0.00    -0.342 OA
BRANCH  28  31
ATOM     31  O   LIG    1       20.911 -19.995   5.251  0.00  0.00    -0.387 OA
ATOM     32  H   LIG    1       21.726 -19.985   5.797  0.00  0.00    +0.210 HD
ENDBRANCH  28  31
BRANCH  27  33
ATOM     33  O   LIG    1       20.635 -18.447   1.931  0.00  0.00    -0.386 OA
ATOM     34  H   LIG    1       21.163 -17.646   1.743  0.00  0.00    +0.210 HD
ENDBRANCH  27  33
BRANCH  26  35
ATOM     35  O   LIG    1       20.330 -17.107   5.305  0.00  0.00    -0.384 OA
ATOM     36  H   LIG    1       19.599 -16.455   5.236  0.00  0.00    +0.210 HD
ENDBRANCH  26  35
BRANCH  29  37
ATOM     37  C   LIG    1       23.438 -19.385   2.485  0.00  0.00    +0.112 C 
BRANCH  37  38
ATOM     38  N   LIG    1       23.931 -20.700   2.063  0.00  0.00    -0.328 NA
ATOM     39  H   LIG    1       24.921 -20.616   1.816  0.00  0.00    +0.118 HD
ATOM     40  H   LIG    1       23.925 -21.328   2.867  0.00  0.00    +0.118 HD
ENDBRANCH  37  38
ENDBRANCH  29  37
ENDBRANCH  24  25
ENDBRANCH   4  24
BRANCH   2  41
ATOM     41  O   LIG    1       25.632 -16.938   3.654  0.00  0.00    -0.341 OA
BRANCH  41  42
ATOM     42  C   LIG    1       25.975 -18.046   4.516  0.00  0.00    +0.281 C 
ATOM     43  C   LIG    1       27.485 -17.878   4.824  0.00  0.00    +0.189 C 
ATOM     44  C   LIG    1       28.082 -19.064   5.611  0.00  0.00    +0.116 C 
ATOM     45  C   LIG    1       27.646 -20.390   4.944  0.00  0.00    +0.165 C 
ATOM     46  C   LIG    1       26.119 -20.456   4.725  0.00  0.00    +0.177 C 
ATOM     47  O   LIG    1       25.681 -19.318   3.942  0.00  0.00    -0.341 OA
BRANCH  44  48
ATOM     48  N   LIG    1       27.774 -19.038   7.056  0.00  0.00    -0.323 NA
ATOM     49  H   LIG    1       28.660 -19.086   7.568  0.00  0.00    +0.119 HD
ATOM     50  H   LIG    1       27.401 -18.114   7.293  0.00  0.00    +0.119 HD
ENDBRANCH  44  48
BRANCH  45  51
ATOM     51  O   LIG    1       28.316 -20.485   3.674  0.00  0.00    -0.388 OA
ATOM     52  H   LIG    1       27.906 -19.844   3.067  0.00  0.00    +0.210 HD
ENDBRANCH  45  51
BRANCH  43  53
ATOM     53  O   LIG    1       28.245 -17.727   3.610  0.00  0.00    -0.385 OA
ATOM     54  H   LIG    1       28.446 -18.639   3.309  0.00  0.00    +0.210 HD
ENDBRANCH  43  53
BRANCH  46  55
ATOM     55  C   LIG    1       25.355 -20.670   6.050  0.00  0.00    +0.190 C 
BRANCH  55  56
ATOM     56  O   LIG    1       23.996 -21.030   5.814  0.00  0.00    -0.392 OA
ATOM     57  H   LIG    1       23.931 -21.990   5.961  0.00  0.00    +0.209 HD
ENDBRANCH  55  56
ENDBRANCH  46  55
ENDBRANCH  41  42
ENDBRANCH   2  41
TORSDOF 22
ENDMDL
MODEL 4
REMARK VINA RESULT:      18.8      2.072      6.564
REMARK  Name = *****
REMARK                            x       y       z     vdW  Elec       q    Type
REMARK                         _______ _______ _______ _____ _____    ______ ____
ROOT
ATOM      1  C   LIG    1       23.207 -18.463   4.951  0.00  0.00    +0.106 C 
ATOM      2  C   LIG    1       24.057 -17.870   3.792  0.00  0.00    +0.172 C 
ATOM      3  C   LIG    1       23.237 -16.740   3.098  0.00  0.00    +0.175 C 
ATOM      4  C   LIG    1       22.986 -15.512   4.021  0.00  0.00    +0.169 C 
ATOM      5  C   LIG    1       23.107 -15.911   5.527  0.00  0.00    +0.084 C 
ATOM      6  C   LIG    1       22.538 -17.329   5.768  0.00  0.00    +0.046 C 
ENDROOT
BRANCH   1   8
ATOM      7  C   LIG    1       22.139 -20.779   4.816  0.00  0.00    +0.242 C 
ATOM      8  N   LIG    1       22.120 -19.434   4.542  0.00  0.00    -0.308 N 
ATOM      9  H   LIG    1       21.181 -19.018   4.607  0.00  0.00    +0.149 HD
ATOM     10  O   LIG    1       23.110 -21.396   5.254  0.00  0.00    -0.273 OA
BRANCH   7  11
ATOM     11  C   LIG    1       20.847 -21.515   4.569  0.00  0.00    +0.201 C 
BRANCH  11  12
ATOM     12  O   LIG    1       20.069 -21.566   5.764  0.00  0.00    -0.383 OA
ATOM     13  H   LIG    1       20.694 -21.827   6.467  0.00  0.00    +0.210 HD
ENDBRANCH  11  12
BRANCH  11  14
ATOM     14  C   LIG    1       20.019 -20.970   3.392  0.00  0.00    +0.056 C 
BRANCH  14  15
ATOM     15  C   LIG    1       19.355 -19.611   3.596  0.00  0.00    +0.080 C 
BRANCH  15  16
ATOM     16  N   LIG    1       19.949 -18.565   2.766  0.00  0.00    -0.330 NA
ATOM     17  H   LIG    1       20.952 -18.760   2.704  0.00  0.00    +0.118 HD
ATOM     18  H   LIG    1       19.662 -18.714   1.783  0.00  0.00    +0.118 HD
ENDBRANCH  15  16
ENDBRANCH  14  15
ENDBRANCH  11  14
ENDBRANCH   7  11
ENDBRANCH   1   8
BRANCH   5  19
ATOM     19  N   LIG    1       22.372 -15.003   6.440  0.00  0.00    -0.325 NA
ATOM     20  H   LIG    1       22.852 -14.113   6.556  0.00  0.00    +0.118 HD
ATOM     21  H   LIG    1       22.397 -15.397   7.384  0.00  0.00    +0.118 HD
ENDBRANCH   5  19
BRANCH   3  22
ATOM     22  O   LIG    1       21.963 -17.207   2.605  0.00  0.00    -0.387 OA
ATOM     23  H   LIG    1       22.022 -17.319   1.634  0.00  0.00    +0.210 HD
ENDBRANCH   3  22
BRANCH   4  24
ATOM     24  O   LIG    1       23.886 -14.467   3.593  0.00  0.00    -0.341 OA
BRANCH  24  25
ATOM     25  C   LIG    1       25.188 -14.444   4.187  0.00  0.00    +0.282 C 
ATOM     26  C   LIG    1       25.511 -13.037   4.753  0.00  0.00    +0.201 C 
ATOM     27  C   LIG    1       26.976 -12.891   5.178  0.00  0.00    +0.179 C 
ATOM     28  C   LIG    1       27.934 -13.484   4.133  0.00  0.00    +0.175 C 
ATOM     29  C   LIG    1       27.499 -14.888   3.686  0.00  0.00    +0.166 C 
ATOM     30  O   LIG    1       26.143 -14.827   3.189  0.00  0.00    -0.342 OA
BRANCH  28  31
ATOM     31  O   LIG    1       27.979 -12.638   2.974  0.00  0.00    -0.387 OA
ATOM     32  H   LIG    1       27.131 -12.767   2.499  0.00  0.00    +0.210 HD
ENDBRANCH  28  31
BRANCH  27  33
ATOM     33  O   LIG    1       27.176 -13.522   6.448  0.00  0.00    -0.386 OA
ATOM     34  H   LIG    1       28.105 -13.826   6.470  0.00  0.00    +0.210 HD
ENDBRANCH  27  33
BRANCH  26  35
ATOM     35  O   LIG    1       25.208 -12.029   3.769  0.00  0.00    -0.384 OA
ATOM     36  H   LIG    1       24.824 -12.505   3.001  0.00  0.00    +0.210 HD
ENDBRANCH  26  35
BRANCH  29  37
ATOM     37  C   LIG    1       27.715 -15.966   4.781  0.00  0.00    +0.112 C 
BRANCH  37  38
ATOM     38  N   LIG    1       28.825 -16.874   4.472  0.00  0.00    -0.328 NA
ATOM     39  H   LIG    1       28.487 -17.601   3.836  0.00  0.00    +0.118 HD
ATOM     40  H   LIG    1       29.523 -16.368   3.927  0.00  0.00    +0.118 HD
ENDBRANCH  37  38
ENDBRANCH  29  37
ENDBRANCH  24  25
ENDBRANCH   4  24
BRANCH   2  41
ATOM     41  O   LIG    1       25.297 -17.326   4.278  0.00  0.00    -0.341 OA
BRANCH  41  42
ATOM     42  C   LIG    1       26.274 -18.246   4.813  0.00  0.00    +0.281 C 
ATOM     43  C   LIG    1       26.372 -19.394   3.776  0.00  0.00    +0.189 C 
ATOM     44  C   LIG    1       27.258 -20.566   4.246  0.00  0.00    +0.116 C 
ATOM     45  C   LIG    1       26.862 -20.959   5.689  0.00  0.00    +0.165 C 
ATOM     46  C   LIG    1       26.836 -19.739   6.636  0.00  0.00    +0.177 C 
ATOM     47  O   LIG    1       25.943 -18.725   6.116  0.00  0.00    -0.341 OA
BRANCH  44  48
ATOM     48  N   LIG    1       28.707 -20.310   4.115  0.00  0.00    -0.323 NA
ATOM     49  H   LIG    1       28.833 -19.540   3.452  0.00  0.00    +0.119 HD
ATOM     50  H   LIG    1       29.054 -19.933   5.002  0.00  0.00    +0.119 HD
ENDBRANCH  44  48
BRANCH  45  51
ATOM     51  O   LIG    1       25.552 -21.553   5.640  0.00  0.00    -0.388 OA
ATOM     52  H   LIG    1       25.622 -22.466   5.973  0.00  0.00    +0.210 HD
ENDBRANCH  45  51
BRANCH  43  53
ATOM     53  O   LIG    1       25.069 -19.923   3.466  0.00  0.00    -0.385 OA
ATOM     54  H   LIG    1       25.137 -20.276   2.554  0.00  0.00    +0.210 HD
ENDBRANCH  43  53
BRANCH  46  55
ATOM     55  C   LIG    1       28.259 -19.244   6.977  0.00  0.00    +0.190 C 
BRANCH  55  56
ATOM     56  O   LIG    1       29.183 -20.329   7.051  0.00  0.00    -0.392 OA
ATOM     57  H   LIG    1       29.369 -20.474   7.995  0.00  0.00    +0.209 HD
ENDBRANCH  55  56
ENDBRANCH  46  55
ENDBRANCH  41  42
ENDBRANCH   2  41
TORSDOF 22
ENDMDL
MODEL 5
REMARK VINA RESULT:      19.2      1.488      2.124
REMARK  Name = *****
REMARK                            x       y       z     vdW  Elec       q    Type
REMARK                         _______ _______ _______ _____ _____    ______ ____
ROOT
ATOM      1  C   LIG    1       25.830 -15.037   2.884  0.00  0.00    +0.106 C 
ATOM      2  C   LIG    1       25.773 -15.904   4.173  0.00  0.00    +0.172 C 
ATOM      3  C   LIG    1       24.831 -15.208   5.202  0.00  0.00    +0.175 C 
ATOM      4  C   LIG    1       23.347 -15.159   4.737  0.00  0.00    +0.169 C 
ATOM      5  C   LIG    1       23.243 -15.294   3.183  0.00  0.00    +0.084 C 
ATOM      6  C   LIG    1       24.411 -14.558   2.488  0.00  0.00    +0.046 C 
ENDROOT
BRANCH   1   8
ATOM      7  C   LIG    1       27.993 -13.813   3.475  0.00  0.00    +0.242 C 
ATOM      8  N   LIG    1       26.724 -13.817   2.951  0.00  0.00    -0.308 N 
ATOM      9  H   LIG    1       26.624 -13.214   2.122  0.00  0.00    +0.149 HD
ATOM     10  O   LIG    1       28.493 -14.734   4.120  0.00  0.00    -0.273 OA
BRANCH   7  11
ATOM     11  C   LIG    1       28.811 -12.577   3.197  0.00  0.00    +0.201 C 
BRANCH  11  12
ATOM     12  O   LIG    1       28.037 -11.623   2.470  0.00  0.00    -0.383 OA
ATOM     13  H   LIG    1       27.903 -12.019   1.588  0.00  0.00    +0.210 HD
ENDBRANCH  11  12
BRANCH  11  14
ATOM     14  C   LIG    1       29.445 -11.941   4.445  0.00  0.00    +0.056 C 
BRANCH  14  15
ATOM     15  C   LIG    1       28.848 -12.337   5.792  0.00  0.00    +0.080 C 
BRANCH  15  16
ATOM     16  N   LIG    1       27.390 -12.434   5.754  0.00  0.00    -0.330 NA
ATOM     17  H   LIG    1       27.083 -12.040   4.860  0.00  0.00    +0.118 HD
ATOM     18  H   LIG    1       27.123 -13.425   5.629  0.00  0.00    +0.118 HD
ENDBRANCH  15  16
ENDBRANCH  14  15
ENDBRANCH  11  14
ENDBRANCH   7  11
ENDBRANCH   1   8
BRANCH   5  19
ATOM     19  N   LIG    1       21.994 -14.724   2.622  0.00  0.00    -0.325 NA
ATOM     20  H   LIG    1       21.371 -14.386   3.353  0.00  0.00    +0.118 HD
ATOM     21  H   LIG    1       21.452 -15.479   2.195  0.00  0.00    +0.118 HD
ENDBRANCH   5  19
BRANCH   3  22
ATOM     22  O   LIG    1       25.254 -13.863   5.515  0.00  0.00    -0.387 OA
ATOM     23  H   LIG    1       25.585 -13.438   4.698  0.00  0.00    +0.210 HD
ENDBRANCH   3  22
BRANCH   4  24
ATOM     24  O   LIG    1       22.632 -16.167   5.485  0.00  0.00    -0.341 OA
BRANCH  24  25
ATOM     25  C   LIG    1       21.925 -17.158   4.733  0.00  0.00    +0.282 C 
ATOM     26  C   LIG    1       22.157 -18.571   5.328  0.00  0.00    +0.201 C 
ATOM     27  C   LIG    1       21.626 -19.689   4.425  0.00  0.00    +0.179 C 
ATOM     28  C   LIG    1       21.999 -19.458   2.952  0.00  0.00    +0.175 C 
ATOM     29  C   LIG    1       21.691 -18.022   2.500  0.00  0.00    +0.166 C 
ATOM     30  O   LIG    1       22.373 -17.095   3.373  0.00  0.00    -0.342 OA
BRANCH  28  31
ATOM     31  O   LIG    1       23.402 -19.698   2.760  0.00  0.00    -0.387 OA
ATOM     32  H   LIG    1       23.780 -18.870   2.393  0.00  0.00    +0.210 HD
ENDBRANCH  28  31
BRANCH  27  33
ATOM     33  O   LIG    1       20.204 -19.790   4.565  0.00  0.00    -0.386 OA
ATOM     34  H   LIG    1       19.850 -20.047   3.691  0.00  0.00    +0.210 HD
ENDBRANCH  27  33
BRANCH  26  35
ATOM     35  O   LIG    1       23.563 -18.784   5.557  0.00  0.00    -0.384 OA
ATOM     36  H   LIG    1       23.770 -19.667   5.180  0.00  0.00    +0.210 HD
ENDBRANCH  26  35
BRANCH  29  37
ATOM     37  C   LIG    1       20.171 -17.745   2.360  0.00  0.00    +0.112 C 
BRANCH  37  38
ATOM     38  N   LIG    1       19.353 -18.943   2.581  0.00  0.00    -0.328 NA
ATOM     39  H   LIG    1       19.838 -19.554   3.244  0.00  0.00    +0.118 HD
ATOM     40  H   LIG    1       18.498 -18.673   3.069  0.00  0.00    +0.118 HD
ENDBRANCH  37  38
ENDBRANCH  29  37
ENDBRANCH  24  25
ENDBRANCH   4  24
BRANCH   2  41
ATOM     41  O   LIG    1       25.274 -17.225   3.892  0.00  0.00    -0.341 OA
BRANCH  41  42
ATOM     42  C   LIG    1       25.786 -18.321   4.682  0.00  0.00    +0.281 C 
ATOM     43  C   LIG    1       27.287 -18.005   4.903  0.00  0.00    +0.189 C 
ATOM     44  C   LIG    1       28.055 -19.149   5.598  0.00  0.00    +0.116 C 
ATOM     45  C   LIG    1       27.717 -20.489   4.901  0.00  0.00    +0.165 C 
ATOM     46  C   LIG    1       26.194 -20.708   4.772  0.00  0.00    +0.177 C 
ATOM     47  O   LIG    1       25.589 -19.596   4.070  0.00  0.00    -0.341 OA
BRANCH  44  48
ATOM     48  N   LIG    1       27.842 -19.211   7.059  0.00  0.00    -0.323 NA
ATOM     49  H   LIG    1       27.760 -18.251   7.407  0.00  0.00    +0.119 HD
ATOM     50  H   LIG    1       26.919 -19.619   7.237  0.00  0.00    +0.119 HD
ENDBRANCH  44  48
BRANCH  45  51
ATOM     51  O   LIG    1       28.309 -20.463   3.589  0.00  0.00    -0.388 OA
ATOM     52  H   LIG    1       29.205 -20.838   3.655  0.00  0.00    +0.210 HD
ENDBRANCH  45  51
BRANCH  43  53
ATOM     53  O   LIG    1       27.947 -17.728   3.653  0.00  0.00    -0.385 OA
ATOM     54  H   LIG    1       28.727 -17.180   3.882  0.00  0.00    +0.210 HD
ENDBRANCH  43  53
BRANCH  46  55
ATOM     55  C   LIG    1       25.545 -21.053   6.131  0.00  0.00    +0.190 C 
BRANCH  55  56
ATOM     56  O   LIG    1       24.149 -21.310   5.990  0.00  0.00    -0.392 OA
ATOM     57  H   LIG    1       23.687 -20.489   6.237  0.00  0.00    +0.209 HD
ENDBRANCH  55  56
ENDBRANCH  46  55
ENDBRANCH  41  42
ENDBRANCH   2  41
TORSDOF 22
ENDMDL
MODEL 6
REMARK VINA RESULT:      19.4      2.017      6.620
REMARK  Name = *****
REMARK                            x       y       z     vdW  Elec       q    Type
REMARK                         _______ _______ _______ _____ _____    ______ ____
ROOT
ATOM      1  C   LIG    1       23.529 -18.296   5.242  0.00  0.00    +0.106 C 
ATOM      2  C   LIG    1       24.513 -18.330   4.039  0.00  0.00    +0.172 C 
ATOM      3  C   LIG    1       23.916 -17.471   2.882  0.00  0.00    +0.175 C 
ATOM      4  C   LIG    1       23.827 -15.957   3.228  0.00  0.00    +0.169 C 
ATOM      5  C   LIG    1       23.817 -15.737   4.775  0.00  0.00    +0.084 C 
ATOM      6  C   LIG    1       23.017 -16.854   5.485  0.00  0.00    +0.046 C 
ENDROOT
BRANCH   1   8
ATOM      7  C   LIG    1       22.130 -20.120   4.130  0.00  0.00    +0.242 C 
ATOM      8  N   LIG    1       22.319 -19.199   5.130  0.00  0.00    -0.308 N 
ATOM      9  H   LIG    1       21.987 -19.521   6.049  0.00  0.00    +0.149 HD
ATOM     10  O   LIG    1       22.810 -20.202   3.108  0.00  0.00    -0.273 OA
BRANCH   7  11
ATOM     11  C   LIG    1       21.007 -21.102   4.350  0.00  0.00    +0.201 C 
BRANCH  11  12
ATOM     12  O   LIG    1       21.015 -21.572   5.698  0.00  0.00    -0.383 OA
ATOM     13  H   LIG    1       21.946 -21.803   5.883  0.00  0.00    +0.210 HD
ENDBRANCH  11  12
BRANCH  11  14
ATOM     14  C   LIG    1       19.616 -20.576   3.956  0.00  0.00    +0.056 C 
BRANCH  14  15
ATOM     15  C   LIG    1       19.581 -19.383   3.006  0.00  0.00    +0.080 C 
BRANCH  15  16
ATOM     16  N   LIG    1       20.000 -18.140   3.650  0.00  0.00    -0.330 NA
ATOM     17  H   LIG    1       19.178 -17.749   4.119  0.00  0.00    +0.118 HD
ATOM     18  H   LIG    1       20.595 -18.368   4.464  0.00  0.00    +0.118 HD
ENDBRANCH  15  16
ENDBRANCH  14  15
ENDBRANCH  11  14
ENDBRANCH   7  11
ENDBRANCH   1   8
BRANCH   5  19
ATOM     19  N   LIG    1       23.199 -14.452   5.186  0.00  0.00    -0.325 NA
ATOM     20  H   LIG    1       23.680 -14.039   5.981  0.00  0.00    +0.118 HD
ATOM     21  H   LIG    1       22.266 -14.644   5.559  0.00  0.00    +0.118 HD
ENDBRANCH   5  19
BRANCH   3  22
ATOM     22  O   LIG    1       22.606 -17.925   2.478  0.00  0.00    -0.387 OA
ATOM     23  H   LIG    1       22.706 -18.716   1.912  0.00  0.00    +0.210 HD
ENDBRANCH   3  22
BRANCH   4  24
ATOM     24  O   LIG    1       24.901 -15.295   2.525  0.00  0.00    -0.341 OA
BRANCH  24  25
ATOM     25  C   LIG    1       25.943 -14.720   3.320  0.00  0.00    +0.282 C 
ATOM     26  C   LIG    1       25.457 -13.416   4.005  0.00  0.00    +0.201 C 
ATOM     27  C   LIG    1       26.597 -12.634   4.666  0.00  0.00    +0.179 C 
ATOM     28  C   LIG    1       27.833 -12.551   3.757  0.00  0.00    +0.175 C 
ATOM     29  C   LIG    1       28.208 -13.922   3.171  0.00  0.00    +0.166 C 
ATOM     30  O   LIG    1       27.067 -14.463   2.468  0.00  0.00    -0.342 OA
BRANCH  28  31
ATOM     31  O   LIG    1       27.581 -11.651   2.668  0.00  0.00    -0.387 OA
ATOM     32  H   LIG    1       27.199 -12.189   1.942  0.00  0.00    +0.210 HD
ENDBRANCH  28  31
BRANCH  27  33
ATOM     33  O   LIG    1       26.940 -13.242   5.916  0.00  0.00    -0.386 OA
ATOM     34  H   LIG    1       27.562 -12.636   6.365  0.00  0.00    +0.210 HD
ENDBRANCH  27  33
BRANCH  26  35
ATOM     35  O   LIG    1       24.805 -12.567   3.041  0.00  0.00    -0.384 OA
ATOM     36  H   LIG    1       23.844 -12.756   3.116  0.00  0.00    +0.210 HD
ENDBRANCH  26  35
BRANCH  29  37
ATOM     37  C   LIG    1       28.806 -14.888   4.227  0.00  0.00    +0.112 C 
BRANCH  37  38
ATOM     38  N   LIG    1       27.977 -16.080   4.440  0.00  0.00    -0.328 NA
ATOM     39  H   LIG    1       28.563 -16.911   4.332  0.00  0.00    +0.118 HD
ATOM     40  H   LIG    1       27.682 -16.106   5.417  0.00  0.00    +0.118 HD
ENDBRANCH  37  38
ENDBRANCH  29  37
ENDBRANCH  24  25
ENDBRANCH   4  24
BRANCH   2  41
ATOM     41  O   LIG    1       25.802 -17.805   4.402  0.00  0.00    -0.341 OA
BRANCH  41  42
ATOM     42  C   LIG    1       26.751 -18.707   5.012  0.00  0.00    +0.281 C 
ATOM     43  C   LIG    1       26.537 -20.071   4.307  0.00  0.00    +0.189 C 
ATOM     44  C   LIG    1       27.357 -21.217   4.935  0.00  0.00    +0.116 C 
ATOM     45  C   LIG    1       27.181 -21.188   6.472  0.00  0.00    +0.165 C 
ATOM     46  C   LIG    1       27.459 -19.788   7.062  0.00  0.00    +0.177 C 
ATOM     47  O   LIG    1       26.605 -18.805   6.428  0.00  0.00    -0.341 OA
BRANCH  44  48
ATOM     48  N   LIG    1       28.779 -21.223   4.535  0.00  0.00    -0.323 NA
ATOM     49  H   LIG    1       29.298 -20.651   5.208  0.00  0.00    +0.119 HD
ATOM     50  H   LIG    1       29.152 -22.167   4.672  0.00  0.00    +0.119 HD
ENDBRANCH  44  48
BRANCH  45  51
ATOM     51  O   LIG    1       25.826 -21.572   6.768  0.00  0.00    -0.388 OA
ATOM     52  H   LIG    1       25.233 -20.898   6.391  0.00  0.00    +0.210 HD
ENDBRANCH  45  51
BRANCH  43  53
ATOM     53  O   LIG    1       25.148 -20.455   4.337  0.00  0.00    -0.385 OA
ATOM     54  H   LIG    1       24.994 -20.952   3.506  0.00  0.00    +0.210 HD
ENDBRANCH  43  53
BRANCH  46  55
ATOM     55  C   LIG    1       28.966 -19.448   7.054  0.00  0.00    +0.190 C 
BRANCH  55  56
ATOM     56  O   LIG    1       29.279 -18.498   6.037  0.00  0.00    -0.392 OA
ATOM     57  H   LIG    1       29.970 -18.899   5.482  0.00  0.00    +0.209 HD
ENDBRANCH  55  56
ENDBRANCH  46  55
ENDBRANCH  41  42
ENDBRANCH   2  41
TORSDOF 22
ENDMDL
MODEL 7
REMARK VINA RESULT:      19.5      2.191      6.669
REMARK  Name = *****
REMARK                            x       y       z     vdW  Elec       q    Type
REMARK                         _______ _______ _______ _____ _____    ______ ____
ROOT
ATOM      1  C   LIG    1       23.882 -18.778   4.647  0.00  0.00    +0.106 C 
ATOM      2  C   LIG    1       24.960 -18.629   3.537  0.00  0.00    +0.172 C 
ATOM      3  C   LIG    1       24.371 -17.760   2.383  0.00  0.00    +0.175 C 
ATOM      4  C   LIG    1       24.090 -16.290   2.809  0.00  0.00    +0.169 C 
ATOM      5  C   LIG    1       23.927 -16.177   4.359  0.00  0.00    +0.084 C 
ATOM      6  C   LIG    1       23.197 -17.417   4.927  0.00  0.00    +0.046 C 
ENDROOT
BRANCH   1   8
ATOM      7  C   LIG    1       22.491 -20.848   5.196  0.00  0.00    +0.242 C 
ATOM      8  N   LIG    1       22.791 -19.791   4.373  0.00  0.00    -0.308 N 
ATOM      9  H   LIG    1       21.960 -19.363   3.941  0.00  0.00    +0.149 HD
ATOM     10  O   LIG    1       23.176 -21.218   6.149  0.00  0.00    -0.273 OA
BRANCH   7  11
ATOM     11  C   LIG    1       21.203 -21.571   4.889  0.00  0.00    +0.201 C 
BRANCH  11  12
ATOM     12  O   LIG    1       20.350 -21.572   6.033  0.00  0.00    -0.383 OA
ATOM     13  H   LIG    1       20.805 -22.129   6.693  0.00  0.00    +0.210 HD
ENDBRANCH  11  12
BRANCH  11  14
ATOM     14  C   LIG    1       20.463 -21.050   3.645  0.00  0.00    +0.056 C 
BRANCH  14  15
ATOM     15  C   LIG    1       19.561 -19.835   3.846  0.00  0.00    +0.080 C 
BRANCH  15  16
ATOM     16  N   LIG    1       20.160 -18.602   3.340  0.00  0.00    -0.330 NA
ATOM     17  H   LIG    1       19.490 -17.847   3.512  0.00  0.00    +0.118 HD
ATOM     18  H   LIG    1       20.932 -18.322   3.969  0.00  0.00    +0.118 HD
ENDBRANCH  15  16
ENDBRANCH  14  15
ENDBRANCH  11  14
ENDBRANCH   7  11
ENDBRANCH   1   8
BRANCH   5  19
ATOM     19  N   LIG    1       23.141 -14.994   4.786  0.00  0.00    -0.325 NA
ATOM     20  H   LIG    1       22.147 -15.114   4.601  0.00  0.00    +0.118 HD
ATOM     21  H   LIG    1       23.389 -14.203   4.188  0.00  0.00    +0.118 HD
ENDBRANCH   5  19
BRANCH   3  22
ATOM     22  O   LIG    1       23.157 -18.317   1.837  0.00  0.00    -0.387 OA
ATOM     23  H   LIG    1       22.592 -18.626   2.574  0.00  0.00    +0.210 HD
ENDBRANCH   3  22
BRANCH   4  24
ATOM     24  O   LIG    1       25.140 -15.474   2.245  0.00  0.00    -0.341 OA
BRANCH  24  25
ATOM     25  C   LIG    1       25.556 -14.333   3.002  0.00  0.00    +0.282 C 
ATOM     26  C   LIG    1       27.104 -14.254   3.073  0.00  0.00    +0.201 C 
ATOM     27  C   LIG    1       27.597 -13.198   4.068  0.00  0.00    +0.179 C 
ATOM     28  C   LIG    1       26.818 -13.254   5.391  0.00  0.00    +0.175 C 
ATOM     29  C   LIG    1       25.299 -13.304   5.162  0.00  0.00    +0.166 C 
ATOM     30  O   LIG    1       24.987 -14.432   4.314  0.00  0.00    -0.342 OA
BRANCH  28  31
ATOM     31  O   LIG    1       27.199 -14.421   6.136  0.00  0.00    -0.387 OA
ATOM     32  H   LIG    1       26.473 -15.072   6.027  0.00  0.00    +0.210 HD
ENDBRANCH  28  31
BRANCH  27  33
ATOM     33  O   LIG    1       27.490 -11.895   3.484  0.00  0.00    -0.386 OA
ATOM     34  H   LIG    1       28.400 -11.546   3.403  0.00  0.00    +0.210 HD
ENDBRANCH  27  33
BRANCH  26  35
ATOM     35  O   LIG    1       27.645 -15.536   3.444  0.00  0.00    -0.384 OA
ATOM     36  H   LIG    1       27.678 -15.544   4.426  0.00  0.00    +0.210 HD
ENDBRANCH  26  35
BRANCH  29  37
ATOM     37  C   LIG    1       24.719 -11.960   4.650  0.00  0.00    +0.112 C 
BRANCH  37  38
ATOM     38  N   LIG    1       23.402 -11.656   5.221  0.00  0.00    -0.328 NA
ATOM     39  H   LIG    1       22.681 -12.029   4.597  0.00  0.00    +0.118 HD
ATOM     40  H   LIG    1       23.286 -12.188   6.084  0.00  0.00    +0.118 HD
ENDBRANCH  37  38
ENDBRANCH  29  37
ENDBRANCH  24  25
ENDBRANCH   4  24
BRANCH   2  41
ATOM     41  O   LIG    1       26.150 -17.999   4.045  0.00  0.00    -0.341 OA
BRANCH  41  42
ATOM     42  C   LIG    1       27.076 -18.813   4.798  0.00  0.00    +0.281 C 
ATOM     43  C   LIG    1       26.966 -20.234   4.189  0.00  0.00    +0.189 C 
ATOM     44  C   LIG    1       27.770 -21.295   4.969  0.00  0.00    +0.116 C 
ATOM     45  C   LIG    1       27.468 -21.156   6.480  0.00  0.00    +0.165 C 
ATOM     46  C   LIG    1       27.649 -19.705   6.977  0.00  0.00    +0.177 C 
ATOM     47  O   LIG    1       26.817 -18.808   6.201  0.00  0.00    -0.341 OA
BRANCH  44  48
ATOM     48  N   LIG    1       29.220 -21.274   4.685  0.00  0.00    -0.323 NA
ATOM     49  H   LIG    1       29.530 -20.299   4.700  0.00  0.00    +0.119 HD
ATOM     50  H   LIG    1       29.713 -21.704   5.473  0.00  0.00    +0.119 HD
ENDBRANCH  44  48
BRANCH  45  51
ATOM     51  O   LIG    1       26.107 -21.570   6.697  0.00  0.00    -0.388 OA
ATOM     52  H   LIG    1       26.033 -22.508   6.448  0.00  0.00    +0.210 HD
ENDBRANCH  45  51
BRANCH  43  53
ATOM     53  O   LIG    1       25.594 -20.670   4.139  0.00  0.00    -0.385 OA
ATOM     54  H   LIG    1       25.534 -21.425   4.762  0.00  0.00    +0.210 HD
ENDBRANCH  43  53
BRANCH  46  55
ATOM     55  C   LIG    1       29.139 -19.306   7.061  0.00  0.00    +0.190 C 
BRANCH  55  56
ATOM     56  O   LIG    1       29.475 -18.338   6.068  0.00  0.00    -0.392 OA
ATOM     57  H   LIG    1       28.638 -17.940   5.771  0.00  0.00    +0.209 HD
ENDBRANCH  55  56
ENDBRANCH  46  55
ENDBRANCH  41  42
ENDBRANCH   2  41
TORSDOF 22
ENDMDL
MODEL 8
REMARK VINA RESULT:      20.2      1.827      6.538
REMARK  Name = *****
REMARK                            x       y       z     vdW  Elec       q    Type
REMARK                         _______ _______ _______ _____ _____    ______ ____
ROOT
ATOM      1  C   LIG    1       22.840 -18.334   5.094  0.00  0.00    +0.106 C 
ATOM      2  C   LIG    1       23.704 -17.992   3.848  0.00  0.00    +0.172 C 
ATOM      3  C   LIG    1       22.978 -16.882   3.027  0.00  0.00    +0.175 C 
ATOM      4  C   LIG    1       22.887 -15.525   3.782  0.00  0.00    +0.169 C 
ATOM      5  C   LIG    1       23.021 -15.733   5.324  0.00  0.00    +0.084 C 
ATOM      6  C   LIG    1       22.320 -17.038   5.766  0.00  0.00    +0.046 C 
ENDROOT
BRANCH   1   8
ATOM      7  C   LIG    1       20.587 -18.903   4.035  0.00  0.00    +0.242 C 
ATOM      8  N   LIG    1       21.647 -19.231   4.843  0.00  0.00    -0.308 N 
ATOM      9  H   LIG    1       21.911 -20.224   4.785  0.00  0.00    +0.149 HD
ATOM     10  O   LIG    1       20.376 -17.784   3.567  0.00  0.00    -0.273 OA
BRANCH   7  11
ATOM     11  C   LIG    1       19.646 -20.032   3.701  0.00  0.00    +0.201 C 
BRANCH  11  12
ATOM     12  O   LIG    1       19.351 -20.036   2.304  0.00  0.00    -0.383 OA
ATOM     13  H   LIG    1       18.831 -19.225   2.149  0.00  0.00    +0.210 HD
ENDBRANCH  11  12
BRANCH  11  14
ATOM     14  C   LIG    1       20.122 -21.417   4.171  0.00  0.00    +0.056 C 
BRANCH  14  15
ATOM     15  C   LIG    1       21.616 -21.571   4.438  0.00  0.00    +0.080 C 
BRANCH  15  16
ATOM     16  N   LIG    1       21.935 -21.564   5.864  0.00  0.00    -0.330 NA
ATOM     17  H   LIG    1       22.780 -20.998   5.983  0.00  0.00    +0.118 HD
ATOM     18  H   LIG    1       21.241 -20.980   6.360  0.00  0.00    +0.118 HD
ENDBRANCH  15  16
ENDBRANCH  14  15
ENDBRANCH  11  14
ENDBRANCH   7  11
ENDBRANCH   1   8
BRANCH   5  19
ATOM     19  N   LIG    1       22.415 -14.640   6.123  0.00  0.00    -0.325 NA
ATOM     20  H   LIG    1       22.524 -14.797   7.123  0.00  0.00    +0.118 HD
ATOM     21  H   LIG    1       21.399 -14.669   5.999  0.00  0.00    +0.118 HD
ENDBRANCH   5  19
BRANCH   3  22
ATOM     22  O   LIG    1       21.647 -17.273   2.628  0.00  0.00    -0.387 OA
ATOM     23  H   LIG    1       21.156 -17.572   3.420  0.00  0.00    +0.210 HD
ENDBRANCH   3  22
BRANCH   4  24
ATOM     24  O   LIG    1       23.872 -14.645   3.197  0.00  0.00    -0.341 OA
BRANCH  24  25
ATOM     25  C   LIG    1       25.156 -14.594   3.829  0.00  0.00    +0.282 C 
ATOM     26  C   LIG    1       25.351 -13.245   4.570  0.00  0.00    +0.201 C 
ATOM     27  C   LIG    1       26.791 -13.038   5.054  0.00  0.00    +0.179 C 
ATOM     28  C   LIG    1       27.815 -13.421   3.974  0.00  0.00    +0.175 C 
ATOM     29  C   LIG    1       27.505 -14.790   3.348  0.00  0.00    +0.166 C 
ATOM     30  O   LIG    1       26.159 -14.774   2.821  0.00  0.00    -0.342 OA
BRANCH  28  31
ATOM     31  O   LIG    1       27.814 -12.438   2.928  0.00  0.00    -0.387 OA
ATOM     32  H   LIG    1       26.951 -11.974   2.978  0.00  0.00    +0.210 HD
ENDBRANCH  28  31
BRANCH  27  33
ATOM     33  O   LIG    1       27.015 -13.803   6.243  0.00  0.00    -0.386 OA
ATOM     34  H   LIG    1       26.136 -14.054   6.590  0.00  0.00    +0.210 HD
ENDBRANCH  27  33
BRANCH  26  35
ATOM     35  O   LIG    1       24.987 -12.151   3.707  0.00  0.00    -0.384 OA
ATOM     36  H   LIG    1       25.484 -11.370   4.032  0.00  0.00    +0.210 HD
ENDBRANCH  26  35
BRANCH  29  37
ATOM     37  C   LIG    1       27.785 -15.973   4.310  0.00  0.00    +0.112 C 
BRANCH  37  38
ATOM     38  N   LIG    1       28.937 -15.732   5.186  0.00  0.00    -0.328 NA
ATOM     39  H   LIG    1       28.891 -14.769   5.530  0.00  0.00    +0.118 HD
ATOM     40  H   LIG    1       28.837 -16.303   6.026  0.00  0.00    +0.118 HD
ENDBRANCH  37  38
ENDBRANCH  29  37
ENDBRANCH  24  25
ENDBRANCH   4  24
BRANCH   2  41
ATOM     41  O   LIG    1       25.010 -17.522   4.229  0.00  0.00    -0.341 OA
BRANCH  41  42
ATOM     42  C   LIG    1       25.931 -18.477   4.799  0.00  0.00    +0.281 C 
ATOM     43  C   LIG    1       25.826 -19.738   3.904  0.00  0.00    +0.189 C 
ATOM     44  C   LIG    1       26.626 -20.940   4.448  0.00  0.00    +0.116 C 
ATOM     45  C   LIG    1       26.314 -21.122   5.953  0.00  0.00    +0.165 C 
ATOM     46  C   LIG    1       26.490 -19.809   6.745  0.00  0.00    +0.177 C 
ATOM     47  O   LIG    1       25.663 -18.768   6.171  0.00  0.00    -0.341 OA
BRANCH  44  48
ATOM     48  N   LIG    1       28.077 -20.861   4.184  0.00  0.00    -0.323 NA
ATOM     49  H   LIG    1       28.336 -21.664   3.603  0.00  0.00    +0.119 HD
ATOM     50  H   LIG    1       28.256 -20.052   3.584  0.00  0.00    +0.119 HD
ENDBRANCH  44  48
BRANCH  45  51
ATOM     51  O   LIG    1       24.951 -21.572   6.069  0.00  0.00    -0.388 OA
ATOM     52  H   LIG    1       24.964 -22.501   6.359  0.00  0.00    +0.210 HD
ENDBRANCH  45  51
BRANCH  43  53
ATOM     53  O   LIG    1       24.454 -20.153   3.754  0.00  0.00    -0.385 OA
ATOM     54  H   LIG    1       24.119 -20.288   4.666  0.00  0.00    +0.210 HD
ENDBRANCH  43  53
BRANCH  46  55
ATOM     55  C   LIG    1       27.979 -19.438   6.921  0.00  0.00    +0.190 C 
BRANCH  55  56
ATOM     56  O   LIG    1       28.546 -18.968   5.700  0.00  0.00    -0.392 OA
ATOM     57  H   LIG    1       28.698 -19.752   5.142  0.00  0.00    +0.209 HD
ENDBRANCH  55  56
ENDBRANCH  46  55
ENDBRANCH  41  42
ENDBRANCH   2  41
TORSDOF 22
ENDMDL
