MODEL 1
REMARK VINA RESULT:      -0.1      0.000      0.000
REMARK  Name = *****
REMARK                            x       y       z     vdW  Elec       q    Type
REMARK                         _______ _______ _______ _____ _____    ______ ____
ROOT
ATOM      1  C   LIG    1       25.821 -19.059   4.228  0.00  0.00    +0.166 C 
ENDROOT
BRANCH   1   2
ATOM      2  C   LIG    1       26.637 -19.869   5.295  0.00  0.00    -0.007 A 
ATOM      3  C   LIG    1       28.047 -19.797   5.354  0.00  0.00    +0.007 A 
ATOM      4  C   LIG    1       28.805 -20.616   6.196  0.00  0.00    +0.000 A 
ATOM      5  C   LIG    1       28.174 -21.506   7.052  0.00  0.00    +0.000 A 
ATOM      6  C   LIG    1       26.787 -21.572   7.060  0.00  0.00    +0.000 A 
ATOM      7  C   LIG    1       26.035 -20.789   6.174  0.00  0.00    +0.007 A 
ENDBRANCH   1   2
BRANCH   1   8
ATOM      8  C   LIG    1       24.262 -19.186   4.312  0.00  0.00    -0.007 A 
ATOM      9  C   LIG    1       23.380 -18.166   3.903  0.00  0.00    +0.007 A 
ATOM     10  C   LIG    1       21.988 -18.326   3.939  0.00  0.00    +0.000 A 
ATOM     11  C   LIG    1       21.429 -19.498   4.428  0.00  0.00    +0.000 A 
ATOM     12  C   LIG    1       22.267 -20.517   4.866  0.00  0.00    +0.000 A 
ATOM     13  C   LIG    1       23.661 -20.366   4.806  0.00  0.00    +0.007 A 
ENDBRANCH   1   8
BRANCH   1  15
ATOM     14  C   LIG    1       25.353 -20.091   1.993  0.00  0.00    +0.195 C 
ATOM     15  O   LIG    1       26.236 -19.392   2.860  0.00  0.00    -0.363 OA
ENDBRANCH   1  15
BRANCH   1  16
ATOM     16  C   LIG    1       26.248 -17.518   4.331  0.00  0.00    +0.325 C 
BRANCH  16  17
ATOM     17  C   LIG    1       27.758 -17.327   4.500  0.00  0.00    +0.350 C 
ATOM     18  O   LIG    1       28.284 -16.716   5.405  0.00  0.00    -0.247 OA
BRANCH  17  19
ATOM     19  O   LIG    1       28.498 -17.956   3.542  0.00  0.00    -0.478 OA
ATOM     20  H   LIG    1       29.409 -18.145   3.856  0.00  0.00    +0.295 HD
ENDBRANCH  17  19
ENDBRANCH  16  17
BRANCH  16  21
ATOM     21  O   LIG    1       25.804 -16.777   3.166  0.00  0.00    -0.444 OA
BRANCH  21  22
ATOM     22  C   LIG    1       25.903 -15.406   3.328  0.00  0.00    +0.319 A 
ATOM     23  N   LIG    1       24.838 -14.715   3.766  0.00  0.00    -0.200 NA
ATOM     24  C   LIG    1       25.013 -13.385   3.940  0.00  0.00    +0.045 A 
ATOM     25  C   LIG    1       23.845 -12.574   4.425  0.00  0.00    +0.066 C 
ATOM     26  C   LIG    1       26.213 -12.755   3.675  0.00  0.00    +0.046 A 
ATOM     27  C   LIG    1       27.261 -13.562   3.280  0.00  0.00    +0.045 A 
ATOM     28  C   LIG    1       28.603 -12.951   3.001  0.00  0.00    +0.066 C 
ATOM     29  N   LIG    1       27.123 -14.894   3.106  0.00  0.00    -0.200 NA
ENDBRANCH  21  22
ENDBRANCH  16  21
ENDBRANCH   1  16
TORSDOF 8
ENDMDL
MODEL 2
REMARK VINA RESULT:       0.2      0.352      1.846
REMARK  Name = *****
REMARK                            x       y       z     vdW  Elec       q    Type
REMARK                         _______ _______ _______ _____ _____    ______ ____
ROOT
ATOM      1  C   LIG    1       25.693 -19.032   4.096  0.00  0.00    +0.166 C 
ENDROOT
BRANCH   1   2
ATOM      2  C   LIG    1       26.473 -19.968   5.083  0.00  0.00    -0.007 A 
ATOM      3  C   LIG    1       25.791 -20.836   5.967  0.00  0.00    +0.007 A 
ATOM      4  C   LIG    1       26.453 -21.572   6.955  0.00  0.00    +0.000 A 
ATOM      5  C   LIG    1       27.834 -21.505   7.062  0.00  0.00    +0.000 A 
ATOM      6  C   LIG    1       28.545 -20.702   6.179  0.00  0.00    +0.000 A 
ATOM      7  C   LIG    1       27.871 -19.924   5.229  0.00  0.00    +0.007 A 
ENDBRANCH   1   2
BRANCH   1   8
ATOM      8  C   LIG    1       24.133 -19.030   4.237  0.00  0.00    -0.007 A 
ATOM      9  C   LIG    1       23.333 -17.906   3.949  0.00  0.00    +0.007 A 
ATOM     10  C   LIG    1       21.934 -17.947   4.033  0.00  0.00    +0.000 A 
ATOM     11  C   LIG    1       21.290 -19.103   4.452  0.00  0.00    +0.000 A 
ATOM     12  C   LIG    1       22.047 -20.223   4.771  0.00  0.00    +0.000 A 
ATOM     13  C   LIG    1       23.446 -20.190   4.662  0.00  0.00    +0.007 A 
ENDBRANCH   1   8
BRANCH   1  15
ATOM     14  C   LIG    1       25.413 -20.415   2.023  0.00  0.00    +0.195 C 
ATOM     15  O   LIG    1       26.026 -19.323   2.695  0.00  0.00    -0.363 OA
ENDBRANCH   1  15
BRANCH   1  16
ATOM     16  C   LIG    1       26.257 -17.542   4.261  0.00  0.00    +0.325 C 
BRANCH  16  17
ATOM     17  C   LIG    1       27.777 -17.497   4.441  0.00  0.00    +0.350 C 
ATOM     18  O   LIG    1       28.347 -17.216   5.475  0.00  0.00    -0.247 OA
BRANCH  17  19
ATOM     19  O   LIG    1       28.470 -17.850   3.321  0.00  0.00    -0.478 OA
ATOM     20  H   LIG    1       29.277 -18.365   3.543  0.00  0.00    +0.295 HD
ENDBRANCH  17  19
ENDBRANCH  16  17
BRANCH  16  21
ATOM     21  O   LIG    1       25.890 -16.718   3.126  0.00  0.00    -0.444 OA
BRANCH  21  22
ATOM     22  C   LIG    1       26.077 -15.366   3.357  0.00  0.00    +0.319 A 
ATOM     23  N   LIG    1       27.325 -14.874   3.418  0.00  0.00    -0.200 NA
ATOM     24  C   LIG    1       27.437 -13.539   3.606  0.00  0.00    +0.045 A 
ATOM     25  C   LIG    1       28.816 -12.948   3.685  0.00  0.00    +0.066 C 
ATOM     26  C   LIG    1       26.337 -12.715   3.740  0.00  0.00    +0.046 A 
ATOM     27  C   LIG    1       25.099 -13.310   3.608  0.00  0.00    +0.045 A 
ATOM     28  C   LIG    1       23.858 -12.473   3.714  0.00  0.00    +0.066 C 
ATOM     29  N   LIG    1       24.952 -14.638   3.411  0.00  0.00    -0.200 NA
ENDBRANCH  21  22
ENDBRANCH  16  21
ENDBRANCH   1  16
TORSDOF 8
ENDMDL
MODEL 3
REMARK VINA RESULT:       0.7      1.450      2.607
REMARK  Name = *****
REMARK                            x       y       z     vdW  Elec       q    Type
REMARK                         _______ _______ _______ _____ _____    ______ ____
ROOT
ATOM      1  C   LIG    1       25.554 -19.274   4.044  0.00  0.00    +0.166 C 
ENDROOT
BRANCH   1   2
ATOM      2  C   LIG    1       26.983 -19.157   4.678  0.00  0.00    -0.007 A 
ATOM      3  C   LIG    1       27.425 -20.063   5.669  0.00  0.00    +0.007 A 
ATOM      4  C   LIG    1       28.634 -19.897   6.352  0.00  0.00    +0.000 A 
ATOM      5  C   LIG    1       29.473 -18.840   6.031  0.00  0.00    +0.000 A 
ATOM      6  C   LIG    1       29.098 -17.957   5.027  0.00  0.00    +0.000 A 
ATOM      7  C   LIG    1       27.860 -18.096   4.386  0.00  0.00    +0.007 A 
ENDBRANCH   1   2
BRANCH   1   8
ATOM      8  C   LIG    1       24.472 -19.998   4.916  0.00  0.00    -0.007 A 
ATOM      9  C   LIG    1       23.200 -20.358   4.428  0.00  0.00    +0.007 A 
ATOM     10  C   LIG    1       22.270 -21.053   5.213  0.00  0.00    +0.000 A 
ATOM     11  C   LIG    1       22.564 -21.373   6.531  0.00  0.00    +0.000 A 
ATOM     12  C   LIG    1       23.799 -21.010   7.057  0.00  0.00    +0.000 A 
ATOM     13  C   LIG    1       24.739 -20.336   6.262  0.00  0.00    +0.007 A 
ENDBRANCH   1   8
BRANCH   1  15
ATOM     14  C   LIG    1       24.641 -20.925   2.394  0.00  0.00    +0.195 C 
ATOM     15  O   LIG    1       25.594 -19.925   2.729  0.00  0.00    -0.363 OA
ENDBRANCH   1  15
BRANCH   1  16
ATOM     16  C   LIG    1       25.049 -17.802   3.663  0.00  0.00    +0.325 C 
BRANCH  16  17
ATOM     17  C   LIG    1       23.526 -17.657   3.736  0.00  0.00    +0.350 C 
ATOM     18  O   LIG    1       22.735 -18.281   3.062  0.00  0.00    -0.247 OA
BRANCH  17  19
ATOM     19  O   LIG    1       23.108 -16.769   4.683  0.00  0.00    -0.478 OA
ATOM     20  H   LIG    1       22.878 -15.900   4.287  0.00  0.00    +0.295 HD
ENDBRANCH  17  19
ENDBRANCH  16  17
BRANCH  16  21
ATOM     21  O   LIG    1       25.661 -16.804   4.516  0.00  0.00    -0.444 OA
BRANCH  21  22
ATOM     22  C   LIG    1       25.891 -15.604   3.866  0.00  0.00    +0.319 A 
ATOM     23  N   LIG    1       24.875 -14.986   3.244  0.00  0.00    -0.200 NA
ATOM     24  C   LIG    1       25.157 -13.797   2.662  0.00  0.00    +0.045 A 
ATOM     25  C   LIG    1       24.050 -13.075   1.950  0.00  0.00    +0.066 C 
ATOM     26  C   LIG    1       26.421 -13.242   2.690  0.00  0.00    +0.046 A 
ATOM     27  C   LIG    1       27.384 -13.930   3.401  0.00  0.00    +0.045 A 
ATOM     28  C   LIG    1       28.774 -13.373   3.499  0.00  0.00    +0.066 C 
ATOM     29  N   LIG    1       27.133 -15.113   4.001  0.00  0.00    -0.200 NA
ENDBRANCH  21  22
ENDBRANCH  16  21
ENDBRANCH   1  16
TORSDOF 8
ENDMDL
MODEL 4
REMARK VINA RESULT:       1.3      1.471      3.056
REMARK  Name = *****
REMARK                            x       y       z     vdW  Elec       q    Type
REMARK                         _______ _______ _______ _____ _____    ______ ____
ROOT
ATOM      1  C   LIG    1       25.460 -19.173   4.013  0.00  0.00    +0.166 C 
ENDROOT
BRANCH   1   2
ATOM      2  C   LIG    1       26.918 -19.043   4.576  0.00  0.00    -0.007 A 
ATOM      3  C   LIG    1       27.413 -19.937   5.552  0.00  0.00    +0.007 A 
ATOM      4  C   LIG    1       28.652 -19.757   6.174  0.00  0.00    +0.000 A 
ATOM      5  C   LIG    1       29.468 -18.700   5.803  0.00  0.00    +0.000 A 
ATOM      6  C   LIG    1       29.040 -17.827   4.811  0.00  0.00    +0.000 A 
ATOM      7  C   LIG    1       27.773 -17.980   4.232  0.00  0.00    +0.007 A 
ENDBRANCH   1   2
BRANCH   1   8
ATOM      8  C   LIG    1       24.440 -19.943   4.920  0.00  0.00    -0.007 A 
ATOM      9  C   LIG    1       23.149 -20.312   4.490  0.00  0.00    +0.007 A 
ATOM     10  C   LIG    1       22.275 -21.047   5.302  0.00  0.00    +0.000 A 
ATOM     11  C   LIG    1       22.646 -21.400   6.592  0.00  0.00    +0.000 A 
ATOM     12  C   LIG    1       23.901 -21.030   7.062  0.00  0.00    +0.000 A 
ATOM     13  C   LIG    1       24.786 -20.316   6.238  0.00  0.00    +0.007 A 
ENDBRANCH   1   8
BRANCH   1  15
ATOM     14  C   LIG    1       24.703 -20.979   2.448  0.00  0.00    +0.195 C 
ATOM     15  O   LIG    1       25.445 -19.790   2.681  0.00  0.00    -0.363 OA
ENDBRANCH   1  15
BRANCH   1  16
ATOM     16  C   LIG    1       24.907 -17.703   3.698  0.00  0.00    +0.325 C 
BRANCH  16  17
ATOM     17  C   LIG    1       23.378 -17.623   3.728  0.00  0.00    +0.350 C 
ATOM     18  O   LIG    1       22.635 -18.226   2.982  0.00  0.00    -0.247 OA
BRANCH  17  19
ATOM     19  O   LIG    1       22.893 -16.825   4.722  0.00  0.00    -0.478 OA
ATOM     20  H   LIG    1       23.001 -17.242   5.605  0.00  0.00    +0.295 HD
ENDBRANCH  17  19
ENDBRANCH  16  17
BRANCH  16  21
ATOM     21  O   LIG    1       25.450 -16.733   4.627  0.00  0.00    -0.444 OA
BRANCH  21  22
ATOM     22  C   LIG    1       25.754 -15.522   4.028  0.00  0.00    +0.319 A 
ATOM     23  N   LIG    1       27.027 -15.095   4.013  0.00  0.00    -0.200 NA
ATOM     24  C   LIG    1       27.262 -13.924   3.377  0.00  0.00    +0.045 A 
ATOM     25  C   LIG    1       28.672 -13.407   3.341  0.00  0.00    +0.066 C 
ATOM     26  C   LIG    1       26.255 -13.190   2.781  0.00  0.00    +0.046 A 
ATOM     27  C   LIG    1       24.990 -13.742   2.805  0.00  0.00    +0.045 A 
ATOM     28  C   LIG    1       23.850 -13.015   2.153  0.00  0.00    +0.066 C 
ATOM     29  N   LIG    1       24.723 -14.913   3.423  0.00  0.00    -0.200 NA
ENDBRANCH  21  22
ENDBRANCH  16  21
ENDBRANCH   1  16
TORSDOF 8
ENDMDL
MODEL 5
REMARK VINA RESULT:       1.4      1.066      1.579
REMARK  Name = *****
REMARK                            x       y       z     vdW  Elec       q    Type
REMARK                         _______ _______ _______ _____ _____    ______ ____
ROOT
ATOM      1  C   LIG    1       25.430 -18.964   4.207  0.00  0.00    +0.166 C 
ENDROOT
BRANCH   1   2
ATOM      2  C   LIG    1       26.270 -19.744   5.277  0.00  0.00    -0.007 A 
ATOM      3  C   LIG    1       27.678 -19.633   5.331  0.00  0.00    +0.007 A 
ATOM      4  C   LIG    1       28.461 -20.425   6.176  0.00  0.00    +0.000 A 
ATOM      5  C   LIG    1       27.857 -21.326   7.040  0.00  0.00    +0.000 A 
ATOM      6  C   LIG    1       26.472 -21.429   7.053  0.00  0.00    +0.000 A 
ATOM      7  C   LIG    1       25.696 -20.673   6.164  0.00  0.00    +0.007 A 
ENDBRANCH   1   2
BRANCH   1   8
ATOM      8  C   LIG    1       23.876 -19.149   4.284  0.00  0.00    -0.007 A 
ATOM      9  C   LIG    1       22.959 -18.130   3.958  0.00  0.00    +0.007 A 
ATOM     10  C   LIG    1       21.573 -18.338   3.985  0.00  0.00    +0.000 A 
ATOM     11  C   LIG    1       21.055 -19.562   4.383  0.00  0.00    +0.000 A 
ATOM     12  C   LIG    1       21.927 -20.584   4.738  0.00  0.00    +0.000 A 
ATOM     13  C   LIG    1       23.316 -20.382   4.687  0.00  0.00    +0.007 A 
ENDBRANCH   1   8
BRANCH   1  15
ATOM     14  C   LIG    1       25.357 -20.434   2.177  0.00  0.00    +0.195 C 
ATOM     15  O   LIG    1       25.861 -19.282   2.840  0.00  0.00    -0.363 OA
ENDBRANCH   1  15
BRANCH   1  16
ATOM     16  C   LIG    1       25.799 -17.409   4.311  0.00  0.00    +0.325 C 
BRANCH  16  17
ATOM     17  C   LIG    1       27.124 -17.064   3.626  0.00  0.00    +0.350 C 
ATOM     18  O   LIG    1       27.228 -16.511   2.552  0.00  0.00    -0.247 OA
BRANCH  17  19
ATOM     19  O   LIG    1       28.222 -17.400   4.362  0.00  0.00    -0.478 OA
ATOM     20  H   LIG    1       27.971 -17.754   5.243  0.00  0.00    +0.295 HD
ENDBRANCH  17  19
ENDBRANCH  16  17
BRANCH  16  21
ATOM     21  O   LIG    1       24.747 -16.586   3.748  0.00  0.00    -0.444 OA
BRANCH  21  22
ATOM     22  C   LIG    1       25.019 -15.231   3.826  0.00  0.00    +0.319 A 
ATOM     23  N   LIG    1       25.869 -14.783   4.765  0.00  0.00    -0.200 NA
ATOM     24  C   LIG    1       26.122 -13.454   4.763  0.00  0.00    +0.045 A 
ATOM     25  C   LIG    1       27.063 -12.909   5.799  0.00  0.00    +0.066 C 
ATOM     26  C   LIG    1       25.538 -12.590   3.857  0.00  0.00    +0.046 A 
ATOM     27  C   LIG    1       24.722 -13.158   2.899  0.00  0.00    +0.045 A 
ATOM     28  C   LIG    1       24.075 -12.285   1.863  0.00  0.00    +0.066 C 
ATOM     29  N   LIG    1       24.455 -14.481   2.868  0.00  0.00    -0.200 NA
ENDBRANCH  21  22
ENDBRANCH  16  21
ENDBRANCH   1  16
TORSDOF 8
ENDMDL
MODEL 6
REMARK VINA RESULT:       1.9      1.726      2.477
REMARK  Name = *****
REMARK                            x       y       z     vdW  Elec       q    Type
REMARK                         _______ _______ _______ _____ _____    ______ ____
ROOT
ATOM      1  C   LIG    1       25.679 -19.657   4.580  0.00  0.00    +0.166 C 
ENDROOT
BRANCH   1   2
ATOM      2  C   LIG    1       26.988 -19.824   5.428  0.00  0.00    -0.007 A 
ATOM      3  C   LIG    1       28.099 -18.970   5.241  0.00  0.00    +0.007 A 
ATOM      4  C   LIG    1       29.325 -19.186   5.877  0.00  0.00    +0.000 A 
ATOM      5  C   LIG    1       29.471 -20.239   6.766  0.00  0.00    +0.000 A 
ATOM      6  C   LIG    1       28.387 -21.072   7.015  0.00  0.00    +0.000 A 
ATOM      7  C   LIG    1       27.178 -20.884   6.332  0.00  0.00    +0.007 A 
ENDBRANCH   1   2
BRANCH   1   8
ATOM      8  C   LIG    1       24.381 -20.290   5.188  0.00  0.00    -0.007 A 
ATOM      9  C   LIG    1       23.167 -20.392   4.480  0.00  0.00    +0.007 A 
ATOM     10  C   LIG    1       22.035 -21.011   5.028  0.00  0.00    +0.000 A 
ATOM     11  C   LIG    1       22.067 -21.511   6.323  0.00  0.00    +0.000 A 
ATOM     12  C   LIG    1       23.239 -21.406   7.062  0.00  0.00    +0.000 A 
ATOM     13  C   LIG    1       24.379 -20.807   6.503  0.00  0.00    +0.007 A 
ENDBRANCH   1   8
BRANCH   1  15
ATOM     14  C   LIG    1       24.820 -20.950   2.612  0.00  0.00    +0.195 C 
ATOM     15  O   LIG    1       25.845 -20.173   3.216  0.00  0.00    -0.363 OA
ENDBRANCH   1  15
BRANCH   1  16
ATOM     16  C   LIG    1       25.447 -18.095   4.311  0.00  0.00    +0.325 C 
BRANCH  16  17
ATOM     17  C   LIG    1       26.432 -17.513   3.293  0.00  0.00    +0.350 C 
ATOM     18  O   LIG    1       27.099 -16.514   3.462  0.00  0.00    -0.247 OA
BRANCH  17  19
ATOM     19  O   LIG    1       26.538 -18.254   2.153  0.00  0.00    -0.478 OA
ATOM     20  H   LIG    1       26.496 -17.689   1.350  0.00  0.00    +0.295 HD
ENDBRANCH  17  19
ENDBRANCH  16  17
BRANCH  16  21
ATOM     21  O   LIG    1       24.094 -17.840   3.860  0.00  0.00    -0.444 OA
BRANCH  21  22
ATOM     22  C   LIG    1       23.619 -16.598   4.248  0.00  0.00    +0.319 A 
ATOM     23  N   LIG    1       22.687 -16.521   5.212  0.00  0.00    -0.200 NA
ATOM     24  C   LIG    1       22.295 -15.277   5.572  0.00  0.00    +0.045 A 
ATOM     25  C   LIG    1       21.250 -15.144   6.643  0.00  0.00    +0.066 C 
ATOM     26  C   LIG    1       22.809 -14.139   4.982  0.00  0.00    +0.046 A 
ATOM     27  C   LIG    1       23.800 -14.324   4.040  0.00  0.00    +0.045 A 
ATOM     28  C   LIG    1       24.426 -13.133   3.376  0.00  0.00    +0.066 C 
ATOM     29  N   LIG    1       24.221 -15.552   3.664  0.00  0.00    -0.200 NA
ENDBRANCH  21  22
ENDBRANCH  16  21
ENDBRANCH   1  16
TORSDOF 8
ENDMDL
MODEL 7
REMARK VINA RESULT:       2.4      1.426      2.158
REMARK  Name = *****
REMARK                            x       y       z     vdW  Elec       q    Type
REMARK                         _______ _______ _______ _____ _____    ______ ____
ROOT
ATOM      1  C   LIG    1       24.445 -18.780   3.679  0.00  0.00    +0.166 C 
ENDROOT
BRANCH   1   2
ATOM      2  C   LIG    1       25.452 -19.288   4.768  0.00  0.00    -0.007 A 
ATOM      3  C   LIG    1       26.849 -19.150   4.600  0.00  0.00    +0.007 A 
ATOM      4  C   LIG    1       27.771 -19.721   5.483  0.00  0.00    +0.000 A 
ATOM      5  C   LIG    1       27.326 -20.411   6.601  0.00  0.00    +0.000 A 
ATOM      6  C   LIG    1       25.961 -20.525   6.829  0.00  0.00    +0.000 A 
ATOM      7  C   LIG    1       25.042 -19.999   5.911  0.00  0.00    +0.007 A 
ENDBRANCH   1   2
BRANCH   1   8
ATOM      8  C   LIG    1       22.956 -19.236   3.853  0.00  0.00    -0.007 A 
ATOM      9  C   LIG    1       21.861 -18.507   3.349  0.00  0.00    +0.007 A 
ATOM     10  C   LIG    1       20.542 -18.964   3.473  0.00  0.00    +0.000 A 
ATOM     11  C   LIG    1       20.269 -20.148   4.145  0.00  0.00    +0.000 A 
ATOM     12  C   LIG    1       21.322 -20.881   4.679  0.00  0.00    +0.000 A 
ATOM     13  C   LIG    1       22.645 -20.435   4.533  0.00  0.00    +0.007 A 
ENDBRANCH   1   8
BRANCH   1  15
ATOM     14  C   LIG    1       24.887 -20.503   1.913  0.00  0.00    +0.195 C 
ATOM     15  O   LIG    1       24.880 -19.143   2.325  0.00  0.00    -0.363 OA
ENDBRANCH   1  15
BRANCH   1  16
ATOM     16  C   LIG    1       24.521 -17.180   3.627  0.00  0.00    +0.325 C 
BRANCH  16  17
ATOM     17  C   LIG    1       23.452 -16.504   4.490  0.00  0.00    +0.350 C 
ATOM     18  O   LIG    1       22.985 -16.968   5.509  0.00  0.00    -0.247 OA
BRANCH  17  19
ATOM     19  O   LIG    1       23.078 -15.275   4.032  0.00  0.00    -0.478 OA
ATOM     20  H   LIG    1       22.362 -15.341   3.363  0.00  0.00    +0.295 HD
ENDBRANCH  17  19
ENDBRANCH  16  17
BRANCH  16  21
ATOM     21  O   LIG    1       25.829 -16.708   4.037  0.00  0.00    -0.444 OA
BRANCH  21  22
ATOM     22  C   LIG    1       26.115 -15.436   3.573  0.00  0.00    +0.319 A 
ATOM     23  N   LIG    1       25.162 -14.738   2.933  0.00  0.00    -0.200 NA
ATOM     24  C   LIG    1       25.494 -13.487   2.540  0.00  0.00    +0.045 A 
ATOM     25  C   LIG    1       24.459 -12.673   1.817  0.00  0.00    +0.066 C 
ATOM     26  C   LIG    1       26.744 -12.946   2.767  0.00  0.00    +0.046 A 
ATOM     27  C   LIG    1       27.634 -13.725   3.480  0.00  0.00    +0.045 A 
ATOM     28  C   LIG    1       29.003 -13.193   3.789  0.00  0.00    +0.066 C 
ATOM     29  N   LIG    1       27.332 -14.974   3.894  0.00  0.00    -0.200 NA
ENDBRANCH  21  22
ENDBRANCH  16  21
ENDBRANCH   1  16
TORSDOF 8
ENDMDL
MODEL 8
REMARK VINA RESULT:       2.5      1.501      2.145
REMARK  Name = *****
REMARK                            x       y       z     vdW  Elec       q    Type
REMARK                         _______ _______ _______ _____ _____    ______ ____
ROOT
ATOM      1  C   LIG    1       24.181 -18.928   4.003  0.00  0.00    +0.166 C 
ENDROOT
BRANCH   1   2
ATOM      2  C   LIG    1       24.834 -19.920   5.027  0.00  0.00    -0.007 A 
ATOM      3  C   LIG    1       24.058 -20.582   6.007  0.00  0.00    +0.007 A 
ATOM      4  C   LIG    1       24.632 -21.356   7.020  0.00  0.00    +0.000 A 
ATOM      5  C   LIG    1       26.006 -21.540   7.060  0.00  0.00    +0.000 A 
ATOM      6  C   LIG    1       26.798 -20.947   6.086  0.00  0.00    +0.000 A 
ATOM      7  C   LIG    1       26.223 -20.126   5.107  0.00  0.00    +0.007 A 
ENDBRANCH   1   2
BRANCH   1   8
ATOM      8  C   LIG    1       22.615 -18.888   3.987  0.00  0.00    -0.007 A 
ATOM      9  C   LIG    1       21.873 -17.691   3.933  0.00  0.00    +0.007 A 
ATOM     10  C   LIG    1       20.473 -17.684   3.866  0.00  0.00    +0.000 A 
ATOM     11  C   LIG    1       19.764 -18.877   3.896  0.00  0.00    +0.000 A 
ATOM     12  C   LIG    1       20.460 -20.077   3.976  0.00  0.00    +0.000 A 
ATOM     13  C   LIG    1       21.863 -20.084   4.017  0.00  0.00    +0.007 A 
ENDBRANCH   1   8
BRANCH   1  15
ATOM     14  C   LIG    1       24.769 -20.506   2.146  0.00  0.00    +0.195 C 
ATOM     15  O   LIG    1       24.647 -19.177   2.633  0.00  0.00    -0.363 OA
ENDBRANCH   1  15
BRANCH   1  16
ATOM     16  C   LIG    1       24.760 -17.461   4.282  0.00  0.00    +0.325 C 
BRANCH  16  17
ATOM     17  C   LIG    1       26.107 -17.212   3.598  0.00  0.00    +0.350 C 
ATOM     18  O   LIG    1       27.183 -17.567   4.031  0.00  0.00    -0.247 OA
BRANCH  17  19
ATOM     19  O   LIG    1       26.000 -16.573   2.398  0.00  0.00    -0.478 OA
ATOM     20  H   LIG    1       25.291 -16.965   1.843  0.00  0.00    +0.295 HD
ENDBRANCH  17  19
ENDBRANCH  16  17
BRANCH  16  21
ATOM     21  O   LIG    1       23.820 -16.442   3.861  0.00  0.00    -0.444 OA
BRANCH  21  22
ATOM     22  C   LIG    1       24.345 -15.162   3.924  0.00  0.00    +0.319 A 
ATOM     23  N   LIG    1       23.797 -14.187   3.180  0.00  0.00    -0.200 NA
ATOM     24  C   LIG    1       24.332 -12.952   3.318  0.00  0.00    +0.045 A 
ATOM     25  C   LIG    1       23.752 -11.833   2.500  0.00  0.00    +0.066 C 
ATOM     26  C   LIG    1       25.390 -12.694   4.167  0.00  0.00    +0.046 A 
ATOM     27  C   LIG    1       25.845 -13.752   4.928  0.00  0.00    +0.045 A 
ATOM     28  C   LIG    1       26.975 -13.540   5.893  0.00  0.00    +0.066 C 
ATOM     29  N   LIG    1       25.329 -14.995   4.821  0.00  0.00    -0.200 NA
ENDBRANCH  21  22
ENDBRANCH  16  21
ENDBRANCH   1  16
TORSDOF 8
ENDMDL
