MODEL 1
REMARK VINA RESULT:      -6.4      0.000      0.000
REMARK  Name = *****
REMARK                            x       y       z     vdW  Elec       q    Type
REMARK                         _______ _______ _______ _____ _____    ______ ____
ROOT
ATOM      1  C   LIG    1       24.649 -21.992   6.595  0.00  0.00    +0.075 C 
ATOM      2  C   LIG    1       25.742 -21.196   7.401  0.00  0.00    +0.000 C 
ATOM      3  C   LIG    1       25.054 -20.363   8.534  0.00  0.00    +0.014 C 
ATOM      4  C   LIG    1       26.317 -20.188   6.356  0.00  0.00    +0.001 C 
ATOM      5  C   LIG    1       27.680 -20.545   5.708  0.00  0.00    -0.003 C 
ATOM      6  C   LIG    1       28.686 -21.141   6.710  0.00  0.00    -0.000 C 
ATOM      7  C   LIG    1       28.056 -22.385   7.345  0.00  0.00    +0.005 C 
ATOM      8  C   LIG    1       29.214 -20.084   7.725  0.00  0.00    +0.018 C 
ATOM      9  C   LIG    1       29.739 -18.852   6.998  0.00  0.00    -0.070 C 
ATOM     10  C   LIG    1       30.915 -18.275   7.306  0.00  0.00    -0.027 C 
ATOM     11  C   LIG    1       31.800 -18.727   8.427  0.00  0.00    +0.027 C 
ATOM     12  C   LIG    1       31.078 -19.650   9.404  0.00  0.00    +0.005 C 
ATOM     13  C   LIG    1       28.848 -18.275   5.926  0.00  0.00    +0.031 C 
ATOM     14  C   LIG    1       30.277 -20.709   8.656  0.00  0.00    +0.008 C 
ATOM     15  C   LIG    1       28.317 -19.347   4.978  0.00  0.00    +0.008 C 
ATOM     16  C   LIG    1       25.214 -20.036   5.278  0.00  0.00    +0.007 C 
ATOM     17  C   LIG    1       26.787 -22.077   8.126  0.00  0.00    +0.010 C 
ATOM     18  C   LIG    1       24.031 -20.885   5.727  0.00  0.00    +0.036 C 
ENDROOT
BRANCH   1  19
ATOM     19  O   LIG    1       23.667 -22.509   7.499  0.00  0.00    -0.388 OA
ATOM     20  H   LIG    1       23.591 -23.465   7.334  0.00  0.00    +0.210 HD
ENDBRANCH   1  19
BRANCH   1  21
ATOM     21  C   LIG    1       25.184 -23.177   5.744  0.00  0.00    +0.062 C 
BRANCH  21  23
ATOM     22  C   LIG    1       25.860 -25.471   6.553  0.00  0.00    +0.004 C 
ATOM     23  C   LIG    1       24.917 -24.544   6.331  0.00  0.00    -0.032 C 
ENDBRANCH  21  23
ENDBRANCH   1  21
TORSDOF 3
ENDMDL
MODEL 2
REMARK VINA RESULT:      -5.7      3.192      5.246
REMARK  Name = *****
REMARK                            x       y       z     vdW  Elec       q    Type
REMARK                         _______ _______ _______ _____ _____    ______ ____
ROOT
ATOM      1  C   LIG    1       24.832 -22.430   6.197  0.00  0.00    +0.075 C 
ATOM      2  C   LIG    1       25.111 -20.885   6.077  0.00  0.00    +0.000 C 
ATOM      3  C   LIG    1       25.699 -20.352   7.426  0.00  0.00    +0.014 C 
ATOM      4  C   LIG    1       23.691 -20.260   5.902  0.00  0.00    +0.001 C 
ATOM      5  C   LIG    1       23.272 -19.855   4.465  0.00  0.00    -0.003 C 
ATOM      6  C   LIG    1       24.412 -19.196   3.667  0.00  0.00    -0.000 C 
ATOM      7  C   LIG    1       25.596 -20.169   3.622  0.00  0.00    +0.005 C 
ATOM      8  C   LIG    1       24.759 -17.770   4.189  0.00  0.00    +0.018 C 
ATOM      9  C   LIG    1       23.505 -16.908   4.278  0.00  0.00    -0.070 C 
ATOM     10  C   LIG    1       23.458 -15.645   3.816  0.00  0.00    -0.027 C 
ATOM     11  C   LIG    1       24.635 -14.926   3.229  0.00  0.00    +0.027 C 
ATOM     12  C   LIG    1       25.957 -15.618   3.543  0.00  0.00    +0.005 C 
ATOM     13  C   LIG    1       22.310 -17.531   4.955  0.00  0.00    +0.031 C 
ATOM     14  C   LIG    1       25.852 -17.120   3.310  0.00  0.00    +0.008 C 
ATOM     15  C   LIG    1       22.029 -18.943   4.449  0.00  0.00    +0.008 C 
ATOM     16  C   LIG    1       22.706 -21.301   6.492  0.00  0.00    +0.007 C 
ATOM     17  C   LIG    1       26.152 -20.494   5.000  0.00  0.00    +0.010 C 
ATOM     18  C   LIG    1       23.544 -22.450   7.037  0.00  0.00    +0.036 C 
ENDROOT
BRANCH   1  19
ATOM     19  O   LIG    1       25.896 -23.056   6.921  0.00  0.00    -0.388 OA
ATOM     20  H   LIG    1       25.662 -23.033   7.865  0.00  0.00    +0.210 HD
ENDBRANCH   1  19
BRANCH   1  21
ATOM     21  C   LIG    1       24.666 -23.182   4.848  0.00  0.00    +0.062 C 
BRANCH  21  23
ATOM     22  C   LIG    1       24.224 -25.600   5.419  0.00  0.00    +0.004 C 
ATOM     23  C   LIG    1       25.016 -24.651   4.900  0.00  0.00    -0.032 C 
ENDBRANCH  21  23
ENDBRANCH   1  21
TORSDOF 3
ENDMDL
MODEL 3
REMARK VINA RESULT:      -5.2      7.184     10.823
REMARK  Name = *****
REMARK                            x       y       z     vdW  Elec       q    Type
REMARK                         _______ _______ _______ _____ _____    ______ ____
ROOT
ATOM      1  C   LIG    1       25.092 -30.406   7.359  0.00  0.00    +0.075 C 
ATOM      2  C   LIG    1       25.908 -30.711   8.670  0.00  0.00    +0.000 C 
ATOM      3  C   LIG    1       26.835 -31.949   8.434  0.00  0.00    +0.014 C 
ATOM      4  C   LIG    1       24.814 -31.131   9.703  0.00  0.00    +0.001 C 
ATOM      5  C   LIG    1       24.379 -30.064  10.742  0.00  0.00    -0.003 C 
ATOM      6  C   LIG    1       25.560 -29.242  11.291  0.00  0.00    -0.000 C 
ATOM      7  C   LIG    1       26.275 -28.575  10.111  0.00  0.00    +0.005 C 
ATOM      8  C   LIG    1       26.483 -30.075  12.229  0.00  0.00    +0.018 C 
ATOM      9  C   LIG    1       25.668 -30.766  13.315  0.00  0.00    -0.070 C 
ATOM     10  C   LIG    1       26.031 -30.758  14.611  0.00  0.00    -0.027 C 
ATOM     11  C   LIG    1       27.296 -30.137  15.119  0.00  0.00    +0.027 C 
ATOM     12  C   LIG    1       28.295 -29.848  14.003  0.00  0.00    +0.005 C 
ATOM     13  C   LIG    1       24.434 -31.505  12.860  0.00  0.00    +0.031 C 
ATOM     14  C   LIG    1       27.604 -29.188  12.816  0.00  0.00    +0.008 C 
ATOM     15  C   LIG    1       23.578 -30.672  11.910  0.00  0.00    +0.008 C 
ATOM     16  C   LIG    1       23.605 -31.602   8.856  0.00  0.00    +0.007 C 
ATOM     17  C   LIG    1       26.857 -29.577   9.125  0.00  0.00    +0.010 C 
ATOM     18  C   LIG    1       24.021 -31.509   7.393  0.00  0.00    +0.036 C 
ENDROOT
BRANCH   1  19
ATOM     19  O   LIG    1       25.935 -30.581   6.217  0.00  0.00    -0.388 OA
ATOM     20  H   LIG    1       26.770 -30.974   6.526  0.00  0.00    +0.210 HD
ENDBRANCH   1  19
BRANCH   1  21
ATOM     21  C   LIG    1       24.470 -28.985   7.280  0.00  0.00    +0.062 C 
BRANCH  21  23
ATOM     22  C   LIG    1       25.851 -26.967   6.653  0.00  0.00    +0.004 C 
ATOM     23  C   LIG    1       25.150 -28.054   6.302  0.00  0.00    -0.032 C 
ENDBRANCH  21  23
ENDBRANCH   1  21
TORSDOF 3
ENDMDL
MODEL 4
REMARK VINA RESULT:      -5.1      7.658     10.823
REMARK  Name = *****
REMARK                            x       y       z     vdW  Elec       q    Type
REMARK                         _______ _______ _______ _____ _____    ______ ____
ROOT
ATOM      1  C   LIG    1       25.933 -29.762  13.481  0.00  0.00    +0.075 C 
ATOM      2  C   LIG    1       25.335 -29.120  12.174  0.00  0.00    +0.000 C 
ATOM      3  C   LIG    1       24.074 -28.268  12.538  0.00  0.00    +0.014 C 
ATOM      4  C   LIG    1       24.849 -30.349  11.341  0.00  0.00    +0.001 C 
ATOM      5  C   LIG    1       25.759 -30.814  10.174  0.00  0.00    -0.003 C 
ATOM      6  C   LIG    1       26.363 -29.643   9.377  0.00  0.00    -0.000 C 
ATOM      7  C   LIG    1       27.152 -28.754  10.346  0.00  0.00    +0.005 C 
ATOM      8  C   LIG    1       25.300 -28.893   8.521  0.00  0.00    +0.018 C 
ATOM      9  C   LIG    1       24.514 -29.872   7.657  0.00  0.00    -0.070 C 
ATOM     10  C   LIG    1       24.268 -29.653   6.353  0.00  0.00    -0.027 C 
ATOM     11  C   LIG    1       24.672 -28.408   5.624  0.00  0.00    +0.027 C 
ATOM     12  C   LIG    1       25.053 -27.274   6.571  0.00  0.00    +0.005 C 
ATOM     13  C   LIG    1       23.981 -31.100   8.352  0.00  0.00    +0.031 C 
ATOM     14  C   LIG    1       25.966 -27.779   7.681  0.00  0.00    +0.008 C 
ATOM     15  C   LIG    1       25.039 -31.781   9.215  0.00  0.00    +0.008 C 
ATOM     16  C   LIG    1       24.643 -31.490  12.369  0.00  0.00    +0.007 C 
ATOM     17  C   LIG    1       26.282 -28.144  11.436  0.00  0.00    +0.010 C 
ATOM     18  C   LIG    1       24.945 -30.910  13.746  0.00  0.00    +0.036 C 
ENDROOT
BRANCH   1  19
ATOM     19  O   LIG    1       25.877 -28.814  14.551  0.00  0.00    -0.388 OA
ATOM     20  H   LIG    1       25.032 -28.943  15.014  0.00  0.00    +0.210 HD
ENDBRANCH   1  19
BRANCH   1  21
ATOM     21  C   LIG    1       27.399 -30.264  13.363  0.00  0.00    +0.062 C 
BRANCH  21  23
ATOM     22  C   LIG    1       29.732 -29.597  14.057  0.00  0.00    +0.004 C 
ATOM     23  C   LIG    1       28.403 -29.464  14.162  0.00  0.00    -0.032 C 
ENDBRANCH  21  23
ENDBRANCH   1  21
TORSDOF 3
ENDMDL
MODEL 5
REMARK VINA RESULT:      -5.1      2.128      6.112
REMARK  Name = *****
REMARK                            x       y       z     vdW  Elec       q    Type
REMARK                         _______ _______ _______ _____ _____    ______ ____
ROOT
ATOM      1  C   LIG    1       29.723 -19.916   7.894  0.00  0.00    +0.075 C 
ATOM      2  C   LIG    1       28.609 -20.952   7.490  0.00  0.00    +0.000 C 
ATOM      3  C   LIG    1       29.270 -22.331   7.159  0.00  0.00    +0.014 C 
ATOM      4  C   LIG    1       28.026 -20.377   6.161  0.00  0.00    +0.001 C 
ATOM      5  C   LIG    1       26.676 -19.618   6.253  0.00  0.00    -0.003 C 
ATOM      6  C   LIG    1       25.671 -20.291   7.206  0.00  0.00    -0.000 C 
ATOM      7  C   LIG    1       26.316 -20.399   8.592  0.00  0.00    +0.005 C 
ATOM      8  C   LIG    1       25.114 -21.630   6.638  0.00  0.00    +0.018 C 
ATOM      9  C   LIG    1       24.574 -21.436   5.226  0.00  0.00    -0.070 C 
ATOM     10  C   LIG    1       23.386 -21.926   4.830  0.00  0.00    -0.027 C 
ATOM     11  C   LIG    1       22.498 -22.766   5.696  0.00  0.00    +0.027 C 
ATOM     12  C   LIG    1       23.226 -23.315   6.920  0.00  0.00    +0.005 C 
ATOM     13  C   LIG    1       25.465 -20.689   4.265  0.00  0.00    +0.031 C 
ATOM     14  C   LIG    1       24.053 -22.226   7.591  0.00  0.00    +0.008 C 
ATOM     15  C   LIG    1       26.025 -19.406   4.872  0.00  0.00    +0.008 C 
ATOM     16  C   LIG    1       29.136 -19.461   5.585  0.00  0.00    +0.007 C 
ATOM     17  C   LIG    1       27.572 -21.258   8.598  0.00  0.00    +0.010 C 
ATOM     18  C   LIG    1       30.330 -19.561   6.527  0.00  0.00    +0.036 C 
ENDROOT
BRANCH   1  19
ATOM     19  O   LIG    1       30.706 -20.561   8.711  0.00  0.00    -0.388 OA
ATOM     20  H   LIG    1       30.357 -20.593   9.618  0.00  0.00    +0.210 HD
ENDBRANCH   1  19
BRANCH   1  21
ATOM     21  C   LIG    1       29.218 -18.661   8.657  0.00  0.00    +0.062 C 
BRANCH  21  23
ATOM     22  C   LIG    1       30.334 -17.481  10.590  0.00  0.00    +0.004 C 
ATOM     23  C   LIG    1       30.309 -17.832   9.296  0.00  0.00    -0.032 C 
ENDBRANCH  21  23
ENDBRANCH   1  21
TORSDOF 3
ENDMDL
MODEL 6
REMARK VINA RESULT:      -5.1      9.298     12.019
REMARK  Name = *****
REMARK                            x       y       z     vdW  Elec       q    Type
REMARK                         _______ _______ _______ _____ _____    ______ ____
ROOT
ATOM      1  C   LIG    1       20.225 -31.917  12.958  0.00  0.00    +0.075 C 
ATOM      2  C   LIG    1       21.420 -31.059  13.517  0.00  0.00    +0.000 C 
ATOM      3  C   LIG    1       21.779 -31.539  14.963  0.00  0.00    +0.014 C 
ATOM      4  C   LIG    1       20.826 -29.620  13.631  0.00  0.00    +0.001 C 
ATOM      5  C   LIG    1       21.197 -28.613  12.511  0.00  0.00    -0.003 C 
ATOM      6  C   LIG    1       22.670 -28.712  12.076  0.00  0.00    -0.000 C 
ATOM      7  C   LIG    1       22.942 -30.148  11.612  0.00  0.00    +0.005 C 
ATOM      8  C   LIG    1       23.651 -28.180  13.162  0.00  0.00    +0.018 C 
ATOM      9  C   LIG    1       23.247 -26.782  13.617  0.00  0.00    -0.070 C 
ATOM     10  C   LIG    1       24.131 -25.777  13.746  0.00  0.00    -0.027 C 
ATOM     11  C   LIG    1       25.605 -25.928  13.527  0.00  0.00    +0.027 C 
ATOM     12  C   LIG    1       26.046 -27.388  13.508  0.00  0.00    +0.005 C 
ATOM     13  C   LIG    1       21.791 -26.585  13.960  0.00  0.00    +0.031 C 
ATOM     14  C   LIG    1       25.108 -28.226  12.649  0.00  0.00    +0.008 C 
ATOM     15  C   LIG    1       20.863 -27.157  12.893  0.00  0.00    +0.008 C 
ATOM     16  C   LIG    1       19.290 -29.812  13.715  0.00  0.00    +0.007 C 
ATOM     17  C   LIG    1       22.738 -31.177  12.714  0.00  0.00    +0.010 C 
ATOM     18  C   LIG    1       19.027 -31.312  13.708  0.00  0.00    +0.036 C 
ENDROOT
BRANCH   1  19
ATOM     19  O   LIG    1       20.397 -33.286  13.338  0.00  0.00    -0.388 OA
ATOM     20  H   LIG    1       19.746 -33.482  14.034  0.00  0.00    +0.210 HD
ENDBRANCH   1  19
BRANCH   1  21
ATOM     21  C   LIG    1       20.038 -31.871  11.416  0.00  0.00    +0.062 C 
BRANCH  21  23
ATOM     22  C   LIG    1       18.033 -31.237  10.020  0.00  0.00    +0.004 C 
ATOM     23  C   LIG    1       18.606 -32.011  10.952  0.00  0.00    -0.032 C 
ENDBRANCH  21  23
ENDBRANCH   1  21
TORSDOF 3
ENDMDL
MODEL 7
REMARK VINA RESULT:      -5.1      9.003     11.305
REMARK  Name = *****
REMARK                            x       y       z     vdW  Elec       q    Type
REMARK                         _______ _______ _______ _____ _____    ______ ____
ROOT
ATOM      1  C   LIG    1       24.489 -27.407  14.101  0.00  0.00    +0.075 C 
ATOM      2  C   LIG    1       24.861 -28.852  13.599  0.00  0.00    +0.000 C 
ATOM      3  C   LIG    1       25.533 -29.655  14.762  0.00  0.00    +0.014 C 
ATOM      4  C   LIG    1       25.951 -28.601  12.508  0.00  0.00    +0.001 C 
ATOM      5  C   LIG    1       25.496 -28.675  11.027  0.00  0.00    -0.003 C 
ATOM      6  C   LIG    1       24.510 -29.826  10.756  0.00  0.00    -0.000 C 
ATOM      7  C   LIG    1       23.297 -29.650  11.677  0.00  0.00    +0.005 C 
ATOM      8  C   LIG    1       25.190 -31.225  10.831  0.00  0.00    +0.018 C 
ATOM      9  C   LIG    1       26.432 -31.269   9.948  0.00  0.00    -0.070 C 
ATOM     10  C   LIG    1       26.691 -32.291   9.112  0.00  0.00    -0.027 C 
ATOM     11  C   LIG    1       25.838 -33.518   9.002  0.00  0.00    +0.027 C 
ATOM     12  C   LIG    1       24.872 -33.664  10.174  0.00  0.00    +0.005 C 
ATOM     13  C   LIG    1       27.394 -30.115  10.085  0.00  0.00    +0.031 C 
ATOM     14  C   LIG    1       24.181 -32.340  10.475  0.00  0.00    +0.008 C 
ATOM     15  C   LIG    1       26.685 -28.765  10.050  0.00  0.00    +0.008 C 
ATOM     16  C   LIG    1       26.548 -27.208  12.834  0.00  0.00    +0.007 C 
ATOM     17  C   LIG    1       23.657 -29.717  13.154  0.00  0.00    +0.010 C 
ATOM     18  C   LIG    1       25.861 -26.713  14.101  0.00  0.00    +0.036 C 
ENDROOT
BRANCH   1  19
ATOM     19  O   LIG    1       23.979 -27.479  15.436  0.00  0.00    -0.388 OA
ATOM     20  H   LIG    1       24.325 -28.294  15.839  0.00  0.00    +0.210 HD
ENDBRANCH   1  19
BRANCH   1  21
ATOM     21  C   LIG    1       23.447 -26.650  13.232  0.00  0.00    +0.062 C 
BRANCH  21  23
ATOM     22  C   LIG    1       20.946 -26.956  13.083  0.00  0.00    +0.004 C 
ATOM     23  C   LIG    1       22.043 -26.651  13.792  0.00  0.00    -0.032 C 
ENDBRANCH  21  23
ENDBRANCH   1  21
TORSDOF 3
ENDMDL
MODEL 8
REMARK VINA RESULT:      -4.9      7.742     11.798
REMARK  Name = *****
REMARK                            x       y       z     vdW  Elec       q    Type
REMARK                         _______ _______ _______ _____ _____    ______ ____
ROOT
ATOM      1  C   LIG    1       24.988 -30.760   6.180  0.00  0.00    +0.075 C 
ATOM      2  C   LIG    1       25.457 -31.192   7.619  0.00  0.00    +0.000 C 
ATOM      3  C   LIG    1       26.733 -32.090   7.507  0.00  0.00    +0.014 C 
ATOM      4  C   LIG    1       24.291 -32.091   8.140  0.00  0.00    +0.001 C 
ATOM      5  C   LIG    1       23.292 -31.443   9.134  0.00  0.00    -0.003 C 
ATOM      6  C   LIG    1       23.978 -30.541  10.176  0.00  0.00    -0.000 C 
ATOM      7  C   LIG    1       24.766 -29.457   9.432  0.00  0.00    +0.005 C 
ATOM      8  C   LIG    1       24.804 -31.352  11.217  0.00  0.00    +0.018 C 
ATOM      9  C   LIG    1       23.957 -32.457  11.836  0.00  0.00    -0.070 C 
ATOM     10  C   LIG    1       23.925 -32.691  13.161  0.00  0.00    -0.027 C 
ATOM     11  C   LIG    1       24.759 -31.949  14.160  0.00  0.00    +0.027 C 
ATOM     12  C   LIG    1       25.900 -31.174  13.508  0.00  0.00    +0.005 C 
ATOM     13  C   LIG    1       23.171 -33.317  10.877  0.00  0.00    +0.031 C 
ATOM     14  C   LIG    1       25.406 -30.411  12.285  0.00  0.00    +0.008 C 
ATOM     15  C   LIG    1       22.411 -32.487   9.847  0.00  0.00    +0.008 C 
ATOM     16  C   LIG    1       23.560 -32.595   6.870  0.00  0.00    +0.007 C 
ATOM     17  C   LIG    1       25.867 -30.023   8.548  0.00  0.00    +0.010 C 
ATOM     18  C   LIG    1       24.321 -32.048   5.669  0.00  0.00    +0.036 C 
ENDROOT
BRANCH   1  19
ATOM     19  O   LIG    1       26.129 -30.450   5.375  0.00  0.00    -0.388 OA
ATOM     20  H   LIG    1       26.356 -31.248   4.868  0.00  0.00    +0.210 HD
ENDBRANCH   1  19
BRANCH   1  21
ATOM     21  C   LIG    1       24.025 -29.541   6.133  0.00  0.00    +0.062 C 
BRANCH  21  23
ATOM     22  C   LIG    1       24.401 -27.046   6.075  0.00  0.00    +0.004 C 
ATOM     23  C   LIG    1       24.643 -28.273   5.591  0.00  0.00    -0.032 C 
ENDBRANCH  21  23
ENDBRANCH   1  21
TORSDOF 3
ENDMDL
MODEL 9
REMARK VINA RESULT:      -4.9      9.446     11.609
REMARK  Name = *****
REMARK                            x       y       z     vdW  Elec       q    Type
REMARK                         _______ _______ _______ _____ _____    ______ ____
ROOT
ATOM      1  C   LIG    1       23.716 -28.752  13.737  0.00  0.00    +0.075 C 
ATOM      2  C   LIG    1       24.131 -30.030  12.918  0.00  0.00    +0.000 C 
ATOM      3  C   LIG    1       24.506 -31.187  13.904  0.00  0.00    +0.014 C 
ATOM      4  C   LIG    1       25.439 -29.595  12.182  0.00  0.00    +0.001 C 
ATOM      5  C   LIG    1       25.310 -29.210  10.685  0.00  0.00    -0.003 C 
ATOM      6  C   LIG    1       24.362 -30.138   9.904  0.00  0.00    -0.000 C 
ATOM      7  C   LIG    1       22.987 -30.106  10.581  0.00  0.00    +0.005 C 
ATOM      8  C   LIG    1       24.956 -31.563   9.698  0.00  0.00    +0.018 C 
ATOM      9  C   LIG    1       26.355 -31.483   9.099  0.00  0.00    -0.070 C 
ATOM     10  C   LIG    1       26.748 -32.253   8.069  0.00  0.00    -0.027 C 
ATOM     11  C   LIG    1       25.892 -33.311   7.442  0.00  0.00    +0.027 C 
ATOM     12  C   LIG    1       24.693 -33.680   8.309  0.00  0.00    +0.005 C 
ATOM     13  C   LIG    1       27.309 -30.513   9.751  0.00  0.00    +0.031 C 
ATOM     14  C   LIG    1       24.005 -32.430   8.842  0.00  0.00    +0.008 C 
ATOM     15  C   LIG    1       26.677 -29.143   9.975  0.00  0.00    +0.008 C 
ATOM     16  C   LIG    1       26.005 -28.414  13.010  0.00  0.00    +0.007 C 
ATOM     17  C   LIG    1       23.019 -30.614  12.015  0.00  0.00    +0.010 C 
ATOM     18  C   LIG    1       25.082 -28.224  14.207  0.00  0.00    +0.036 C 
ENDROOT
BRANCH   1  19
ATOM     19  O   LIG    1       22.929 -29.141  14.867  0.00  0.00    -0.388 OA
ATOM     20  H   LIG    1       23.237 -30.019  15.152  0.00  0.00    +0.210 HD
ENDBRANCH   1  19
BRANCH   1  21
ATOM     21  C   LIG    1       22.915 -27.685  12.942  0.00  0.00    +0.062 C 
BRANCH  21  23
ATOM     22  C   LIG    1       20.552 -26.801  13.034  0.00  0.00    +0.004 C 
ATOM     23  C   LIG    1       21.686 -27.164  13.651  0.00  0.00    -0.032 C 
ENDBRANCH  21  23
ENDBRANCH   1  21
TORSDOF 3
ENDMDL
