MODEL 1
REMARK VINA RESULT:      -4.0      0.000      0.000
REMARK  Name = *****
REMARK                            x       y       z     vdW  Elec       q    Type
REMARK                         _______ _______ _______ _____ _____    ______ ____
ROOT
ATOM      1  C   LIG    1       25.328 -12.959   2.657  0.00  0.00    +0.399 C 
ENDROOT
BRANCH   1   2
ATOM      2  C   LIG    1       24.913 -13.300   4.133  0.00  0.00    +0.263 C 
ATOM      3 CL   LIG    1       24.049 -11.905   4.867  0.00  0.00    -0.076 Cl
ATOM      4 CL   LIG    1       26.371 -13.633   5.129  0.00  0.00    -0.076 Cl
ATOM      5 CL   LIG    1       23.829 -14.725   4.182  0.00  0.00    -0.076 Cl
ENDBRANCH   1   2
BRANCH   1   6
ATOM      6  O   LIG    1       26.031 -14.010   1.997  0.00  0.00    -0.504 OA
ATOM      7  H   LIG    1       26.596 -14.426   2.674  0.00  0.00    +0.287 HD
ENDBRANCH   1   6
BRANCH   1   8
ATOM      8  O   LIG    1       24.223 -12.658   1.814  0.00  0.00    -0.504 OA
ATOM      9  H   LIG    1       24.461 -11.826   1.368  0.00  0.00    +0.287 HD
ENDBRANCH   1   8
TORSDOF 3
ENDMDL
MODEL 2
REMARK VINA RESULT:      -4.0      1.661      2.175
REMARK  Name = *****
REMARK                            x       y       z     vdW  Elec       q    Type
REMARK                         _______ _______ _______ _____ _____    ______ ____
ROOT
ATOM      1  C   LIG    1       26.372 -14.805   2.969  0.00  0.00    +0.399 C 
ENDROOT
BRANCH   1   2
ATOM      2  C   LIG    1       25.386 -13.871   3.757  0.00  0.00    +0.263 C 
ATOM      3 CL   LIG    1       24.882 -12.493   2.720  0.00  0.00    -0.076 Cl
ATOM      4 CL   LIG    1       26.194 -13.200   5.215  0.00  0.00    -0.076 Cl
ATOM      5 CL   LIG    1       23.917 -14.766   4.260  0.00  0.00    -0.076 Cl
ENDBRANCH   1   2
BRANCH   1   6
ATOM      6  O   LIG    1       26.944 -14.197   1.813  0.00  0.00    -0.504 OA
ATOM      7  H   LIG    1       26.945 -13.237   1.983  0.00  0.00    +0.287 HD
ENDBRANCH   1   6
BRANCH   1   8
ATOM      8  O   LIG    1       27.477 -15.246   3.748  0.00  0.00    -0.504 OA
ATOM      9  H   LIG    1       27.773 -16.073   3.327  0.00  0.00    +0.287 HD
ENDBRANCH   1   8
TORSDOF 3
ENDMDL
MODEL 3
REMARK VINA RESULT:      -4.0      1.646      2.773
REMARK  Name = *****
REMARK                            x       y       z     vdW  Elec       q    Type
REMARK                         _______ _______ _______ _____ _____    ______ ____
ROOT
ATOM      1  C   LIG    1       26.365 -14.786   2.976  0.00  0.00    +0.399 C 
ENDROOT
BRANCH   1   2
ATOM      2  C   LIG    1       25.388 -13.849   3.772  0.00  0.00    +0.263 C 
ATOM      3 CL   LIG    1       23.925 -14.767   4.270  0.00  0.00    -0.076 Cl
ATOM      4 CL   LIG    1       24.856 -12.480   2.738  0.00  0.00    -0.076 Cl
ATOM      5 CL   LIG    1       26.177 -13.202   5.245  0.00  0.00    -0.076 Cl
ENDBRANCH   1   2
BRANCH   1   6
ATOM      6  O   LIG    1       26.927 -14.181   1.813  0.00  0.00    -0.504 OA
ATOM      7  H   LIG    1       27.401 -13.386   2.122  0.00  0.00    +0.287 HD
ENDBRANCH   1   6
BRANCH   1   8
ATOM      8  O   LIG    1       27.477 -15.228   3.744  0.00  0.00    -0.504 OA
ATOM      9  H   LIG    1       27.387 -14.781   4.604  0.00  0.00    +0.287 HD
ENDBRANCH   1   8
TORSDOF 3
ENDMDL
MODEL 4
REMARK VINA RESULT:      -4.0      0.151      1.926
REMARK  Name = *****
REMARK                            x       y       z     vdW  Elec       q    Type
REMARK                         _______ _______ _______ _____ _____    ______ ____
ROOT
ATOM      1  C   LIG    1       25.425 -12.968   2.603  0.00  0.00    +0.399 C 
ENDROOT
BRANCH   1   2
ATOM      2  C   LIG    1       25.042 -13.350   4.077  0.00  0.00    +0.263 C 
ATOM      3 CL   LIG    1       24.009 -14.820   4.084  0.00  0.00    -0.076 Cl
ATOM      4 CL   LIG    1       24.113 -12.018   4.845  0.00  0.00    -0.076 Cl
ATOM      5 CL   LIG    1       26.506 -13.685   5.055  0.00  0.00    -0.076 Cl
ENDBRANCH   1   2
BRANCH   1   6
ATOM      6  O   LIG    1       26.053 -14.022   1.877  0.00  0.00    -0.504 OA
ATOM      7  H   LIG    1       25.940 -14.828   2.415  0.00  0.00    +0.287 HD
ENDBRANCH   1   6
BRANCH   1   8
ATOM      8  O   LIG    1       24.310 -12.579   1.812  0.00  0.00    -0.504 OA
ATOM      9  H   LIG    1       23.665 -12.211   2.442  0.00  0.00    +0.287 HD
ENDBRANCH   1   8
TORSDOF 3
ENDMDL
MODEL 5
REMARK VINA RESULT:      -4.0      1.652      2.661
REMARK  Name = *****
REMARK                            x       y       z     vdW  Elec       q    Type
REMARK                         _______ _______ _______ _____ _____    ______ ____
ROOT
ATOM      1  C   LIG    1       26.360 -14.790   2.966  0.00  0.00    +0.399 C 
ENDROOT
BRANCH   1   2
ATOM      2  C   LIG    1       25.371 -13.850   3.745  0.00  0.00    +0.263 C 
ATOM      3 CL   LIG    1       26.170 -13.202   5.218  0.00  0.00    -0.076 Cl
ATOM      4 CL   LIG    1       23.916 -14.769   4.264  0.00  0.00    -0.076 Cl
ATOM      5 CL   LIG    1       24.861 -12.469   2.725  0.00  0.00    -0.076 Cl
ENDBRANCH   1   2
BRANCH   1   6
ATOM      6  O   LIG    1       26.944 -14.188   1.814  0.00  0.00    -0.504 OA
ATOM      7  H   LIG    1       27.305 -14.919   1.278  0.00  0.00    +0.287 HD
ENDBRANCH   1   6
BRANCH   1   8
ATOM      8  O   LIG    1       27.456 -15.235   3.755  0.00  0.00    -0.504 OA
ATOM      9  H   LIG    1       28.164 -15.438   3.118  0.00  0.00    +0.287 HD
ENDBRANCH   1   8
TORSDOF 3
ENDMDL
MODEL 6
REMARK VINA RESULT:      -3.8      6.775      7.782
REMARK  Name = *****
REMARK                            x       y       z     vdW  Elec       q    Type
REMARK                         _______ _______ _______ _____ _____    ______ ____
ROOT
ATOM      1  C   LIG    1       24.094 -20.722   4.155  0.00  0.00    +0.399 C 
ENDROOT
BRANCH   1   2
ATOM      2  C   LIG    1       22.897 -20.344   5.099  0.00  0.00    +0.263 C 
ATOM      3 CL   LIG    1       23.400 -20.489   6.819  0.00  0.00    -0.076 Cl
ATOM      4 CL   LIG    1       21.515 -21.462   4.832  0.00  0.00    -0.076 Cl
ATOM      5 CL   LIG    1       22.357 -18.661   4.809  0.00  0.00    -0.076 Cl
ENDBRANCH   1   2
BRANCH   1   6
ATOM      6  O   LIG    1       24.833 -19.599   3.681  0.00  0.00    -0.504 OA
ATOM      7  H   LIG    1       25.138 -19.833   2.785  0.00  0.00    +0.287 HD
ENDBRANCH   1   6
BRANCH   1   8
ATOM      8  O   LIG    1       25.053 -21.572   4.771  0.00  0.00    -0.504 OA
ATOM      9  H   LIG    1       25.040 -21.332   5.714  0.00  0.00    +0.287 HD
ENDBRANCH   1   8
TORSDOF 3
ENDMDL
MODEL 7
REMARK VINA RESULT:      -3.8      6.736      7.730
REMARK  Name = *****
REMARK                            x       y       z     vdW  Elec       q    Type
REMARK                         _______ _______ _______ _____ _____    ______ ____
ROOT
ATOM      1  C   LIG    1       24.085 -20.637   4.161  0.00  0.00    +0.399 C 
ENDROOT
BRANCH   1   2
ATOM      2  C   LIG    1       22.888 -20.299   5.119  0.00  0.00    +0.263 C 
ATOM      3 CL   LIG    1       21.501 -21.390   4.777  0.00  0.00    -0.076 Cl
ATOM      4 CL   LIG    1       22.338 -18.608   4.858  0.00  0.00    -0.076 Cl
ATOM      5 CL   LIG    1       23.359 -20.505   6.835  0.00  0.00    -0.076 Cl
ENDBRANCH   1   2
BRANCH   1   6
ATOM      6  O   LIG    1       24.872 -19.504   3.798  0.00  0.00    -0.504 OA
ATOM      7  H   LIG    1       24.632 -18.794   4.423  0.00  0.00    +0.287 HD
ENDBRANCH   1   6
BRANCH   1   8
ATOM      8  O   LIG    1       25.004 -21.572   4.712  0.00  0.00    -0.504 OA
ATOM      9  H   LIG    1       25.636 -21.762   3.997  0.00  0.00    +0.287 HD
ENDBRANCH   1   8
TORSDOF 3
ENDMDL
MODEL 8
REMARK VINA RESULT:      -3.7      1.442      2.114
REMARK  Name = *****
REMARK                            x       y       z     vdW  Elec       q    Type
REMARK                         _______ _______ _______ _____ _____    ______ ____
ROOT
ATOM      1  C   LIG    1       25.860 -13.488   2.493  0.00  0.00    +0.399 C 
ENDROOT
BRANCH   1   2
ATOM      2  C   LIG    1       25.616 -14.434   3.723  0.00  0.00    +0.263 C 
ATOM      3 CL   LIG    1       23.856 -14.560   4.064  0.00  0.00    -0.076 Cl
ATOM      4 CL   LIG    1       26.417 -13.768   5.188  0.00  0.00    -0.076 Cl
ATOM      5 CL   LIG    1       26.249 -16.079   3.404  0.00  0.00    -0.076 Cl
ENDBRANCH   1   2
BRANCH   1   6
ATOM      6  O   LIG    1       24.876 -12.468   2.344  0.00  0.00    -0.504 OA
ATOM      7  H   LIG    1       24.498 -12.322   3.231  0.00  0.00    +0.287 HD
ENDBRANCH   1   6
BRANCH   1   8
ATOM      8  O   LIG    1       27.106 -12.804   2.544  0.00  0.00    -0.504 OA
ATOM      9  H   LIG    1       27.580 -13.076   1.738  0.00  0.00    +0.287 HD
ENDBRANCH   1   8
TORSDOF 3
ENDMDL
MODEL 9
REMARK VINA RESULT:      -3.7      2.706      3.147
REMARK  Name = *****
REMARK                            x       y       z     vdW  Elec       q    Type
REMARK                         _______ _______ _______ _____ _____    ______ ____
ROOT
ATOM      1  C   LIG    1       27.208 -13.962   4.601  0.00  0.00    +0.399 C 
ENDROOT
BRANCH   1   2
ATOM      2  C   LIG    1       26.041 -14.466   3.679  0.00  0.00    +0.263 C 
ATOM      3 CL   LIG    1       26.053 -13.567   2.123  0.00  0.00    -0.076 Cl
ATOM      4 CL   LIG    1       24.453 -14.179   4.471  0.00  0.00    -0.076 Cl
ATOM      5 CL   LIG    1       26.212 -16.213   3.323  0.00  0.00    -0.076 Cl
ENDBRANCH   1   2
BRANCH   1   6
ATOM      6  O   LIG    1       28.172 -13.157   3.925  0.00  0.00    -0.504 OA
ATOM      7  H   LIG    1       28.459 -12.481   4.567  0.00  0.00    +0.287 HD
ENDBRANCH   1   6
BRANCH   1   8
ATOM      8  O   LIG    1       26.763 -13.175   5.698  0.00  0.00    -0.504 OA
ATOM      9  H   LIG    1       26.687 -12.269   5.349  0.00  0.00    +0.287 HD
ENDBRANCH   1   8
TORSDOF 3
ENDMDL
