MODEL 1
REMARK VINA RESULT:       9.9      0.000      0.000
REMARK  Name = *****
REMARK                            x       y       z     vdW  Elec       q    Type
REMARK                         _______ _______ _______ _____ _____    ______ ____
ROOT
ATOM      1  O   LIG    1       23.535 -16.300   4.076  0.00  0.00    -0.340 OA
ENDROOT
BRANCH   1   7
ATOM      2  C   LIG    1       22.253 -12.547   6.159  0.00  0.00    +0.039 C 
ATOM      3  C   LIG    1       23.403 -13.548   6.046  0.00  0.00    +0.138 C 
ATOM      4  C   LIG    1       24.662 -12.814   5.517  0.00  0.00    +0.114 C 
ATOM      5  C   LIG    1       24.878 -13.390   4.116  0.00  0.00    +0.167 C 
ATOM      6  C   LIG    1       23.522 -13.837   3.495  0.00  0.00    +0.200 C 
ATOM      7  C   LIG    1       22.866 -15.045   4.232  0.00  0.00    +0.282 C 
ATOM      8  O   LIG    1       22.876 -14.777   5.592  0.00  0.00    -0.344 OA
BRANCH   6   9
ATOM      9  O   LIG    1       23.620 -14.049   2.097  0.00  0.00    -0.384 OA
ATOM     10  H   LIG    1       22.944 -14.702   1.872  0.00  0.00    +0.210 HD
ENDBRANCH   6   9
BRANCH   5  11
ATOM     11  O   LIG    1       25.476 -12.306   3.380  0.00  0.00    -0.387 OA
ATOM     12  H   LIG    1       24.952 -11.502   3.502  0.00  0.00    +0.210 HD
ENDBRANCH   5  11
BRANCH   4  13
ATOM     13  N   LIG    1       26.011 -12.755   6.187  0.00  0.00    -0.300 NA
ATOM     14  H   LIG    1       25.803 -13.064   7.147  0.00  0.00    +0.123 HD
BRANCH  13  15
ATOM     15  C   LIG    1       27.218 -13.551   5.834  0.00  0.00    +0.109 C 
ATOM     16  C   LIG    1       28.443 -12.848   5.242  0.00  0.00    +0.166 C 
ATOM     17  C   LIG    1       28.112 -12.474   3.833  0.00  0.00    +0.177 C 
ATOM     18  C   LIG    1       27.820 -13.688   2.926  0.00  0.00    +0.173 C 
ATOM     19  C   LIG    1       27.186 -14.817   3.661  0.00  0.00    -0.016 C 
ATOM     20  C   LIG    1       26.902 -14.753   4.977  0.00  0.00    -0.002 C 
BRANCH  18  21
ATOM     21  O   LIG    1       26.944 -13.477   1.812  0.00  0.00    -0.385 OA
ATOM     22  H   LIG    1       26.108 -13.054   2.098  0.00  0.00    +0.210 HD
ENDBRANCH  18  21
BRANCH  17  23
ATOM     23  O   LIG    1       29.139 -11.565   3.489  0.00  0.00    -0.386 OA
ATOM     24  H   LIG    1       29.961 -12.114   3.609  0.00  0.00    +0.210 HD
ENDBRANCH  17  23
BRANCH  16  25
ATOM     25  O   LIG    1       28.874 -11.698   5.985  0.00  0.00    -0.387 OA
ATOM     26  H   LIG    1       28.336 -11.713   6.803  0.00  0.00    +0.210 HD
ENDBRANCH  16  25
BRANCH  19  27
ATOM     27  C   LIG    1       26.851 -15.978   2.782  0.00  0.00    +0.189 C 
BRANCH  27  28
ATOM     28  O   LIG    1       25.488 -15.868   2.410  0.00  0.00    -0.391 OA
ATOM     29  H   LIG    1       25.042 -15.382   3.130  0.00  0.00    +0.210 HD
ENDBRANCH  27  28
ENDBRANCH  19  27
ENDBRANCH  13  15
ENDBRANCH   4  13
ENDBRANCH   1   7
BRANCH   1  30
ATOM     30  C   LIG    1       22.736 -17.498   3.788  0.00  0.00    +0.183 C 
ATOM     31  C   LIG    1       21.890 -18.055   4.959  0.00  0.00    +0.178 C 
ATOM     32  O   LIG    1       22.554 -19.035   5.809  0.00  0.00    -0.341 OA
ATOM     33  C   LIG    1       23.608 -19.907   5.285  0.00  0.00    +0.282 C 
ATOM     34  C   LIG    1       23.420 -20.009   3.776  0.00  0.00    +0.201 C 
ATOM     35  C   LIG    1       23.416 -18.659   3.008  0.00  0.00    +0.179 C 
BRANCH  35  36
ATOM     36  O   LIG    1       22.582 -18.947   1.837  0.00  0.00    -0.386 OA
ATOM     37  H   LIG    1       23.124 -19.457   1.205  0.00  0.00    +0.210 HD
ENDBRANCH  35  36
BRANCH  34  38
ATOM     38  O   LIG    1       24.130 -21.077   3.166  0.00  0.00    -0.384 OA
ATOM     39  H   LIG    1       25.027 -21.062   3.557  0.00  0.00    +0.210 HD
ENDBRANCH  34  38
BRANCH  31  40
ATOM     40  C   LIG    1       20.440 -18.492   4.501  0.00  0.00    +0.190 C 
BRANCH  40  41
ATOM     41  O   LIG    1       19.674 -17.518   3.801  0.00  0.00    -0.392 OA
ATOM     42  H   LIG    1       19.801 -16.645   4.220  0.00  0.00    +0.209 HD
ENDBRANCH  40  41
ENDBRANCH  31  40
BRANCH  33  43
ATOM     43  O   LIG    1       24.890 -19.582   5.840  0.00  0.00    -0.340 OA
BRANCH  43  44
ATOM     44  C   LIG    1       26.201 -19.796   5.240  0.00  0.00    +0.183 C 
BRANCH  44  45
ATOM     45  C   LIG    1       27.202 -20.700   6.039  0.00  0.00    +0.181 C 
BRANCH  45  46
ATOM     46  O   LIG    1       26.748 -21.571   7.054  0.00  0.00    -0.386 OA
ATOM     47  H   LIG    1       26.721 -22.463   6.676  0.00  0.00    +0.210 HD
ENDBRANCH  45  46
BRANCH  45  48
ATOM     48  C   LIG    1       28.277 -19.919   6.869  0.00  0.00    +0.208 C 
BRANCH  48  49
ATOM     49  O   LIG    1       29.385 -20.761   7.062  0.00  0.00    -0.382 OA
ATOM     50  H   LIG    1       29.079 -21.687   7.075  0.00  0.00    +0.210 HD
ENDBRANCH  48  49
BRANCH  48  51
ATOM     51  C   LIG    1       28.681 -18.552   6.873  0.00  0.00    +0.257 C 
ATOM     52  O   LIG    1       29.297 -17.934   5.916  0.00  0.00    -0.298 OA
ENDBRANCH  48  51
ENDBRANCH  45  48
ENDBRANCH  44  45
BRANCH  44  53
ATOM     53  C   LIG    1       27.054 -18.797   4.408  0.00  0.00    +0.171 C 
BRANCH  53  54
ATOM     54  O   LIG    1       28.484 -18.825   4.509  0.00  0.00    -0.387 OA
ATOM     55  H   LIG    1       28.903 -18.131   3.992  0.00  0.00    +0.210 HD
ENDBRANCH  53  54
BRANCH  53  56
ATOM     56  C   LIG    1       26.470 -18.082   3.192  0.00  0.00    +0.190 C 
BRANCH  56  57
ATOM     57  O   LIG    1       26.283 -18.949   2.096  0.00  0.00    -0.392 OA
ATOM     58  H   LIG    1       27.033 -18.790   1.494  0.00  0.00    +0.209 HD
ENDBRANCH  56  57
ENDBRANCH  53  56
ENDBRANCH  44  53
ENDBRANCH  43  44
ENDBRANCH  33  43
ENDBRANCH   1  30
TORSDOF 26
ENDMDL
