MODEL 1
REMARK VINA RESULT:      -8.8      0.000      0.000
REMARK  Name = *****
REMARK                            x       y       z     vdW  Elec       q    Type
REMARK                         _______ _______ _______ _____ _____    ______ ____
ROOT
ATOM      1  C   LIG    1       29.220 -20.292   7.223  0.00  0.00    -0.021 C 
ATOM      2  C   LIG    1       28.644 -21.360   8.141  0.00  0.00    +0.104 C 
ATOM      3  S   LIG    1       27.111 -22.105   7.511  0.00  0.00    -0.131 S 
ATOM      4  C   LIG    1       26.312 -20.499   7.227  0.00  0.00    +0.169 C 
ATOM      5  N   LIG    1       27.110 -19.765   6.255  0.00  0.00    -0.249 N 
ATOM      6  C   LIG    1       26.238 -19.911   5.234  0.00  0.00    +0.244 C 
ATOM      7  O   LIG    1       26.376 -19.691   4.045  0.00  0.00    -0.273 OA
ATOM      8  CA  LIG    1       25.160 -20.480   6.171  0.00  0.00    +0.191 C 
ATOM      9  CA  LIG    1       28.477 -19.608   6.308  0.00  0.00    +0.123 C 
ENDROOT
BRANCH   8  10
ATOM     10  N   LIG    1       24.554 -21.788   5.798  0.00  0.00    -0.299 N 
ATOM     11  H   LIG    1       25.067 -22.412   5.182  0.00  0.00    +0.150 HD
ATOM     12  C   LIG    1       23.619 -22.362   6.633  0.00  0.00    +0.247 C 
ATOM     13  O   LIG    1       23.238 -21.799   7.660  0.00  0.00    -0.273 OA
BRANCH  12  14
ATOM     14  C   LIG    1       23.048 -23.723   6.182  0.00  0.00    +0.230 C 
BRANCH  14  15
ATOM     15  C   LIG    1       24.098 -24.814   6.212  0.00  0.00    -0.010 A 
ATOM     16  C   LIG    1       25.239 -24.688   7.020  0.00  0.00    +0.006 A 
ATOM     17  C   LIG    1       26.200 -25.703   7.055  0.00  0.00    +0.000 A 
ATOM     18  C   LIG    1       26.032 -26.855   6.289  0.00  0.00    +0.000 A 
ATOM     19  C   LIG    1       24.904 -26.996   5.487  0.00  0.00    +0.000 A 
ATOM     20  C   LIG    1       23.945 -25.986   5.451  0.00  0.00    +0.006 A 
ENDBRANCH  14  15
BRANCH  14  21
ATOM     21  O   LIG    1       21.952 -24.084   7.027  0.00  0.00    -0.378 OA
ATOM     22  H   LIG    1       21.969 -25.058   7.076  0.00  0.00    +0.211 HD
ENDBRANCH  14  21
ENDBRANCH  12  14
ENDBRANCH   8  10
BRANCH   9  23
ATOM     23  C   LIG    1       29.154 -18.627   5.368  0.00  0.00    +0.351 C 
ATOM     24  O   LIG    1       30.361 -18.431   5.339  0.00  0.00    -0.244 OA
BRANCH  23  25
ATOM     25  OXT LIG    1       28.352 -17.925   4.552  0.00  0.00    -0.476 OA
ATOM     26  HXT LIG    1       28.695 -17.076   4.204  0.00  0.00    +0.295 HD
ENDBRANCH  23  25
ENDBRANCH   9  23
BRANCH   1  27
ATOM     27  C   LIG    1       30.739 -20.180   7.341  0.00  0.00    +0.111 C 
BRANCH  27  28
ATOM     28  S   LIG    1       31.255 -20.053   9.084  0.00  0.00    -0.080 S 
BRANCH  28  31
ATOM     29  C   LIG    1       30.708 -17.775  11.452  0.00  0.00    +0.177 C 
ATOM     30  N   LIG    1       31.335 -17.526  10.185  0.00  0.00    -0.223 N 
ATOM     31  C   LIG    1       31.607 -18.361   9.139  0.00  0.00    +0.209 A 
ATOM     32  N   LIG    1       32.202 -17.670   8.194  0.00  0.00    -0.102 NA
ATOM     33  N   LIG    1       32.317 -16.389   8.681  0.00  0.00    -0.022 NA
ATOM     34  N   LIG    1       31.793 -16.292   9.896  0.00  0.00    -0.043 NA
ENDBRANCH  28  31
ENDBRANCH  27  28
ENDBRANCH   1  27
TORSDOF 9
ENDMDL
MODEL 2
REMARK VINA RESULT:      -8.6      6.204     11.050
REMARK  Name = *****
REMARK                            x       y       z     vdW  Elec       q    Type
REMARK                         _______ _______ _______ _____ _____    ______ ____
ROOT
ATOM      1  C   LIG    1       25.844 -31.323   8.075  0.00  0.00    -0.021 C 
ATOM      2  C   LIG    1       26.536 -30.220   8.864  0.00  0.00    +0.104 C 
ATOM      3  S   LIG    1       25.852 -28.567   8.546  0.00  0.00    -0.131 S 
ATOM      4  C   LIG    1       25.983 -28.733   6.743  0.00  0.00    +0.169 C 
ATOM      5  N   LIG    1       25.151 -29.856   6.333  0.00  0.00    -0.249 N 
ATOM      6  C   LIG    1       24.180 -29.101   5.776  0.00  0.00    +0.244 C 
ATOM      7  O   LIG    1       23.063 -29.409   5.401  0.00  0.00    -0.273 OA
ATOM      8  CA  LIG    1       25.032 -27.828   5.896  0.00  0.00    +0.191 C 
ATOM      9  CA  LIG    1       25.153 -31.101   6.922  0.00  0.00    +0.123 C 
ENDROOT
BRANCH   8  10
ATOM     10  N   LIG    1       24.415 -26.657   6.581  0.00  0.00    -0.299 N 
ATOM     11  H   LIG    1       24.265 -26.695   7.585  0.00  0.00    +0.150 HD
ATOM     12  C   LIG    1       24.525 -25.407   6.011  0.00  0.00    +0.247 C 
ATOM     13  O   LIG    1       25.083 -25.238   4.926  0.00  0.00    -0.273 OA
BRANCH  12  14
ATOM     14  C   LIG    1       23.870 -24.244   6.788  0.00  0.00    +0.230 C 
BRANCH  14  15
ATOM     15  C   LIG    1       24.726 -22.995   6.762  0.00  0.00    -0.010 A 
ATOM     16  C   LIG    1       25.935 -22.940   7.472  0.00  0.00    +0.006 A 
ATOM     17  C   LIG    1       26.728 -21.789   7.434  0.00  0.00    +0.000 A 
ATOM     18  C   LIG    1       26.327 -20.684   6.686  0.00  0.00    +0.000 A 
ATOM     19  C   LIG    1       25.133 -20.726   5.974  0.00  0.00    +0.000 A 
ATOM     20  C   LIG    1       24.341 -21.872   6.009  0.00  0.00    +0.006 A 
ENDBRANCH  14  15
BRANCH  14  21
ATOM     21  O   LIG    1       22.585 -23.962   6.229  0.00  0.00    -0.378 OA
ATOM     22  H   LIG    1       22.173 -24.832   6.069  0.00  0.00    +0.211 HD
ENDBRANCH  14  21
ENDBRANCH  12  14
ENDBRANCH   8  10
BRANCH   9  23
ATOM     23  C   LIG    1       24.415 -32.246   6.253  0.00  0.00    +0.351 C 
ATOM     24  O   LIG    1       24.921 -32.998   5.433  0.00  0.00    -0.244 OA
BRANCH  23  25
ATOM     25  OXT LIG    1       23.121 -32.399   6.579  0.00  0.00    -0.476 OA
ATOM     26  HXT LIG    1       22.844 -32.108   7.472  0.00  0.00    +0.295 HD
ENDBRANCH  23  25
ENDBRANCH   9  23
BRANCH   1  27
ATOM     27  C   LIG    1       25.890 -32.670   8.794  0.00  0.00    +0.111 C 
BRANCH  27  28
ATOM     28  S   LIG    1       25.252 -32.529  10.495  0.00  0.00    -0.080 S 
BRANCH  28  31
ATOM     29  C   LIG    1       23.413 -29.856  11.249  0.00  0.00    +0.177 C 
ATOM     30  N   LIG    1       22.962 -30.994  10.500  0.00  0.00    -0.223 N 
ATOM     31  C   LIG    1       23.606 -32.141  10.135  0.00  0.00    +0.209 A 
ATOM     32  N   LIG    1       22.775 -32.888   9.444  0.00  0.00    -0.102 NA
ATOM     33  N   LIG    1       21.604 -32.172   9.365  0.00  0.00    -0.022 NA
ATOM     34  N   LIG    1       21.708 -31.014  10.004  0.00  0.00    -0.043 NA
ENDBRANCH  28  31
ENDBRANCH  27  28
ENDBRANCH   1  27
TORSDOF 9
ENDMDL
MODEL 3
REMARK VINA RESULT:      -8.4      7.310     10.402
REMARK  Name = *****
REMARK                            x       y       z     vdW  Elec       q    Type
REMARK                         _______ _______ _______ _____ _____    ______ ____
ROOT
ATOM      1  C   LIG    1       25.559 -30.131  11.954  0.00  0.00    -0.021 C 
ATOM      2  C   LIG    1       26.944 -29.603  11.608  0.00  0.00    +0.104 C 
ATOM      3  S   LIG    1       27.047 -28.881   9.944  0.00  0.00    -0.131 S 
ATOM      4  C   LIG    1       26.306 -30.333   9.143  0.00  0.00    +0.169 C 
ATOM      5  N   LIG    1       24.964 -30.506   9.681  0.00  0.00    -0.249 N 
ATOM      6  C   LIG    1       24.323 -30.084   8.569  0.00  0.00    +0.244 C 
ATOM      7  O   LIG    1       23.154 -29.793   8.398  0.00  0.00    -0.273 OA
ATOM      8  CA  LIG    1       25.629 -30.085   7.757  0.00  0.00    +0.191 C 
ATOM      9  CA  LIG    1       24.636 -30.487  11.018  0.00  0.00    +0.123 C 
ENDROOT
BRANCH   8  10
ATOM     10  N   LIG    1       25.984 -28.830   7.038  0.00  0.00    -0.299 N 
ATOM     11  H   LIG    1       26.809 -28.312   7.327  0.00  0.00    +0.150 HD
ATOM     12  C   LIG    1       25.556 -28.651   5.740  0.00  0.00    +0.247 C 
ATOM     13  O   LIG    1       24.848 -29.484   5.173  0.00  0.00    -0.273 OA
BRANCH  12  14
ATOM     14  C   LIG    1       25.976 -27.331   5.059  0.00  0.00    +0.230 C 
BRANCH  14  15
ATOM     15  C   LIG    1       25.397 -26.123   5.765  0.00  0.00    -0.010 A 
ATOM     16  C   LIG    1       26.237 -25.179   6.377  0.00  0.00    +0.006 A 
ATOM     17  C   LIG    1       25.698 -24.059   7.016  0.00  0.00    +0.000 A 
ATOM     18  C   LIG    1       24.319 -23.864   7.049  0.00  0.00    +0.000 A 
ATOM     19  C   LIG    1       23.474 -24.789   6.443  0.00  0.00    +0.000 A 
ATOM     20  C   LIG    1       24.008 -25.906   5.805  0.00  0.00    +0.006 A 
ENDBRANCH  14  15
BRANCH  14  21
ATOM     21  O   LIG    1       27.403 -27.240   5.037  0.00  0.00    -0.378 OA
ATOM     22  H   LIG    1       27.642 -27.114   4.099  0.00  0.00    +0.211 HD
ENDBRANCH  14  21
ENDBRANCH  12  14
ENDBRANCH   8  10
BRANCH   9  23
ATOM     23  C   LIG    1       23.246 -30.914  11.454  0.00  0.00    +0.351 C 
ATOM     24  O   LIG    1       22.958 -32.050  11.801  0.00  0.00    -0.244 OA
BRANCH  23  25
ATOM     25  OXT LIG    1       22.290 -29.972  11.417  0.00  0.00    -0.476 OA
ATOM     26  HXT LIG    1       21.667 -29.933  12.172  0.00  0.00    +0.295 HD
ENDBRANCH  23  25
ENDBRANCH   9  23
BRANCH   1  27
ATOM     27  C   LIG    1       25.274 -30.076  13.454  0.00  0.00    +0.111 C 
BRANCH  27  28
ATOM     28  S   LIG    1       25.619 -28.420  14.129  0.00  0.00    -0.080 S 
BRANCH  28  31
ATOM     29  C   LIG    1       24.806 -25.210  13.766  0.00  0.00    +0.177 C 
ATOM     30  N   LIG    1       23.902 -26.318  13.640  0.00  0.00    -0.223 N 
ATOM     31  C   LIG    1       24.107 -27.662  13.772  0.00  0.00    +0.209 A 
ATOM     32  N   LIG    1       22.969 -28.282  13.556  0.00  0.00    -0.102 NA
ATOM     33  N   LIG    1       22.054 -27.299  13.265  0.00  0.00    -0.022 NA
ATOM     34  N   LIG    1       22.614 -26.097  13.311  0.00  0.00    -0.043 NA
ENDBRANCH  28  31
ENDBRANCH  27  28
ENDBRANCH   1  27
TORSDOF 9
ENDMDL
MODEL 4
REMARK VINA RESULT:      -8.2      2.892      4.442
REMARK  Name = *****
REMARK                            x       y       z     vdW  Elec       q    Type
REMARK                         _______ _______ _______ _____ _____    ______ ____
ROOT
ATOM      1  C   LIG    1       30.779 -19.267   7.446  0.00  0.00    -0.021 C 
ATOM      2  C   LIG    1       30.007 -18.597   6.318  0.00  0.00    +0.104 C 
ATOM      3  S   LIG    1       28.276 -19.139   6.205  0.00  0.00    -0.131 S 
ATOM      4  C   LIG    1       28.708 -20.903   6.206  0.00  0.00    +0.169 C 
ATOM      5  N   LIG    1       29.388 -21.198   7.460  0.00  0.00    -0.249 N 
ATOM      6  C   LIG    1       28.358 -21.877   8.010  0.00  0.00    +0.244 C 
ATOM      7  O   LIG    1       28.184 -22.248   9.156  0.00  0.00    -0.273 OA
ATOM      8  CA  LIG    1       27.589 -21.886   6.678  0.00  0.00    +0.191 C 
ATOM      9  CA  LIG    1       30.420 -20.461   7.996  0.00  0.00    +0.123 C 
ENDROOT
BRANCH   8  10
ATOM     10  N   LIG    1       26.191 -21.373   6.696  0.00  0.00    -0.299 N 
ATOM     11  H   LIG    1       26.026 -20.385   6.526  0.00  0.00    +0.150 HD
ATOM     12  C   LIG    1       25.152 -22.237   6.426  0.00  0.00    +0.247 C 
ATOM     13  O   LIG    1       25.345 -23.435   6.214  0.00  0.00    -0.273 OA
BRANCH  12  14
ATOM     14  C   LIG    1       23.734 -21.625   6.450  0.00  0.00    +0.230 C 
BRANCH  14  15
ATOM     15  C   LIG    1       23.587 -20.502   5.445  0.00  0.00    -0.010 A 
ATOM     16  C   LIG    1       24.507 -20.354   4.395  0.00  0.00    +0.006 A 
ATOM     17  C   LIG    1       24.359 -19.323   3.463  0.00  0.00    +0.000 A 
ATOM     18  C   LIG    1       23.293 -18.431   3.565  0.00  0.00    +0.000 A 
ATOM     19  C   LIG    1       22.371 -18.567   4.598  0.00  0.00    +0.000 A 
ATOM     20  C   LIG    1       22.516 -19.595   5.528  0.00  0.00    +0.006 A 
ENDBRANCH  14  15
BRANCH  14  21
ATOM     21  O   LIG    1       22.770 -22.646   6.178  0.00  0.00    -0.378 OA
ATOM     22  H   LIG    1       21.923 -22.302   6.518  0.00  0.00    +0.211 HD
ENDBRANCH  14  21
ENDBRANCH  12  14
ENDBRANCH   8  10
BRANCH   9  23
ATOM     23  C   LIG    1       31.194 -21.008   9.181  0.00  0.00    +0.351 C 
ATOM     24  O   LIG    1       32.268 -21.585   9.088  0.00  0.00    -0.244 OA
BRANCH  23  25
ATOM     25  OXT LIG    1       30.627 -20.859  10.389  0.00  0.00    -0.476 OA
ATOM     26  HXT LIG    1       30.458 -19.946  10.698  0.00  0.00    +0.295 HD
ENDBRANCH  23  25
ENDBRANCH   9  23
BRANCH   1  27
ATOM     27  C   LIG    1       31.905 -18.385   7.984  0.00  0.00    +0.111 C 
BRANCH  27  28
ATOM     28  S   LIG    1       31.250 -16.830   8.672  0.00  0.00    -0.080 S 
BRANCH  28  31
ATOM     29  C   LIG    1       33.025 -15.371  11.083  0.00  0.00    +0.177 C 
ATOM     30  N   LIG    1       32.165 -16.507  11.253  0.00  0.00    -0.223 N 
ATOM     31  C   LIG    1       31.400 -17.195  10.355  0.00  0.00    +0.209 A 
ATOM     32  N   LIG    1       30.778 -18.163  10.989  0.00  0.00    -0.102 NA
ATOM     33  N   LIG    1       31.154 -18.051  12.307  0.00  0.00    -0.022 NA
ATOM     34  N   LIG    1       31.998 -17.043  12.478  0.00  0.00    -0.043 NA
ENDBRANCH  28  31
ENDBRANCH  27  28
ENDBRANCH   1  27
TORSDOF 9
ENDMDL
MODEL 5
REMARK VINA RESULT:      -8.0      6.402     10.768
REMARK  Name = *****
REMARK                            x       y       z     vdW  Elec       q    Type
REMARK                         _______ _______ _______ _____ _____    ______ ____
ROOT
ATOM      1  C   LIG    1       25.870 -31.341   7.993  0.00  0.00    -0.021 C 
ATOM      2  C   LIG    1       26.562 -30.242   8.785  0.00  0.00    +0.104 C 
ATOM      3  S   LIG    1       25.873 -28.588   8.481  0.00  0.00    -0.131 S 
ATOM      4  C   LIG    1       25.996 -28.742   6.676  0.00  0.00    +0.169 C 
ATOM      5  N   LIG    1       25.165 -29.865   6.264  0.00  0.00    -0.249 N 
ATOM      6  C   LIG    1       24.189 -29.109   5.716  0.00  0.00    +0.244 C 
ATOM      7  O   LIG    1       23.072 -29.417   5.344  0.00  0.00    -0.273 OA
ATOM      8  CA  LIG    1       25.039 -27.834   5.840  0.00  0.00    +0.191 C 
ATOM      9  CA  LIG    1       25.172 -31.114   6.844  0.00  0.00    +0.123 C 
ENDROOT
BRANCH   8  10
ATOM     10  N   LIG    1       24.421 -26.670   6.535  0.00  0.00    -0.299 N 
ATOM     11  H   LIG    1       24.240 -26.730   7.532  0.00  0.00    +0.150 HD
ATOM     12  C   LIG    1       24.571 -25.408   6.001  0.00  0.00    +0.247 C 
ATOM     13  O   LIG    1       25.166 -25.223   4.938  0.00  0.00    -0.273 OA
BRANCH  12  14
ATOM     14  C   LIG    1       23.914 -24.253   6.786  0.00  0.00    +0.230 C 
BRANCH  14  15
ATOM     15  C   LIG    1       24.752 -22.992   6.743  0.00  0.00    -0.010 A 
ATOM     16  C   LIG    1       25.950 -22.903   7.471  0.00  0.00    +0.006 A 
ATOM     17  C   LIG    1       26.727 -21.742   7.417  0.00  0.00    +0.000 A 
ATOM     18  C   LIG    1       26.321 -20.660   6.638  0.00  0.00    +0.000 A 
ATOM     19  C   LIG    1       25.138 -20.736   5.909  0.00  0.00    +0.000 A 
ATOM     20  C   LIG    1       24.363 -21.892   5.959  0.00  0.00    +0.006 A 
ENDBRANCH  14  15
BRANCH  14  21
ATOM     21  O   LIG    1       22.616 -23.989   6.248  0.00  0.00    -0.378 OA
ATOM     22  H   LIG    1       21.992 -24.145   6.983  0.00  0.00    +0.211 HD
ENDBRANCH  14  21
ENDBRANCH  12  14
ENDBRANCH   8  10
BRANCH   9  23
ATOM     23  C   LIG    1       24.435 -32.256   6.172  0.00  0.00    +0.351 C 
ATOM     24  O   LIG    1       24.966 -33.071   5.431  0.00  0.00    -0.244 OA
BRANCH  23  25
ATOM     25  OXT LIG    1       23.114 -32.335   6.399  0.00  0.00    -0.476 OA
ATOM     26  HXT LIG    1       22.627 -33.072   5.975  0.00  0.00    +0.295 HD
ENDBRANCH  23  25
ENDBRANCH   9  23
BRANCH   1  27
ATOM     27  C   LIG    1       25.923 -32.692   8.704  0.00  0.00    +0.111 C 
BRANCH  27  28
ATOM     28  S   LIG    1       24.443 -32.951   9.734  0.00  0.00    -0.080 S 
BRANCH  28  31
ATOM     29  C   LIG    1       23.456 -30.082  11.110  0.00  0.00    +0.177 C 
ATOM     30  N   LIG    1       24.471 -30.952  11.633  0.00  0.00    -0.223 N 
ATOM     31  C   LIG    1       24.966 -32.136  11.167  0.00  0.00    +0.209 A 
ATOM     32  N   LIG    1       25.887 -32.563  12.000  0.00  0.00    -0.102 NA
ATOM     33  N   LIG    1       25.940 -31.632  13.010  0.00  0.00    -0.022 NA
ATOM     34  N   LIG    1       25.079 -30.646  12.797  0.00  0.00    -0.043 NA
ENDBRANCH  28  31
ENDBRANCH  27  28
ENDBRANCH   1  27
TORSDOF 9
ENDMDL
MODEL 6
REMARK VINA RESULT:      -7.3      9.995     12.441
REMARK  Name = *****
REMARK                            x       y       z     vdW  Elec       q    Type
REMARK                         _______ _______ _______ _____ _____    ______ ____
ROOT
ATOM      1  C   LIG    1       24.607 -32.792   9.302  0.00  0.00    -0.021 C 
ATOM      2  C   LIG    1       23.354 -32.419  10.081  0.00  0.00    +0.104 C 
ATOM      3  S   LIG    1       23.453 -30.785  10.871  0.00  0.00    -0.131 S 
ATOM      4  C   LIG    1       25.050 -31.137  11.661  0.00  0.00    +0.169 C 
ATOM      5  N   LIG    1       26.024 -31.397  10.609  0.00  0.00    -0.249 N 
ATOM      6  C   LIG    1       26.682 -30.226  10.751  0.00  0.00    +0.244 C 
ATOM      7  O   LIG    1       27.515 -29.702  10.035  0.00  0.00    -0.273 OA
ATOM      8  CA  LIG    1       25.918 -29.895  12.043  0.00  0.00    +0.191 C 
ATOM      9  CA  LIG    1       25.831 -32.243   9.541  0.00  0.00    +0.123 C 
ENDROOT
BRANCH   8  10
ATOM     10  N   LIG    1       25.230 -28.575  12.107  0.00  0.00    -0.299 N 
ATOM     11  H   LIG    1       24.569 -28.326  11.378  0.00  0.00    +0.150 HD
ATOM     12  C   LIG    1       25.080 -27.952  13.328  0.00  0.00    +0.247 C 
ATOM     13  O   LIG    1       25.539 -28.437  14.363  0.00  0.00    -0.273 OA
BRANCH  12  14
ATOM     14  C   LIG    1       24.345 -26.594  13.313  0.00  0.00    +0.230 C 
BRANCH  14  15
ATOM     15  C   LIG    1       22.912 -26.723  13.784  0.00  0.00    -0.010 A 
ATOM     16  C   LIG    1       22.542 -26.310  15.075  0.00  0.00    +0.006 A 
ATOM     17  C   LIG    1       21.214 -26.419  15.500  0.00  0.00    +0.000 A 
ATOM     18  C   LIG    1       20.243 -26.935  14.645  0.00  0.00    +0.000 A 
ATOM     19  C   LIG    1       20.594 -27.344  13.363  0.00  0.00    +0.000 A 
ATOM     20  C   LIG    1       21.916 -27.236  12.936  0.00  0.00    +0.006 A 
ENDBRANCH  14  15
BRANCH  14  21
ATOM     21  O   LIG    1       25.046 -25.665  14.144  0.00  0.00    -0.378 OA
ATOM     22  H   LIG    1       24.360 -25.075  14.513  0.00  0.00    +0.211 HD
ENDBRANCH  14  21
ENDBRANCH  12  14
ENDBRANCH   8  10
BRANCH   9  23
ATOM     23  C   LIG    1       27.006 -32.605   8.651  0.00  0.00    +0.351 C 
ATOM     24  O   LIG    1       27.780 -33.523   8.881  0.00  0.00    -0.244 OA
BRANCH  23  25
ATOM     25  OXT LIG    1       27.200 -31.834   7.569  0.00  0.00    -0.476 OA
ATOM     26  HXT LIG    1       27.863 -32.135   6.914  0.00  0.00    +0.295 HD
ENDBRANCH  23  25
ENDBRANCH   9  23
BRANCH   1  27
ATOM     27  C   LIG    1       24.308 -33.732   8.135  0.00  0.00    +0.111 C 
BRANCH  27  28
ATOM     28  S   LIG    1       23.185 -32.951   6.932  0.00  0.00    -0.080 S 
BRANCH  28  31
ATOM     29  C   LIG    1       24.060 -29.741   7.086  0.00  0.00    +0.177 C 
ATOM     30  N   LIG    1       24.620 -30.715   6.194  0.00  0.00    -0.223 N 
ATOM     31  C   LIG    1       24.346 -32.043   6.029  0.00  0.00    +0.209 A 
ATOM     32  N   LIG    1       25.129 -32.519   5.087  0.00  0.00    -0.102 NA
ATOM     33  N   LIG    1       25.915 -31.465   4.684  0.00  0.00    -0.022 NA
ATOM     34  N   LIG    1       25.614 -30.361   5.354  0.00  0.00    -0.043 NA
ENDBRANCH  28  31
ENDBRANCH  27  28
ENDBRANCH   1  27
TORSDOF 9
ENDMDL
MODEL 7
REMARK VINA RESULT:      -7.3      2.751      3.999
REMARK  Name = *****
REMARK                            x       y       z     vdW  Elec       q    Type
REMARK                         _______ _______ _______ _____ _____    ______ ____
ROOT
ATOM      1  C   LIG    1       26.496 -20.880   7.134  0.00  0.00    -0.021 C 
ATOM      2  C   LIG    1       26.837 -21.755   8.332  0.00  0.00    +0.104 C 
ATOM      3  S   LIG    1       26.550 -23.525   8.038  0.00  0.00    -0.131 S 
ATOM      4  C   LIG    1       24.853 -23.269   7.444  0.00  0.00    +0.169 C 
ATOM      5  N   LIG    1       24.916 -22.428   6.256  0.00  0.00    -0.249 N 
ATOM      6  C   LIG    1       24.629 -23.417   5.382  0.00  0.00    +0.244 C 
ATOM      7  O   LIG    1       24.709 -23.440   4.168  0.00  0.00    -0.273 OA
ATOM      8  CA  LIG    1       24.270 -24.386   6.520  0.00  0.00    +0.191 C 
ATOM      9  CA  LIG    1       25.634 -21.258   6.149  0.00  0.00    +0.123 C 
ENDROOT
BRANCH   8  10
ATOM     10  N   LIG    1       24.957 -25.708   6.530  0.00  0.00    -0.299 N 
ATOM     11  H   LIG    1       25.529 -25.961   7.331  0.00  0.00    +0.150 HD
ATOM     12  C   LIG    1       24.443 -26.741   5.776  0.00  0.00    +0.247 C 
ATOM     13  O   LIG    1       23.455 -26.587   5.057  0.00  0.00    -0.273 OA
BRANCH  12  14
ATOM     14  C   LIG    1       25.204 -28.082   5.850  0.00  0.00    +0.230 C 
BRANCH  14  15
ATOM     15  C   LIG    1       25.207 -28.653   7.253  0.00  0.00    -0.010 A 
ATOM     16  C   LIG    1       26.175 -28.253   8.187  0.00  0.00    +0.006 A 
ATOM     17  C   LIG    1       26.165 -28.772   9.485  0.00  0.00    +0.000 A 
ATOM     18  C   LIG    1       25.191 -29.693   9.866  0.00  0.00    +0.000 A 
ATOM     19  C   LIG    1       24.223 -30.096   8.952  0.00  0.00    +0.000 A 
ATOM     20  C   LIG    1       24.229 -29.579   7.658  0.00  0.00    +0.006 A 
ENDBRANCH  14  15
BRANCH  14  21
ATOM     21  O   LIG    1       24.608 -29.019   4.949  0.00  0.00    -0.378 OA
ATOM     22  H   LIG    1       24.050 -28.486   4.350  0.00  0.00    +0.211 HD
ENDBRANCH  14  21
ENDBRANCH  12  14
ENDBRANCH   8  10
BRANCH   9  23
ATOM     23  C   LIG    1       25.426 -20.360   4.944  0.00  0.00    +0.351 C 
ATOM     24  O   LIG    1       24.417 -19.697   4.752  0.00  0.00    -0.244 OA
BRANCH  23  25
ATOM     25  OXT LIG    1       26.414 -20.335   4.035  0.00  0.00    -0.476 OA
ATOM     26  HXT LIG    1       26.314 -19.723   3.277  0.00  0.00    +0.295 HD
ENDBRANCH  23  25
ENDBRANCH   9  23
BRANCH   1  27
ATOM     27  C   LIG    1       27.335 -19.604   7.088  0.00  0.00    +0.111 C 
BRANCH  27  28
ATOM     28  S   LIG    1       28.984 -19.926   6.385  0.00  0.00    -0.080 S 
BRANCH  28  31
ATOM     29  C   LIG    1       30.329 -17.754   8.522  0.00  0.00    +0.177 C 
ATOM     30  N   LIG    1       30.362 -19.183   8.655  0.00  0.00    -0.223 N 
ATOM     31  C   LIG    1       29.861 -20.170   7.854  0.00  0.00    +0.209 A 
ATOM     32  N   LIG    1       30.137 -21.332   8.400  0.00  0.00    -0.102 NA
ATOM     33  N   LIG    1       30.800 -21.050   9.571  0.00  0.00    -0.022 NA
ATOM     34  N   LIG    1       30.940 -19.741   9.737  0.00  0.00    -0.043 NA
ENDBRANCH  28  31
ENDBRANCH  27  28
ENDBRANCH   1  27
TORSDOF 9
ENDMDL
MODEL 8
REMARK VINA RESULT:      -7.2      2.559      3.795
REMARK  Name = *****
REMARK                            x       y       z     vdW  Elec       q    Type
REMARK                         _______ _______ _______ _____ _____    ______ ____
ROOT
ATOM      1  C   LIG    1       26.996 -20.505   6.644  0.00  0.00    -0.021 C 
ATOM      2  C   LIG    1       27.590 -21.320   7.784  0.00  0.00    +0.104 C 
ATOM      3  S   LIG    1       27.232 -23.098   7.664  0.00  0.00    -0.131 S 
ATOM      4  C   LIG    1       25.447 -22.841   7.449  0.00  0.00    +0.169 C 
ATOM      5  N   LIG    1       25.249 -22.067   6.231  0.00  0.00    -0.249 N 
ATOM      6  C   LIG    1       24.767 -23.096   5.501  0.00  0.00    +0.244 C 
ATOM      7  O   LIG    1       24.573 -23.187   4.303  0.00  0.00    -0.273 OA
ATOM      8  CA  LIG    1       24.665 -23.995   6.744  0.00  0.00    +0.191 C 
ATOM      9  CA  LIG    1       25.933 -20.919   5.899  0.00  0.00    +0.123 C 
ENDROOT
BRANCH   8  10
ATOM     10  N   LIG    1       25.327 -25.328   6.677  0.00  0.00    -0.299 N 
ATOM     11  H   LIG    1       26.035 -25.562   7.366  0.00  0.00    +0.150 HD
ATOM     12  C   LIG    1       24.670 -26.378   6.071  0.00  0.00    +0.247 C 
ATOM     13  O   LIG    1       23.567 -26.232   5.544  0.00  0.00    -0.273 OA
BRANCH  12  14
ATOM     14  C   LIG    1       25.417 -27.729   6.054  0.00  0.00    +0.230 C 
BRANCH  14  15
ATOM     15  C   LIG    1       25.315 -28.447   7.383  0.00  0.00    -0.010 A 
ATOM     16  C   LIG    1       24.288 -29.375   7.619  0.00  0.00    +0.006 A 
ATOM     17  C   LIG    1       24.205 -30.046   8.843  0.00  0.00    +0.000 A 
ATOM     18  C   LIG    1       25.145 -29.802   9.842  0.00  0.00    +0.000 A 
ATOM     19  C   LIG    1       26.171 -28.888   9.621  0.00  0.00    +0.000 A 
ATOM     20  C   LIG    1       26.256 -28.220   8.402  0.00  0.00    +0.006 A 
ENDBRANCH  14  15
BRANCH  14  21
ATOM     21  O   LIG    1       24.884 -28.555   5.016  0.00  0.00    -0.378 OA
ATOM     22  H   LIG    1       24.904 -29.464   5.369  0.00  0.00    +0.211 HD
ENDBRANCH  14  21
ENDBRANCH  12  14
ENDBRANCH   8  10
BRANCH   9  23
ATOM     23  C   LIG    1       25.467 -20.084   4.721  0.00  0.00    +0.351 C 
ATOM     24  O   LIG    1       24.382 -19.524   4.668  0.00  0.00    -0.244 OA
BRANCH  23  25
ATOM     25  OXT LIG    1       26.306 -19.998   3.677  0.00  0.00    -0.476 OA
ATOM     26  HXT LIG    1       26.762 -19.143   3.534  0.00  0.00    +0.295 HD
ENDBRANCH  23  25
ENDBRANCH   9  23
BRANCH   1  27
ATOM     27  C   LIG    1       27.812 -19.250   6.339  0.00  0.00    +0.111 C 
BRANCH  27  28
ATOM     28  S   LIG    1       29.595 -19.623   6.283  0.00  0.00    -0.080 S 
BRANCH  28  31
ATOM     29  C   LIG    1       31.124 -21.185   8.797  0.00  0.00    +0.177 C 
ATOM     30  N   LIG    1       30.673 -19.822   8.813  0.00  0.00    -0.223 N 
ATOM     31  C   LIG    1       30.035 -19.077   7.864  0.00  0.00    +0.209 A 
ATOM     32  N   LIG    1       29.834 -17.870   8.342  0.00  0.00    -0.102 NA
ATOM     33  N   LIG    1       30.381 -17.871   9.604  0.00  0.00    -0.022 NA
ATOM     34  N   LIG    1       30.898 -19.056   9.899  0.00  0.00    -0.043 NA
ENDBRANCH  28  31
ENDBRANCH  27  28
ENDBRANCH   1  27
TORSDOF 9
ENDMDL
MODEL 9
REMARK VINA RESULT:      -6.9      5.909     10.131
REMARK  Name = *****
REMARK                            x       y       z     vdW  Elec       q    Type
REMARK                         _______ _______ _______ _____ _____    ______ ____
ROOT
ATOM      1  C   LIG    1       25.390 -29.634   8.102  0.00  0.00    -0.021 C 
ATOM      2  C   LIG    1       26.364 -28.843   8.964  0.00  0.00    +0.104 C 
ATOM      3  S   LIG    1       26.323 -27.055   8.646  0.00  0.00    -0.131 S 
ATOM      4  C   LIG    1       26.517 -27.253   6.851  0.00  0.00    +0.169 C 
ATOM      5  N   LIG    1       25.377 -28.014   6.358  0.00  0.00    -0.249 N 
ATOM      6  C   LIG    1       24.772 -26.967   5.758  0.00  0.00    +0.244 C 
ATOM      7  O   LIG    1       23.648 -26.864   5.302  0.00  0.00    -0.273 OA
ATOM      8  CA  LIG    1       26.004 -26.071   5.968  0.00  0.00    +0.191 C 
ATOM      9  CA  LIG    1       24.903 -29.182   6.912  0.00  0.00    +0.123 C 
ENDROOT
BRANCH   8  10
ATOM     10  N   LIG    1       25.785 -24.760   6.641  0.00  0.00    -0.299 N 
ATOM     11  H   LIG    1       26.327 -24.535   7.470  0.00  0.00    +0.150 HD
ATOM     12  C   LIG    1       25.288 -23.702   5.911  0.00  0.00    +0.247 C 
ATOM     13  O   LIG    1       24.976 -23.824   4.725  0.00  0.00    -0.273 OA
BRANCH  12  14
ATOM     14  C   LIG    1       25.102 -22.374   6.676  0.00  0.00    +0.230 C 
BRANCH  14  15
ATOM     15  C   LIG    1       24.496 -21.298   5.801  0.00  0.00    -0.010 A 
ATOM     16  C   LIG    1       25.281 -20.612   4.860  0.00  0.00    +0.006 A 
ATOM     17  C   LIG    1       24.714 -19.628   4.045  0.00  0.00    +0.000 A 
ATOM     18  C   LIG    1       23.359 -19.320   4.155  0.00  0.00    +0.000 A 
ATOM     19  C   LIG    1       22.568 -19.993   5.080  0.00  0.00    +0.000 A 
ATOM     20  C   LIG    1       23.131 -20.975   5.893  0.00  0.00    +0.006 A 
ENDBRANCH  14  15
BRANCH  14  21
ATOM     21  O   LIG    1       24.270 -22.594   7.818  0.00  0.00    -0.378 OA
ATOM     22  H   LIG    1       23.355 -22.473   7.501  0.00  0.00    +0.211 HD
ENDBRANCH  14  21
ENDBRANCH  12  14
ENDBRANCH   8  10
BRANCH   9  23
ATOM     23  C   LIG    1       23.862 -29.996   6.166  0.00  0.00    +0.351 C 
ATOM     24  O   LIG    1       23.717 -31.203   6.297  0.00  0.00    -0.244 OA
BRANCH  23  25
ATOM     25  OXT LIG    1       23.089 -29.329   5.295  0.00  0.00    -0.476 OA
ATOM     26  HXT LIG    1       23.537 -28.867   4.556  0.00  0.00    +0.295 HD
ENDBRANCH  23  25
ENDBRANCH   9  23
BRANCH   1  27
ATOM     27  C   LIG    1       24.912 -30.913   8.788  0.00  0.00    +0.111 C 
BRANCH  27  28
ATOM     28  S   LIG    1       23.917 -30.534  10.266  0.00  0.00    -0.080 S 
BRANCH  28  31
ATOM     29  C   LIG    1       26.016 -29.478  12.627  0.00  0.00    +0.177 C 
ATOM     30  N   LIG    1       25.669 -30.848  12.372  0.00  0.00    -0.223 N 
ATOM     31  C   LIG    1       24.839 -31.404  11.442  0.00  0.00    +0.209 A 
ATOM     32  N   LIG    1       24.839 -32.708  11.607  0.00  0.00    -0.102 NA
ATOM     33  N   LIG    1       25.669 -32.951  12.675  0.00  0.00    -0.022 NA
ATOM     34  N   LIG    1       26.179 -31.823  13.150  0.00  0.00    -0.043 NA
ENDBRANCH  28  31
ENDBRANCH  27  28
ENDBRANCH   1  27
TORSDOF 9
ENDMDL
