MODEL 1
REMARK VINA RESULT:      -0.2      0.000      0.000
REMARK  Name = *****
REMARK                            x       y       z     vdW  Elec       q    Type
REMARK                         _______ _______ _______ _____ _____    ______ ____
ROOT
ATOM      1  C   LIG    1       27.284 -20.307   5.462  0.00  0.00    +0.173 A 
ATOM      2  C   LIG    1       26.509 -19.482   4.675  0.00  0.00    +0.167 A 
ATOM      3  O   LIG    1       26.920 -18.349   4.030  0.00  0.00    -0.480 OA
ATOM      4  C   LIG    1       25.737 -17.809   3.359  0.00  0.00    +0.229 C 
ATOM      5  C   LIG    1       24.500 -18.633   3.779  0.00  0.00    +0.049 C 
ATOM      6  C   LIG    1       23.525 -17.970   4.759  0.00  0.00    +0.043 C 
ATOM      7  C   LIG    1       22.377 -19.001   4.982  0.00  0.00    +0.069 C 
ATOM      8  N   LIG    1       21.599 -19.311   3.762  0.00  0.00    -0.301 NA
ATOM      9  C   LIG    1       20.298 -18.643   3.748  0.00  0.00    +0.105 C 
ATOM     10  C   LIG    1       22.309 -19.045   2.507  0.00  0.00    +0.085 C 
ATOM     11  C   LIG    1       22.959 -20.369   5.569  0.00  0.00    +0.055 C 
ATOM     12  C   LIG    1       24.465 -20.526   5.468  0.00  0.00    -0.038 A 
ATOM     13  C   LIG    1       25.235 -21.385   6.253  0.00  0.00    +0.008 A 
ATOM     14  C   LIG    1       23.215 -16.565   4.325  0.00  0.00    -0.021 C 
ATOM     15  C   LIG    1       24.201 -15.795   3.835  0.00  0.00    +0.017 C 
ATOM     16  C   LIG    1       23.809 -19.325   2.574  0.00  0.00    +0.031 C 
ATOM     17  C   LIG    1       25.619 -16.288   3.641  0.00  0.00    +0.240 C 
ATOM     18  C   LIG    1       25.151 -19.662   4.627  0.00  0.00    +0.012 A 
ATOM     19  C   LIG    1       26.646 -21.283   6.241  0.00  0.00    +0.050 A 
ENDROOT
BRANCH   1  20
ATOM     20  O   LIG    1       28.643 -20.066   5.678  0.00  0.00    -0.422 OA
BRANCH  20  22
ATOM     21  C   LIG    1       29.475 -18.359   7.062  0.00  0.00    +0.136 C 
ATOM     22  C   LIG    1       29.020 -18.725   5.680  0.00  0.00    +0.309 C 
ATOM     23  O   LIG    1       29.042 -17.979   4.709  0.00  0.00    -0.251 OA
ENDBRANCH  20  22
ENDBRANCH   1  20
BRANCH  17  24
ATOM     24  O   LIG    1       26.136 -15.558   2.503  0.00  0.00    -0.454 OA
BRANCH  24  25
ATOM     25  C   LIG    1       26.464 -14.256   2.728  0.00  0.00    +0.305 C 
ATOM     26  O   LIG    1       25.989 -13.288   2.162  0.00  0.00    -0.251 OA
ATOM     27  C   LIG    1       27.564 -14.178   3.746  0.00  0.00    +0.136 C 
ENDBRANCH  24  25
ENDBRANCH  17  24
TORSDOF 4
ENDMDL
MODEL 2
REMARK VINA RESULT:       0.2      3.550      6.265
REMARK  Name = *****
REMARK                            x       y       z     vdW  Elec       q    Type
REMARK                         _______ _______ _______ _____ _____    ______ ____
ROOT
ATOM      1  C   LIG    1       23.419 -17.200   4.070  0.00  0.00    +0.173 A 
ATOM      2  C   LIG    1       23.877 -15.907   4.217  0.00  0.00    +0.167 A 
ATOM      3  O   LIG    1       23.113 -14.782   4.352  0.00  0.00    -0.480 OA
ATOM      4  C   LIG    1       24.048 -13.661   4.441  0.00  0.00    +0.229 C 
ATOM      5  C   LIG    1       25.481 -14.181   4.189  0.00  0.00    +0.049 C 
ATOM      6  C   LIG    1       26.114 -13.839   2.835  0.00  0.00    +0.043 C 
ATOM      7  C   LIG    1       27.545 -14.456   2.865  0.00  0.00    +0.069 C 
ATOM      8  N   LIG    1       28.431 -13.875   3.899  0.00  0.00    -0.301 NA
ATOM      9  C   LIG    1       29.405 -12.940   3.336  0.00  0.00    +0.105 C 
ATOM     10  C   LIG    1       27.722 -13.243   5.017  0.00  0.00    +0.085 C 
ATOM     11  C   LIG    1       27.471 -16.035   3.095  0.00  0.00    +0.055 C 
ATOM     12  C   LIG    1       26.126 -16.555   3.570  0.00  0.00    -0.038 A 
ATOM     13  C   LIG    1       25.685 -17.872   3.439  0.00  0.00    +0.008 A 
ATOM     14  C   LIG    1       25.916 -12.384   2.511  0.00  0.00    -0.021 C 
ATOM     15  C   LIG    1       24.740 -11.801   2.796  0.00  0.00    +0.017 C 
ATOM     16  C   LIG    1       26.421 -13.945   5.400  0.00  0.00    +0.031 C 
ATOM     17  C   LIG    1       23.601 -12.524   3.485  0.00  0.00    +0.240 C 
ATOM     18  C   LIG    1       25.209 -15.633   4.054  0.00  0.00    +0.012 A 
ATOM     19  C   LIG    1       24.333 -18.197   3.700  0.00  0.00    +0.050 A 
ENDROOT
BRANCH   1  20
ATOM     20  O   LIG    1       22.056 -17.509   4.059  0.00  0.00    -0.422 OA
BRANCH  20  22
ATOM     21  C   LIG    1       20.564 -19.272   3.635  0.00  0.00    +0.136 C 
ATOM     22  C   LIG    1       21.733 -18.806   4.451  0.00  0.00    +0.309 C 
ATOM     23  O   LIG    1       22.336 -19.483   5.273  0.00  0.00    -0.251 OA
ENDBRANCH  20  22
ENDBRANCH   1  20
BRANCH  17  24
ATOM     24  O   LIG    1       22.903 -11.514   4.252  0.00  0.00    -0.454 OA
BRANCH  24  25
ATOM     25  C   LIG    1       23.213 -11.450   5.576  0.00  0.00    +0.305 C 
ATOM     26  O   LIG    1       24.335 -11.447   6.050  0.00  0.00    -0.251 OA
ATOM     27  C   LIG    1       21.955 -11.450   6.393  0.00  0.00    +0.136 C 
ENDBRANCH  24  25
ENDBRANCH  17  24
TORSDOF 4
ENDMDL
MODEL 3
REMARK VINA RESULT:       0.2      2.420      4.401
REMARK  Name = *****
REMARK                            x       y       z     vdW  Elec       q    Type
REMARK                         _______ _______ _______ _____ _____    ______ ____
ROOT
ATOM      1  C   LIG    1       25.562 -18.424   3.667  0.00  0.00    +0.173 A 
ATOM      2  C   LIG    1       25.980 -17.111   3.603  0.00  0.00    +0.167 A 
ATOM      3  O   LIG    1       27.261 -16.656   3.748  0.00  0.00    -0.480 OA
ATOM      4  C   LIG    1       27.192 -15.199   3.634  0.00  0.00    +0.229 C 
ATOM      5  C   LIG    1       25.709 -14.771   3.560  0.00  0.00    +0.049 C 
ATOM      6  C   LIG    1       25.115 -14.114   4.812  0.00  0.00    +0.043 C 
ATOM      7  C   LIG    1       23.638 -13.766   4.451  0.00  0.00    +0.069 C 
ATOM      8  N   LIG    1       23.502 -12.779   3.356  0.00  0.00    -0.301 NA
ATOM      9  C   LIG    1       23.153 -11.447   3.849  0.00  0.00    +0.105 C 
ATOM     10  C   LIG    1       24.667 -12.694   2.470  0.00  0.00    +0.085 C 
ATOM     11  C   LIG    1       22.835 -15.086   4.042  0.00  0.00    +0.055 C 
ATOM     12  C   LIG    1       23.696 -16.302   3.753  0.00  0.00    -0.038 A 
ATOM     13  C   LIG    1       23.254 -17.625   3.796  0.00  0.00    +0.008 A 
ATOM     14  C   LIG    1       26.040 -13.056   5.344  0.00  0.00    -0.021 C 
ATOM     15  C   LIG    1       27.364 -13.283   5.349  0.00  0.00    +0.017 C 
ATOM     16  C   LIG    1       25.369 -14.030   2.240  0.00  0.00    +0.031 C 
ATOM     17  C   LIG    1       27.993 -14.541   4.789  0.00  0.00    +0.240 C 
ATOM     18  C   LIG    1       25.055 -16.102   3.559  0.00  0.00    +0.012 A 
ATOM     19  C   LIG    1       24.186 -18.686   3.740  0.00  0.00    +0.050 A 
ENDROOT
BRANCH   1  20
ATOM     20  O   LIG    1       26.454 -19.478   3.882  0.00  0.00    -0.422 OA
BRANCH  20  22
ATOM     21  C   LIG    1       27.846 -19.824   5.741  0.00  0.00    +0.136 C 
ATOM     22  C   LIG    1       26.468 -19.996   5.174  0.00  0.00    +0.309 C 
ATOM     23  O   LIG    1       25.508 -20.457   5.779  0.00  0.00    -0.251 OA
ENDBRANCH  20  22
ENDBRANCH   1  20
BRANCH  17  24
ATOM     24  O   LIG    1       29.292 -14.143   4.291  0.00  0.00    -0.454 OA
BRANCH  24  25
ATOM     25  C   LIG    1       29.326 -12.986   3.573  0.00  0.00    +0.305 C 
ATOM     26  O   LIG    1       29.298 -12.895   2.359  0.00  0.00    -0.251 OA
ATOM     27  C   LIG    1       29.474 -11.817   4.502  0.00  0.00    +0.136 C 
ENDBRANCH  24  25
ENDBRANCH  17  24
TORSDOF 4
ENDMDL
