MODEL 1
REMARK VINA RESULT:      -2.1      0.000      0.000
REMARK  Name = *****
REMARK                            x       y       z     vdW  Elec       q    Type
REMARK                         _______ _______ _______ _____ _____    ______ ____
ROOT
ATOM      1  C   LIG    1       27.215 -13.643   3.430  0.00  0.00    +0.164 A 
ATOM      2  C   LIG    1       26.050 -14.017   2.735  0.00  0.00    +0.162 A 
ATOM      3  C   LIG    1       25.653 -15.354   2.766  0.00  0.00    +0.062 A 
ATOM      4  C   LIG    1       26.400 -16.315   3.474  0.00  0.00    +0.044 A 
ATOM      5  C   LIG    1       27.548 -15.953   4.167  0.00  0.00    +0.082 A 
ATOM      6  N   LIG    1       28.289 -16.838   4.843  0.00  0.00    -0.214 NA
ATOM      7  C   LIG    1       27.891 -18.119   4.860  0.00  0.00    +0.220 A 
ATOM      8  N   LIG    1       26.794 -18.549   4.218  0.00  0.00    -0.199 NA
ATOM      9  C   LIG    1       26.084 -17.665   3.520  0.00  0.00    +0.129 A 
ATOM     10  C   LIG    1       27.947 -14.626   4.116  0.00  0.00    +0.078 A 
ENDROOT
BRANCH   9  11
ATOM     11  N   LIG    1       24.998 -18.198   2.812  0.00  0.00    -0.343 N 
ATOM     12  H   LIG    1       24.300 -17.482   2.637  0.00  0.00    +0.144 HD
ATOM     13  H   LIG    1       25.376 -18.556   1.937  0.00  0.00    +0.144 HD
ENDBRANCH   9  11
BRANCH   1  15
ATOM     14  C   LIG    1       28.838 -12.033   4.078  0.00  0.00    +0.277 C 
ATOM     15  O   LIG    1       27.605 -12.324   3.409  0.00  0.00    -0.491 OA
ENDBRANCH   1  15
BRANCH   2  16
ATOM     16  O   LIG    1       25.356 -13.071   2.019  0.00  0.00    -0.491 OA
ATOM     17  C   LIG    1       24.353 -12.362   2.753  0.00  0.00    +0.277 C 
ENDBRANCH   2  16
BRANCH   7  18
ATOM     18  N   LIG    1       28.681 -19.057   5.521  0.00  0.00    -0.303 N 
ATOM     19  C   LIG    1       29.475 -18.502   6.608  0.00  0.00    +0.132 C 
BRANCH  18  20
ATOM     20  C   LIG    1       28.059 -20.375   5.726  0.00  0.00    +0.109 C 
BRANCH  20  21
ATOM     21  C   LIG    1       27.298 -20.477   7.058  0.00  0.00    +0.037 C 
BRANCH  21  22
ATOM     22  C   LIG    1       26.138 -21.471   7.010  0.00  0.00    +0.105 C 
BRANCH  22  23
ATOM     23  N   LIG    1       24.875 -20.775   6.821  0.00  0.00    -0.313 N 
ATOM     24  H   LIG    1       24.440 -20.289   7.603  0.00  0.00    +0.149 HD
ATOM     25  C   LIG    1       24.189 -20.746   5.635  0.00  0.00    +0.242 C 
ATOM     26  O   LIG    1       24.650 -21.196   4.574  0.00  0.00    -0.273 OA
BRANCH  25  27
ATOM     27  C   LIG    1       22.788 -20.115   5.704  0.00  0.00    +0.204 C 
ATOM     28  O   LIG    1       22.821 -18.678   5.612  0.00  0.00    -0.367 OA
ATOM     29  C   LIG    1       21.823 -18.281   4.666  0.00  0.00    +0.161 C 
ATOM     30  C   LIG    1       21.720 -19.431   3.694  0.00  0.00    +0.031 C 
ATOM     31  C   LIG    1       21.877 -20.626   4.603  0.00  0.00    +0.043 C 
ENDBRANCH  25  27
ENDBRANCH  22  23
ENDBRANCH  21  22
ENDBRANCH  20  21
ENDBRANCH  18  20
ENDBRANCH   7  18
TORSDOF 9
ENDMDL
MODEL 2
REMARK VINA RESULT:      -1.9      2.413      7.167
REMARK  Name = *****
REMARK                            x       y       z     vdW  Elec       q    Type
REMARK                         _______ _______ _______ _____ _____    ______ ____
ROOT
ATOM      1  C   LIG    1       27.327 -19.920   5.268  0.00  0.00    +0.164 A 
ATOM      2  C   LIG    1       27.022 -20.865   6.264  0.00  0.00    +0.162 A 
ATOM      3  C   LIG    1       25.682 -21.149   6.528  0.00  0.00    +0.062 A 
ATOM      4  C   LIG    1       24.651 -20.506   5.816  0.00  0.00    +0.044 A 
ATOM      5  C   LIG    1       24.944 -19.576   4.827  0.00  0.00    +0.082 A 
ATOM      6  N   LIG    1       23.994 -18.937   4.135  0.00  0.00    -0.214 NA
ATOM      7  C   LIG    1       22.711 -19.224   4.404  0.00  0.00    +0.220 A 
ATOM      8  N   LIG    1       22.345 -20.111   5.342  0.00  0.00    -0.199 NA
ATOM      9  C   LIG    1       23.299 -20.715   6.048  0.00  0.00    +0.129 A 
ATOM     10  C   LIG    1       26.278 -19.284   4.584  0.00  0.00    +0.078 A 
ENDROOT
BRANCH   9  11
ATOM     11  N   LIG    1       22.843 -21.568   7.062  0.00  0.00    -0.343 N 
ATOM     12  H   LIG    1       23.492 -21.574   7.842  0.00  0.00    +0.144 HD
ATOM     13  H   LIG    1       21.936 -21.208   7.350  0.00  0.00    +0.144 HD
ENDBRANCH   9  11
BRANCH   1  15
ATOM     14  C   LIG    1       28.991 -18.251   4.961  0.00  0.00    +0.277 C 
ATOM     15  O   LIG    1       28.648 -19.642   5.000  0.00  0.00    -0.491 OA
ENDBRANCH   1  15
BRANCH   2  16
ATOM     16  O   LIG    1       28.042 -21.453   6.974  0.00  0.00    -0.491 OA
ATOM     17  C   LIG    1       29.252 -20.694   7.047  0.00  0.00    +0.277 C 
ENDBRANCH   2  16
BRANCH   7  18
ATOM     18  N   LIG    1       21.713 -18.531   3.723  0.00  0.00    -0.303 N 
ATOM     19  C   LIG    1       20.498 -19.304   3.505  0.00  0.00    +0.132 C 
BRANCH  18  20
ATOM     20  C   LIG    1       21.571 -17.112   4.084  0.00  0.00    +0.109 C 
BRANCH  20  21
ATOM     21  C   LIG    1       22.820 -16.544   4.778  0.00  0.00    +0.037 C 
BRANCH  21  22
ATOM     22  C   LIG    1       22.866 -15.016   4.769  0.00  0.00    +0.105 C 
BRANCH  22  23
ATOM     23  N   LIG    1       24.109 -14.545   4.180  0.00  0.00    -0.313 N 
ATOM     24  H   LIG    1       24.751 -15.207   3.747  0.00  0.00    +0.149 HD
ATOM     25  C   LIG    1       24.510 -13.234   4.187  0.00  0.00    +0.242 C 
ATOM     26  O   LIG    1       23.784 -12.306   4.575  0.00  0.00    -0.273 OA
BRANCH  25  27
ATOM     27  C   LIG    1       25.939 -12.983   3.678  0.00  0.00    +0.204 C 
ATOM     28  O   LIG    1       26.935 -13.183   4.698  0.00  0.00    -0.367 OA
ATOM     29  C   LIG    1       27.981 -13.979   4.132  0.00  0.00    +0.161 C 
ATOM     30  C   LIG    1       27.307 -14.834   3.088  0.00  0.00    +0.031 C 
ATOM     31  C   LIG    1       26.294 -13.879   2.505  0.00  0.00    +0.043 C 
ENDBRANCH  25  27
ENDBRANCH  22  23
ENDBRANCH  21  22
ENDBRANCH  20  21
ENDBRANCH  18  20
ENDBRANCH   7  18
TORSDOF 9
ENDMDL
MODEL 3
REMARK VINA RESULT:      -0.8      2.204      4.353
REMARK  Name = *****
REMARK                            x       y       z     vdW  Elec       q    Type
REMARK                         _______ _______ _______ _____ _____    ______ ____
ROOT
ATOM      1  C   LIG    1       25.873 -14.708   3.399  0.00  0.00    +0.164 A 
ATOM      2  C   LIG    1       24.725 -14.017   3.828  0.00  0.00    +0.162 A 
ATOM      3  C   LIG    1       23.614 -14.755   4.237  0.00  0.00    +0.062 A 
ATOM      4  C   LIG    1       23.634 -16.164   4.220  0.00  0.00    +0.044 A 
ATOM      5  C   LIG    1       24.766 -16.853   3.803  0.00  0.00    +0.082 A 
ATOM      6  N   LIG    1       24.821 -18.189   3.764  0.00  0.00    -0.214 NA
ATOM      7  C   LIG    1       23.742 -18.881   4.160  0.00  0.00    +0.220 A 
ATOM      8  N   LIG    1       22.611 -18.291   4.578  0.00  0.00    -0.199 NA
ATOM      9  C   LIG    1       22.557 -16.960   4.580  0.00  0.00    +0.129 A 
ATOM     10  C   LIG    1       25.859 -16.112   3.381  0.00  0.00    +0.078 A 
ENDROOT
BRANCH   9  11
ATOM     11  N   LIG    1       21.322 -16.414   4.953  0.00  0.00    -0.343 N 
ATOM     12  H   LIG    1       20.750 -16.231   4.134  0.00  0.00    +0.144 HD
ATOM     13  H   LIG    1       20.877 -17.101   5.558  0.00  0.00    +0.144 HD
ENDBRANCH   9  11
BRANCH   1  15
ATOM     14  C   LIG    1       27.997 -13.821   3.993  0.00  0.00    +0.277 C 
ATOM     15  O   LIG    1       26.974 -13.983   3.003  0.00  0.00    -0.491 OA
ENDBRANCH   1  15
BRANCH   2  16
ATOM     16  O   LIG    1       24.713 -12.643   3.801  0.00  0.00    -0.491 OA
ATOM     17  C   LIG    1       24.126 -12.060   2.634  0.00  0.00    +0.277 C 
ENDBRANCH   2  16
BRANCH   7  18
ATOM     18  N   LIG    1       23.771 -20.271   4.079  0.00  0.00    -0.303 N 
ATOM     19  C   LIG    1       24.842 -20.794   3.243  0.00  0.00    +0.132 C 
BRANCH  18  20
ATOM     20  C   LIG    1       23.463 -20.983   5.329  0.00  0.00    +0.109 C 
BRANCH  20  21
ATOM     21  C   LIG    1       24.542 -20.793   6.408  0.00  0.00    +0.037 C 
BRANCH  21  22
ATOM     22  C   LIG    1       25.861 -21.485   6.064  0.00  0.00    +0.105 C 
BRANCH  22  23
ATOM     23  N   LIG    1       26.911 -20.505   5.844  0.00  0.00    -0.313 N 
ATOM     24  H   LIG    1       26.715 -19.658   5.312  0.00  0.00    +0.149 HD
ATOM     25  C   LIG    1       28.199 -20.651   6.290  0.00  0.00    +0.242 C 
ATOM     26  O   LIG    1       28.555 -21.570   7.044  0.00  0.00    -0.273 OA
BRANCH  25  27
ATOM     27  C   LIG    1       29.191 -19.589   5.787  0.00  0.00    +0.204 C 
ATOM     28  O   LIG    1       28.732 -18.917   4.600  0.00  0.00    -0.367 OA
ATOM     29  C   LIG    1       28.924 -17.512   4.795  0.00  0.00    +0.161 C 
ATOM     30  C   LIG    1       28.796 -17.299   6.284  0.00  0.00    +0.031 C 
ATOM     31  C   LIG    1       29.474 -18.529   6.837  0.00  0.00    +0.043 C 
ENDBRANCH  25  27
ENDBRANCH  22  23
ENDBRANCH  21  22
ENDBRANCH  20  21
ENDBRANCH  18  20
ENDBRANCH   7  18
TORSDOF 9
ENDMDL
MODEL 4
REMARK VINA RESULT:      -0.1      2.125      4.575
REMARK  Name = *****
REMARK                            x       y       z     vdW  Elec       q    Type
REMARK                         _______ _______ _______ _____ _____    ______ ____
ROOT
ATOM      1  C   LIG    1       27.019 -14.012   2.886  0.00  0.00    +0.164 A 
ATOM      2  C   LIG    1       28.210 -14.133   3.625  0.00  0.00    +0.162 A 
ATOM      3  C   LIG    1       28.519 -15.367   4.197  0.00  0.00    +0.062 A 
ATOM      4  C   LIG    1       27.659 -16.473   4.042  0.00  0.00    +0.044 A 
ATOM      5  C   LIG    1       26.484 -16.362   3.310  0.00  0.00    +0.082 A 
ATOM      6  N   LIG    1       25.638 -17.385   3.149  0.00  0.00    -0.214 NA
ATOM      7  C   LIG    1       25.953 -18.564   3.707  0.00  0.00    +0.220 A 
ATOM      8  N   LIG    1       27.069 -18.753   4.428  0.00  0.00    -0.199 NA
ATOM      9  C   LIG    1       27.886 -17.718   4.610  0.00  0.00    +0.129 A 
ATOM     10  C   LIG    1       26.175 -15.127   2.761  0.00  0.00    +0.078 A 
ENDROOT
BRANCH   9  11
ATOM     11  N   LIG    1       28.990 -17.967   5.437  0.00  0.00    -0.343 N 
ATOM     12  H   LIG    1       29.822 -17.517   5.068  0.00  0.00    +0.144 HD
ATOM     13  H   LIG    1       28.751 -17.591   6.352  0.00  0.00    +0.144 HD
ENDBRANCH   9  11
BRANCH   1  15
ATOM     14  C   LIG    1       25.379 -12.668   1.812  0.00  0.00    +0.277 C 
ATOM     15  O   LIG    1       26.714 -12.797   2.314  0.00  0.00    -0.491 OA
ENDBRANCH   1  15
BRANCH   2  16
ATOM     16  O   LIG    1       29.016 -13.033   3.795  0.00  0.00    -0.491 OA
ATOM     17  C   LIG    1       28.754 -12.259   4.970  0.00  0.00    +0.277 C 
ENDBRANCH   2  16
BRANCH   7  18
ATOM     18  N   LIG    1       25.056 -19.623   3.585  0.00  0.00    -0.303 N 
ATOM     19  C   LIG    1       25.320 -20.730   4.493  0.00  0.00    +0.132 C 
BRANCH  18  20
ATOM     20  C   LIG    1       23.655 -19.241   3.354  0.00  0.00    +0.109 C 
BRANCH  20  21
ATOM     21  C   LIG    1       22.862 -19.055   4.658  0.00  0.00    +0.037 C 
BRANCH  21  22
ATOM     22  C   LIG    1       21.964 -17.818   4.643  0.00  0.00    +0.105 C 
BRANCH  22  23
ATOM     23  N   LIG    1       22.703 -16.655   4.177  0.00  0.00    -0.313 N 
ATOM     24  H   LIG    1       23.185 -16.684   3.280  0.00  0.00    +0.149 HD
ATOM     25  C   LIG    1       22.826 -15.492   4.891  0.00  0.00    +0.242 C 
ATOM     26  O   LIG    1       22.204 -15.273   5.942  0.00  0.00    -0.273 OA
BRANCH  25  27
ATOM     27  C   LIG    1       23.803 -14.461   4.300  0.00  0.00    +0.204 C 
ATOM     28  O   LIG    1       23.158 -13.529   3.413  0.00  0.00    -0.367 OA
ATOM     29  C   LIG    1       23.605 -12.215   3.765  0.00  0.00    +0.161 C 
ATOM     30  C   LIG    1       23.904 -12.282   5.243  0.00  0.00    +0.031 C 
ATOM     31  C   LIG    1       24.508 -13.659   5.379  0.00  0.00    +0.043 C 
ENDBRANCH  25  27
ENDBRANCH  22  23
ENDBRANCH  21  22
ENDBRANCH  20  21
ENDBRANCH  18  20
ENDBRANCH   7  18
TORSDOF 9
ENDMDL
MODEL 5
REMARK VINA RESULT:       0.0      1.943      4.467
REMARK  Name = *****
REMARK                            x       y       z     vdW  Elec       q    Type
REMARK                         _______ _______ _______ _____ _____    ______ ____
ROOT
ATOM      1  C   LIG    1       23.951 -13.262   4.361  0.00  0.00    +0.164 A 
ATOM      2  C   LIG    1       25.345 -13.260   4.175  0.00  0.00    +0.162 A 
ATOM      3  C   LIG    1       25.988 -14.472   3.918  0.00  0.00    +0.062 A 
ATOM      4  C   LIG    1       25.261 -15.676   3.848  0.00  0.00    +0.044 A 
ATOM      5  C   LIG    1       23.883 -15.686   4.025  0.00  0.00    +0.082 A 
ATOM      6  N   LIG    1       23.159 -16.809   3.975  0.00  0.00    -0.214 NA
ATOM      7  C   LIG    1       23.796 -17.964   3.728  0.00  0.00    +0.220 A 
ATOM      8  N   LIG    1       25.123 -18.040   3.544  0.00  0.00    -0.199 NA
ATOM      9  C   LIG    1       25.837 -16.919   3.630  0.00  0.00    +0.129 A 
ATOM     10  C   LIG    1       23.255 -14.480   4.298  0.00  0.00    +0.078 A 
ENDROOT
BRANCH   9  11
ATOM     11  N   LIG    1       27.223 -17.084   3.506  0.00  0.00    -0.343 N 
ATOM     12  H   LIG    1       27.665 -17.091   4.419  0.00  0.00    +0.144 HD
ATOM     13  H   LIG    1       27.363 -17.972   3.029  0.00  0.00    +0.144 HD
ENDBRANCH   9  11
BRANCH   1  15
ATOM     14  C   LIG    1       23.613 -11.455   5.866  0.00  0.00    +0.277 C 
ATOM     15  O   LIG    1       23.313 -12.068   4.606  0.00  0.00    -0.491 OA
ENDBRANCH   1  15
BRANCH   2  16
ATOM     16  O   LIG    1       26.041 -12.080   4.285  0.00  0.00    -0.491 OA
ATOM     17  C   LIG    1       27.443 -12.217   4.538  0.00  0.00    +0.277 C 
ENDBRANCH   2  16
BRANCH   7  18
ATOM     18  N   LIG    1       23.058 -19.147   3.720  0.00  0.00    -0.303 N 
ATOM     19  C   LIG    1       23.780 -20.291   3.182  0.00  0.00    +0.132 C 
BRANCH  18  20
ATOM     20  C   LIG    1       22.200 -19.363   4.894  0.00  0.00    +0.109 C 
BRANCH  20  21
ATOM     21  C   LIG    1       22.995 -19.462   6.206  0.00  0.00    +0.037 C 
BRANCH  21  22
ATOM     22  C   LIG    1       23.412 -20.893   6.548  0.00  0.00    +0.105 C 
BRANCH  22  23
ATOM     23  N   LIG    1       24.771 -20.922   7.061  0.00  0.00    -0.313 N 
ATOM     24  H   LIG    1       24.936 -20.945   8.066  0.00  0.00    +0.149 HD
ATOM     25  C   LIG    1       25.888 -20.893   6.268  0.00  0.00    +0.242 C 
ATOM     26  O   LIG    1       25.844 -20.978   5.031  0.00  0.00    -0.273 OA
BRANCH  25  27
ATOM     27  C   LIG    1       27.222 -20.742   7.020  0.00  0.00    +0.204 C 
ATOM     28  O   LIG    1       28.268 -21.562   6.467  0.00  0.00    -0.367 OA
ATOM     29  C   LIG    1       29.436 -20.745   6.337  0.00  0.00    +0.161 C 
ATOM     30  C   LIG    1       28.918 -19.346   6.112  0.00  0.00    +0.031 C 
ATOM     31  C   LIG    1       27.715 -19.306   7.024  0.00  0.00    +0.043 C 
ENDBRANCH  25  27
ENDBRANCH  22  23
ENDBRANCH  21  22
ENDBRANCH  20  21
ENDBRANCH  18  20
ENDBRANCH   7  18
TORSDOF 9
ENDMDL
MODEL 6
REMARK VINA RESULT:       0.1      1.513      3.113
REMARK  Name = *****
REMARK                            x       y       z     vdW  Elec       q    Type
REMARK                         _______ _______ _______ _____ _____    ______ ____
ROOT
ATOM      1  C   LIG    1       25.722 -14.337   3.236  0.00  0.00    +0.164 A 
ATOM      2  C   LIG    1       27.068 -14.236   3.634  0.00  0.00    +0.162 A 
ATOM      3  C   LIG    1       27.741 -15.396   4.017  0.00  0.00    +0.062 A 
ATOM      4  C   LIG    1       27.091 -16.646   4.009  0.00  0.00    +0.044 A 
ATOM      5  C   LIG    1       25.764 -16.754   3.613  0.00  0.00    +0.082 A 
ATOM      6  N   LIG    1       25.110 -17.921   3.601  0.00  0.00    -0.214 NA
ATOM      7  C   LIG    1       25.775 -19.026   3.974  0.00  0.00    +0.220 A 
ATOM      8  N   LIG    1       27.057 -19.006   4.369  0.00  0.00    -0.199 NA
ATOM      9  C   LIG    1       27.687 -17.833   4.409  0.00  0.00    +0.129 A 
ATOM     10  C   LIG    1       25.097 -15.594   3.252  0.00  0.00    +0.078 A 
ENDROOT
BRANCH   9  11
ATOM     11  N   LIG    1       28.997 -17.876   4.905  0.00  0.00    -0.343 N 
ATOM     12  H   LIG    1       29.643 -17.456   4.245  0.00  0.00    +0.144 HD
ATOM     13  H   LIG    1       28.987 -17.358   5.781  0.00  0.00    +0.144 HD
ENDBRANCH   9  11
BRANCH   1  15
ATOM     14  C   LIG    1       24.201 -12.613   3.841  0.00  0.00    +0.277 C 
ATOM     15  O   LIG    1       25.057 -13.195   2.851  0.00  0.00    -0.491 OA
ENDBRANCH   1  15
BRANCH   2  16
ATOM     16  O   LIG    1       27.672 -13.001   3.670  0.00  0.00    -0.491 OA
ATOM     17  C   LIG    1       29.100 -13.022   3.763  0.00  0.00    +0.277 C 
ENDBRANCH   2  16
BRANCH   7  18
ATOM     18  N   LIG    1       25.090 -20.238   4.010  0.00  0.00    -0.303 N 
ATOM     19  C   LIG    1       24.785 -20.786   2.697  0.00  0.00    +0.132 C 
BRANCH  18  20
ATOM     20  C   LIG    1       25.516 -21.172   5.064  0.00  0.00    +0.109 C 
BRANCH  20  21
ATOM     21  C   LIG    1       24.900 -20.849   6.435  0.00  0.00    +0.037 C 
BRANCH  21  22
ATOM     22  C   LIG    1       23.521 -21.479   6.636  0.00  0.00    +0.105 C 
BRANCH  22  23
ATOM     23  N   LIG    1       22.659 -21.197   5.500  0.00  0.00    -0.313 N 
ATOM     24  H   LIG    1       22.361 -21.953   4.886  0.00  0.00    +0.149 HD
ATOM     25  C   LIG    1       22.223 -19.941   5.165  0.00  0.00    +0.242 C 
ATOM     26  O   LIG    1       22.411 -18.945   5.881  0.00  0.00    -0.273 OA
BRANCH  25  27
ATOM     27  C   LIG    1       21.477 -19.843   3.824  0.00  0.00    +0.204 C 
ATOM     28  O   LIG    1       20.074 -20.144   3.944  0.00  0.00    -0.367 OA
ATOM     29  C   LIG    1       19.351 -19.129   3.241  0.00  0.00    +0.161 C 
ATOM     30  C   LIG    1       20.209 -17.892   3.338  0.00  0.00    +0.031 C 
ATOM     31  C   LIG    1       21.600 -18.463   3.202  0.00  0.00    +0.043 C 
ENDBRANCH  25  27
ENDBRANCH  22  23
ENDBRANCH  21  22
ENDBRANCH  20  21
ENDBRANCH  18  20
ENDBRANCH   7  18
TORSDOF 9
ENDMDL
MODEL 7
REMARK VINA RESULT:       0.2      2.572      6.725
REMARK  Name = *****
REMARK                            x       y       z     vdW  Elec       q    Type
REMARK                         _______ _______ _______ _____ _____    ______ ____
ROOT
ATOM      1  C   LIG    1       23.905 -19.563   3.828  0.00  0.00    +0.164 A 
ATOM      2  C   LIG    1       22.800 -19.516   4.698  0.00  0.00    +0.162 A 
ATOM      3  C   LIG    1       22.334 -18.270   5.118  0.00  0.00    +0.062 A 
ATOM      4  C   LIG    1       22.953 -17.081   4.687  0.00  0.00    +0.044 A 
ATOM      5  C   LIG    1       24.041 -17.119   3.824  0.00  0.00    +0.082 A 
ATOM      6  N   LIG    1       24.661 -16.013   3.399  0.00  0.00    -0.214 NA
ATOM      7  C   LIG    1       24.198 -14.825   3.816  0.00  0.00    +0.220 A 
ATOM      8  N   LIG    1       23.152 -14.702   4.647  0.00  0.00    -0.199 NA
ATOM      9  C   LIG    1       22.564 -15.812   5.090  0.00  0.00    +0.129 A 
ATOM     10  C   LIG    1       24.511 -18.362   3.426  0.00  0.00    +0.078 A 
ENDROOT
BRANCH   9  11
ATOM     11  N   LIG    1       21.530 -15.611   6.015  0.00  0.00    -0.343 N 
ATOM     12  H   LIG    1       21.499 -14.641   6.311  0.00  0.00    +0.144 HD
ATOM     13  H   LIG    1       20.668 -15.872   5.540  0.00  0.00    +0.144 HD
ENDBRANCH   9  11
BRANCH   1  15
ATOM     14  C   LIG    1       25.194 -21.494   4.337  0.00  0.00    +0.277 C 
ATOM     15  O   LIG    1       24.364 -20.790   3.405  0.00  0.00    -0.491 OA
ENDBRANCH   1  15
BRANCH   2  16
ATOM     16  O   LIG    1       22.234 -20.689   5.137  0.00  0.00    -0.491 OA
ATOM     17  C   LIG    1       22.713 -21.163   6.399  0.00  0.00    +0.277 C 
ENDBRANCH   2  16
BRANCH   7  18
ATOM     18  N   LIG    1       24.865 -13.669   3.418  0.00  0.00    -0.303 N 
ATOM     19  C   LIG    1       24.078 -12.796   2.558  0.00  0.00    +0.132 C 
BRANCH  18  20
ATOM     20  C   LIG    1       25.712 -13.043   4.445  0.00  0.00    +0.109 C 
BRANCH  20  21
ATOM     21  C   LIG    1       26.671 -14.038   5.118  0.00  0.00    +0.037 C 
BRANCH  21  22
ATOM     22  C   LIG    1       27.682 -14.646   4.145  0.00  0.00    +0.105 C 
BRANCH  22  23
ATOM     23  N   LIG    1       28.313 -15.819   4.729  0.00  0.00    -0.313 N 
ATOM     24  H   LIG    1       28.954 -15.715   5.514  0.00  0.00    +0.149 HD
ATOM     25  C   LIG    1       28.125 -17.096   4.270  0.00  0.00    +0.242 C 
ATOM     26  O   LIG    1       27.291 -17.387   3.399  0.00  0.00    -0.273 OA
BRANCH  25  27
ATOM     27  C   LIG    1       29.030 -18.162   4.910  0.00  0.00    +0.204 C 
ATOM     28  O   LIG    1       29.384 -17.848   6.270  0.00  0.00    -0.367 OA
ATOM     29  C   LIG    1       29.188 -19.030   7.052  0.00  0.00    +0.161 C 
ATOM     30  C   LIG    1       28.074 -19.780   6.364  0.00  0.00    +0.031 C 
ATOM     31  C   LIG    1       28.384 -19.536   4.907  0.00  0.00    +0.043 C 
ENDBRANCH  25  27
ENDBRANCH  22  23
ENDBRANCH  21  22
ENDBRANCH  20  21
ENDBRANCH  18  20
ENDBRANCH   7  18
TORSDOF 9
ENDMDL
MODEL 8
REMARK VINA RESULT:       0.5      1.707      3.456
REMARK  Name = *****
REMARK                            x       y       z     vdW  Elec       q    Type
REMARK                         _______ _______ _______ _____ _____    ______ ____
ROOT
ATOM      1  C   LIG    1       26.511 -14.110   2.911  0.00  0.00    +0.164 A 
ATOM      2  C   LIG    1       27.782 -14.107   3.513  0.00  0.00    +0.162 A 
ATOM      3  C   LIG    1       28.265 -15.295   4.062  0.00  0.00    +0.062 A 
ATOM      4  C   LIG    1       27.499 -16.477   4.018  0.00  0.00    +0.044 A 
ATOM      5  C   LIG    1       26.245 -16.489   3.420  0.00  0.00    +0.082 A 
ATOM      6  N   LIG    1       25.484 -17.587   3.367  0.00  0.00    -0.214 NA
ATOM      7  C   LIG    1       25.965 -18.720   3.901  0.00  0.00    +0.220 A 
ATOM      8  N   LIG    1       27.167 -18.792   4.494  0.00  0.00    -0.199 NA
ATOM      9  C   LIG    1       27.900 -17.684   4.571  0.00  0.00    +0.129 A 
ATOM     10  C   LIG    1       25.764 -15.299   2.894  0.00  0.00    +0.078 A 
ENDROOT
BRANCH   9  11
ATOM     11  N   LIG    1       29.107 -17.814   5.273  0.00  0.00    -0.343 N 
ATOM     12  H   LIG    1       29.054 -18.582   5.934  0.00  0.00    +0.144 HD
ATOM     13  H   LIG    1       29.825 -17.988   4.573  0.00  0.00    +0.144 HD
ENDBRANCH   9  11
BRANCH   1  15
ATOM     14  C   LIG    1       24.612 -12.862   2.214  0.00  0.00    +0.277 C 
ATOM     15  O   LIG    1       26.035 -12.941   2.362  0.00  0.00    -0.491 OA
ENDBRANCH   1  15
BRANCH   2  16
ATOM     16  O   LIG    1       28.498 -12.935   3.579  0.00  0.00    -0.491 OA
ATOM     17  C   LIG    1       28.644 -12.381   4.890  0.00  0.00    +0.277 C 
ENDBRANCH   2  16
BRANCH   7  18
ATOM     18  N   LIG    1       25.162 -19.858   3.893  0.00  0.00    -0.303 N 
ATOM     19  C   LIG    1       25.003 -20.462   2.578  0.00  0.00    +0.132 C 
BRANCH  18  20
ATOM     20  C   LIG    1       25.325 -20.755   5.047  0.00  0.00    +0.109 C 
BRANCH  20  21
ATOM     21  C   LIG    1       24.265 -20.527   6.137  0.00  0.00    +0.037 C 
BRANCH  21  22
ATOM     22  C   LIG    1       22.864 -20.298   5.570  0.00  0.00    +0.105 C 
BRANCH  22  23
ATOM     23  N   LIG    1       22.542 -18.881   5.555  0.00  0.00    -0.313 N 
ATOM     24  H   LIG    1       22.538 -18.350   6.425  0.00  0.00    +0.149 HD
ATOM     25  C   LIG    1       22.206 -18.185   4.423  0.00  0.00    +0.242 C 
ATOM     26  O   LIG    1       22.279 -18.669   3.283  0.00  0.00    -0.273 OA
BRANCH  25  27
ATOM     27  C   LIG    1       21.721 -16.745   4.659  0.00  0.00    +0.204 C 
ATOM     28  O   LIG    1       21.762 -16.364   6.047  0.00  0.00    -0.367 OA
ATOM     29  C   LIG    1       22.373 -15.072   6.124  0.00  0.00    +0.161 C 
ATOM     30  C   LIG    1       23.322 -15.012   4.952  0.00  0.00    +0.031 C 
ATOM     31  C   LIG    1       22.540 -15.732   3.879  0.00  0.00    +0.043 C 
ENDBRANCH  25  27
ENDBRANCH  22  23
ENDBRANCH  21  22
ENDBRANCH  20  21
ENDBRANCH  18  20
ENDBRANCH   7  18
TORSDOF 9
ENDMDL
MODEL 9
REMARK VINA RESULT:       0.6      2.370      4.784
REMARK  Name = *****
REMARK                            x       y       z     vdW  Elec       q    Type
REMARK                         _______ _______ _______ _____ _____    ______ ____
ROOT
ATOM      1  C   LIG    1       25.515 -14.395   3.095  0.00  0.00    +0.164 A 
ATOM      2  C   LIG    1       24.897 -13.375   3.841  0.00  0.00    +0.162 A 
ATOM      3  C   LIG    1       23.816 -13.707   4.659  0.00  0.00    +0.062 A 
ATOM      4  C   LIG    1       23.348 -15.033   4.739  0.00  0.00    +0.044 A 
ATOM      5  C   LIG    1       23.957 -16.046   4.009  0.00  0.00    +0.082 A 
ATOM      6  N   LIG    1       23.535 -17.315   4.051  0.00  0.00    -0.214 NA
ATOM      7  C   LIG    1       22.494 -17.613   4.843  0.00  0.00    +0.220 A 
ATOM      8  N   LIG    1       21.854 -16.693   5.580  0.00  0.00    -0.199 NA
ATOM      9  C   LIG    1       22.260 -15.427   5.504  0.00  0.00    +0.129 A 
ATOM     10  C   LIG    1       25.018 -15.705   3.184  0.00  0.00    +0.078 A 
ENDROOT
BRANCH   9  11
ATOM     11  N   LIG    1       21.497 -14.510   6.238  0.00  0.00    -0.343 N 
ATOM     12  H   LIG    1       21.848 -13.567   6.108  0.00  0.00    +0.144 HD
ATOM     13  H   LIG    1       20.543 -14.592   5.893  0.00  0.00    +0.144 HD
ENDBRANCH   9  11
BRANCH   1  15
ATOM     14  C   LIG    1       27.823 -13.841   2.976  0.00  0.00    +0.277 C 
ATOM     15  O   LIG    1       26.586 -14.073   2.292  0.00  0.00    -0.491 OA
ENDBRANCH   1  15
BRANCH   2  16
ATOM     16  O   LIG    1       25.345 -12.081   3.720  0.00  0.00    -0.491 OA
ATOM     17  C   LIG    1       25.264 -11.527   2.404  0.00  0.00    +0.277 C 
ENDBRANCH   2  16
BRANCH   7  18
ATOM     18  N   LIG    1       22.018 -18.922   4.858  0.00  0.00    -0.303 N 
ATOM     19  C   LIG    1       21.370 -19.331   3.620  0.00  0.00    +0.132 C 
BRANCH  18  20
ATOM     20  C   LIG    1       22.879 -19.900   5.540  0.00  0.00    +0.109 C 
BRANCH  20  21
ATOM     21  C   LIG    1       22.927 -21.259   4.823  0.00  0.00    +0.037 C 
BRANCH  21  22
ATOM     22  C   LIG    1       24.297 -21.571   4.221  0.00  0.00    +0.105 C 
BRANCH  22  23
ATOM     23  N   LIG    1       25.345 -21.387   5.211  0.00  0.00    -0.313 N 
ATOM     24  H   LIG    1       25.456 -22.061   5.967  0.00  0.00    +0.149 HD
ATOM     25  C   LIG    1       26.210 -20.324   5.221  0.00  0.00    +0.242 C 
ATOM     26  O   LIG    1       26.268 -19.489   4.305  0.00  0.00    -0.273 OA
BRANCH  25  27
ATOM     27  C   LIG    1       27.115 -20.227   6.460  0.00  0.00    +0.204 C 
ATOM     28  O   LIG    1       27.704 -21.491   6.819  0.00  0.00    -0.367 OA
ATOM     29  C   LIG    1       29.096 -21.268   7.062  0.00  0.00    +0.161 C 
ATOM     30  C   LIG    1       29.472 -20.107   6.173  0.00  0.00    +0.031 C 
ATOM     31  C   LIG    1       28.245 -19.232   6.265  0.00  0.00    +0.043 C 
ENDBRANCH  25  27
ENDBRANCH  22  23
ENDBRANCH  21  22
ENDBRANCH  20  21
ENDBRANCH  18  20
ENDBRANCH   7  18
TORSDOF 9
ENDMDL
