MODEL 1
REMARK VINA RESULT:      -9.0      0.000      0.000
REMARK  Name = *****
REMARK                            x       y       z     vdW  Elec       q    Type
REMARK                         _______ _______ _______ _____ _____    ______ ____
ROOT
ATOM      1  C   LIG    1       25.171 -25.465   5.970  0.00  0.00    +0.137 C 
ENDROOT
BRANCH   1   2
ATOM      2  O   LIG    1       26.546 -25.761   6.147  0.00  0.00    -0.390 OA
ATOM      3  H   LIG    1       26.952 -25.017   6.634  0.00  0.00    +0.210 HD
ENDBRANCH   1   2
BRANCH   1   4
ATOM      4  C   LIG    1       24.347 -26.752   6.134  0.00  0.00    +0.056 C 
BRANCH   4   5
ATOM      5  C   LIG    1       25.191 -28.036   6.293  0.00  0.00    +0.080 C 
BRANCH   5   6
ATOM      6  N   LIG    1       24.961 -28.597   7.631  0.00  0.00    -0.310 N 
ATOM      7  H   LIG    1       24.091 -29.083   7.788  0.00  0.00    +0.149 HD
ATOM      8  C   LIG    1       25.913 -28.572   8.638  0.00  0.00    +0.234 C 
ATOM      9  O   LIG    1       26.999 -28.026   8.433  0.00  0.00    -0.274 OA
BRANCH   8  10
ATOM     10  C   LIG    1       25.498 -29.327   9.977  0.00  0.00    +0.166 C 
BRANCH  10  11
ATOM     11  N   LIG    1       25.083 -30.748   9.760  0.00  0.00    -0.274 N 
ATOM     12  C   LIG    1       23.772 -31.122   9.608  0.00  0.00    +0.303 C 
ATOM     13  O   LIG    1       22.809 -30.324   9.473  0.00  0.00    -0.253 OA
ATOM     14  N   LIG    1       23.498 -32.455   9.581  0.00  0.00    -0.299 N 
ATOM     15  H   LIG    1       22.505 -32.677   9.623  0.00  0.00    +0.150 HD
ATOM     16  C   LIG    1       24.470 -33.509   9.663  0.00  0.00    +0.107 C 
ATOM     17  C   LIG    1       25.758 -33.028   9.049  0.00  0.00    +0.038 C 
ATOM     18  C   LIG    1       26.144 -31.762   9.789  0.00  0.00    +0.112 C 
ENDBRANCH  10  11
BRANCH  10  19
ATOM     19  C   LIG    1       26.419 -29.134  11.238  0.00  0.00    +0.012 C 
ATOM     20  C   LIG    1       26.740 -27.664  11.542  0.00  0.00    +0.009 C 
ATOM     21  C   LIG    1       25.807 -29.706  12.541  0.00  0.00    +0.009 C 
ENDBRANCH  10  19
ENDBRANCH   8  10
ENDBRANCH   5   6
BRANCH   5  22
ATOM     22  C   LIG    1       25.057 -29.098   5.169  0.00  0.00    +0.057 C 
BRANCH  22  23
ATOM     23  C   LIG    1       25.020 -30.585   5.480  0.00  0.00    -0.046 A 
ATOM     24  C   LIG    1       23.859 -31.218   5.944  0.00  0.00    +0.003 A 
ATOM     25  C   LIG    1       23.734 -32.609   5.914  0.00  0.00    +0.000 A 
ATOM     26  C   LIG    1       24.766 -33.394   5.409  0.00  0.00    +0.000 A 
ATOM     27  C   LIG    1       25.950 -32.790   5.000  0.00  0.00    +0.000 A 
ATOM     28  C   LIG    1       26.088 -31.398   5.059  0.00  0.00    +0.003 A 
ENDBRANCH  22  23
ENDBRANCH   5  22
ENDBRANCH   4   5
ENDBRANCH   1   4
BRANCH   1  29
ATOM     29  C   LIG    1       24.683 -24.286   6.874  0.00  0.00    +0.106 C 
BRANCH  29  31
ATOM     30  C   LIG    1       25.732 -22.264   8.235  0.00  0.00    +0.251 C 
ATOM     31  N   LIG    1       25.777 -23.337   7.341  0.00  0.00    -0.307 N 
ATOM     32  H   LIG    1       26.676 -23.484   6.903  0.00  0.00    +0.149 HD
ATOM     33  O   LIG    1       24.701 -21.937   8.811  0.00  0.00    -0.272 OA
BRANCH  30  34
ATOM     34  C   LIG    1       27.126 -21.519   8.505  0.00  0.00    +0.324 C 
BRANCH  34  35
ATOM     35  O   LIG    1       28.256 -21.798   7.669  0.00  0.00    -0.482 OA
BRANCH  35  38
ATOM     36  C   LIG    1       27.791 -19.614   5.470  0.00  0.00    +0.048 C 
ATOM     37  C   LIG    1       28.999 -19.793   6.338  0.00  0.00    -0.009 A 
ATOM     38  C   LIG    1       29.174 -20.825   7.288  0.00  0.00    +0.127 A 
ATOM     39  C   LIG    1       30.390 -20.804   8.036  0.00  0.00    -0.009 A 
ATOM     40  C   LIG    1       30.682 -21.802   9.125  0.00  0.00    +0.048 C 
ATOM     41  C   LIG    1       31.367 -19.795   7.838  0.00  0.00    +0.007 A 
ATOM     42  C   LIG    1       31.162 -18.778   6.928  0.00  0.00    +0.001 A 
ATOM     43  C   LIG    1       29.986 -18.777   6.194  0.00  0.00    +0.007 A 
ENDBRANCH  35  38
ENDBRANCH  34  35
ENDBRANCH  30  34
ENDBRANCH  29  31
BRANCH  29  44
ATOM     44  C   LIG    1       23.368 -23.609   6.327  0.00  0.00    +0.060 C 
BRANCH  44  45
ATOM     45  C   LIG    1       23.531 -22.216   5.680  0.00  0.00    -0.045 A 
ATOM     46  C   LIG    1       22.751 -21.109   6.068  0.00  0.00    +0.003 A 
ATOM     47  C   LIG    1       22.853 -19.873   5.399  0.00  0.00    +0.000 A 
ATOM     48  C   LIG    1       23.755 -19.708   4.353  0.00  0.00    +0.000 A 
ATOM     49  C   LIG    1       24.572 -20.772   3.988  0.00  0.00    +0.000 A 
ATOM     50  C   LIG    1       24.463 -22.011   4.644  0.00  0.00    +0.003 A 
ENDBRANCH  44  45
ENDBRANCH  29  44
ENDBRANCH   1  29
TORSDOF 16
ENDMDL
MODEL 2
REMARK VINA RESULT:      -8.7      1.522      2.739
REMARK  Name = *****
REMARK                            x       y       z     vdW  Elec       q    Type
REMARK                         _______ _______ _______ _____ _____    ______ ____
ROOT
ATOM      1  C   LIG    1       25.178 -25.669   5.864  0.00  0.00    +0.137 C 
ENDROOT
BRANCH   1   2
ATOM      2  O   LIG    1       25.981 -25.995   4.742  0.00  0.00    -0.390 OA
ATOM      3  H   LIG    1       25.825 -26.935   4.525  0.00  0.00    +0.210 HD
ENDBRANCH   1   2
BRANCH   1   4
ATOM      4  C   LIG    1       25.769 -26.326   7.121  0.00  0.00    +0.056 C 
BRANCH   4   5
ATOM      5  C   LIG    1       25.600 -27.861   7.182  0.00  0.00    +0.080 C 
BRANCH   5   6
ATOM      6  N   LIG    1       25.458 -28.272   8.585  0.00  0.00    -0.310 N 
ATOM      7  H   LIG    1       24.911 -27.678   9.190  0.00  0.00    +0.149 HD
ATOM      8  C   LIG    1       25.954 -29.468   9.078  0.00  0.00    +0.234 C 
ATOM      9  O   LIG    1       26.578 -30.223   8.330  0.00  0.00    -0.274 OA
BRANCH   8  10
ATOM     10  C   LIG    1       25.600 -29.766  10.603  0.00  0.00    +0.166 C 
BRANCH  10  11
ATOM     11  N   LIG    1       26.350 -28.908  11.572  0.00  0.00    -0.274 N 
ATOM     12  C   LIG    1       27.685 -29.085  11.838  0.00  0.00    +0.303 C 
ATOM     13  O   LIG    1       28.448 -29.856  11.200  0.00  0.00    -0.253 OA
ATOM     14  N   LIG    1       28.225 -28.357  12.853  0.00  0.00    -0.299 N 
ATOM     15  H   LIG    1       29.169 -28.636  13.109  0.00  0.00    +0.150 HD
ATOM     16  C   LIG    1       27.524 -27.390  13.651  0.00  0.00    +0.107 C 
ATOM     17  C   LIG    1       26.444 -26.760  12.811  0.00  0.00    +0.038 C 
ATOM     18  C   LIG    1       25.578 -27.895  12.299  0.00  0.00    +0.112 C 
ENDBRANCH  10  11
BRANCH  10  19
ATOM     19  C   LIG    1       24.082 -29.944  10.976  0.00  0.00    +0.012 C 
ATOM     20  C   LIG    1       23.208 -30.385   9.794  0.00  0.00    +0.009 C 
ATOM     21  C   LIG    1       23.841 -30.995  12.089  0.00  0.00    +0.009 C 
ENDBRANCH  10  19
ENDBRANCH   8  10
ENDBRANCH   5   6
BRANCH   5  22
ATOM     22  C   LIG    1       24.509 -28.476   6.266  0.00  0.00    +0.057 C 
BRANCH  22  23
ATOM     23  C   LIG    1       24.586 -29.918   5.794  0.00  0.00    -0.046 A 
ATOM     24  C   LIG    1       25.675 -30.399   5.053  0.00  0.00    +0.003 A 
ATOM     25  C   LIG    1       25.900 -31.770   4.907  0.00  0.00    +0.000 A 
ATOM     26  C   LIG    1       25.045 -32.687   5.509  0.00  0.00    +0.000 A 
ATOM     27  C   LIG    1       23.925 -32.232   6.197  0.00  0.00    +0.000 A 
ATOM     28  C   LIG    1       23.682 -30.859   6.318  0.00  0.00    +0.003 A 
ENDBRANCH  22  23
ENDBRANCH   5  22
ENDBRANCH   4   5
ENDBRANCH   1   4
BRANCH   1  29
ATOM     29  C   LIG    1       24.938 -24.131   6.012  0.00  0.00    +0.106 C 
BRANCH  29  31
ATOM     30  C   LIG    1       25.883 -22.430   7.816  0.00  0.00    +0.251 C 
ATOM     31  N   LIG    1       26.003 -23.387   6.804  0.00  0.00    -0.307 N 
ATOM     32  H   LIG    1       26.953 -23.590   6.527  0.00  0.00    +0.149 HD
ATOM     33  O   LIG    1       24.794 -22.050   8.230  0.00  0.00    -0.272 OA
BRANCH  30  34
ATOM     34  C   LIG    1       27.260 -21.900   8.446  0.00  0.00    +0.324 C 
BRANCH  34  35
ATOM     35  O   LIG    1       28.468 -21.978   7.680  0.00  0.00    -0.482 OA
BRANCH  35  38
ATOM     36  C   LIG    1       27.787 -19.695   5.644  0.00  0.00    +0.048 C 
ATOM     37  C   LIG    1       28.985 -19.794   6.537  0.00  0.00    -0.009 A 
ATOM     38  C   LIG    1       29.266 -20.870   7.409  0.00  0.00    +0.127 A 
ATOM     39  C   LIG    1       30.449 -20.760   8.199  0.00  0.00    -0.009 A 
ATOM     40  C   LIG    1       30.838 -21.800   9.216  0.00  0.00    +0.048 C 
ATOM     41  C   LIG    1       31.295 -19.625   8.116  0.00  0.00    +0.007 A 
ATOM     42  C   LIG    1       30.986 -18.570   7.282  0.00  0.00    +0.001 A 
ATOM     43  C   LIG    1       29.839 -18.654   6.509  0.00  0.00    +0.007 A 
ENDBRANCH  35  38
ENDBRANCH  34  35
ENDBRANCH  30  34
ENDBRANCH  29  31
BRANCH  29  44
ATOM     44  C   LIG    1       24.485 -23.457   4.660  0.00  0.00    +0.060 C 
BRANCH  44  45
ATOM     45  C   LIG    1       24.034 -21.981   4.746  0.00  0.00    -0.045 A 
ATOM     46  C   LIG    1       22.932 -21.575   5.523  0.00  0.00    +0.003 A 
ATOM     47  C   LIG    1       22.483 -20.240   5.512  0.00  0.00    +0.000 A 
ATOM     48  C   LIG    1       23.143 -19.278   4.752  0.00  0.00    +0.000 A 
ATOM     49  C   LIG    1       24.266 -19.647   4.020  0.00  0.00    +0.000 A 
ATOM     50  C   LIG    1       24.708 -20.982   4.018  0.00  0.00    +0.003 A 
ENDBRANCH  44  45
ENDBRANCH  29  44
ENDBRANCH   1  29
TORSDOF 16
ENDMDL
MODEL 3
REMARK VINA RESULT:      -8.7      1.223      2.913
REMARK  Name = *****
REMARK                            x       y       z     vdW  Elec       q    Type
REMARK                         _______ _______ _______ _____ _____    ______ ____
ROOT
ATOM      1  C   LIG    1       25.205 -25.755   6.098  0.00  0.00    +0.137 C 
ENDROOT
BRANCH   1   2
ATOM      2  O   LIG    1       26.617 -25.874   6.152  0.00  0.00    -0.390 OA
ATOM      3  H   LIG    1       27.000 -25.011   5.903  0.00  0.00    +0.210 HD
ENDBRANCH   1   2
BRANCH   1   4
ATOM      4  C   LIG    1       24.565 -27.069   6.574  0.00  0.00    +0.056 C 
BRANCH   4   5
ATOM      5  C   LIG    1       25.466 -28.314   6.419  0.00  0.00    +0.080 C 
BRANCH   5   6
ATOM      6  N   LIG    1       25.502 -29.041   7.695  0.00  0.00    -0.310 N 
ATOM      7  H   LIG    1       25.078 -29.956   7.721  0.00  0.00    +0.149 HD
ATOM      8  C   LIG    1       26.167 -28.571   8.816  0.00  0.00    +0.234 C 
ATOM      9  O   LIG    1       26.733 -27.477   8.774  0.00  0.00    -0.274 OA
BRANCH   8  10
ATOM     10  C   LIG    1       26.170 -29.563  10.063  0.00  0.00    +0.166 C 
BRANCH  10  11
ATOM     11  N   LIG    1       26.638 -28.928  11.334  0.00  0.00    -0.274 N 
ATOM     12  C   LIG    1       27.901 -29.118  11.835  0.00  0.00    +0.303 C 
ATOM     13  O   LIG    1       28.837 -29.695  11.223  0.00  0.00    -0.253 OA
ATOM     14  N   LIG    1       28.165 -28.627  13.077  0.00  0.00    -0.299 N 
ATOM     15  H   LIG    1       29.058 -28.927  13.462  0.00  0.00    +0.150 HD
ATOM     16  C   LIG    1       27.241 -27.895  13.898  0.00  0.00    +0.107 C 
ATOM     17  C   LIG    1       26.306 -27.123  13.005  0.00  0.00    +0.038 C 
ATOM     18  C   LIG    1       25.655 -28.137  12.082  0.00  0.00    +0.112 C 
ENDBRANCH  10  11
BRANCH  10  19
ATOM     19  C   LIG    1       24.914 -30.492  10.257  0.00  0.00    +0.012 C 
ATOM     20  C   LIG    1       23.672 -30.010   9.494  0.00  0.00    +0.009 C 
ATOM     21  C   LIG    1       25.150 -31.951   9.792  0.00  0.00    +0.009 C 
ENDBRANCH  10  19
ENDBRANCH   8  10
ENDBRANCH   5   6
BRANCH   5  22
ATOM     22  C   LIG    1       25.166 -29.242   5.211  0.00  0.00    +0.057 C 
BRANCH  22  23
ATOM     23  C   LIG    1       25.034 -30.747   5.378  0.00  0.00    -0.046 A 
ATOM     24  C   LIG    1       26.137 -31.605   5.268  0.00  0.00    +0.003 A 
ATOM     25  C   LIG    1       26.078 -32.919   5.738  0.00  0.00    +0.000 A 
ATOM     26  C   LIG    1       24.917 -33.398   6.335  0.00  0.00    +0.000 A 
ATOM     27  C   LIG    1       23.792 -32.582   6.399  0.00  0.00    +0.000 A 
ATOM     28  C   LIG    1       23.840 -31.275   5.901  0.00  0.00    +0.003 A 
ENDBRANCH  22  23
ENDBRANCH   5  22
ENDBRANCH   4   5
ENDBRANCH   1   4
BRANCH   1  29
ATOM     29  C   LIG    1       24.673 -24.489   6.844  0.00  0.00    +0.106 C 
BRANCH  29  31
ATOM     30  C   LIG    1       25.679 -22.428   8.179  0.00  0.00    +0.251 C 
ATOM     31  N   LIG    1       25.748 -23.512   7.299  0.00  0.00    -0.307 N 
ATOM     32  H   LIG    1       26.650 -23.645   6.864  0.00  0.00    +0.149 HD
ATOM     33  O   LIG    1       24.642 -22.115   8.752  0.00  0.00    -0.272 OA
BRANCH  30  34
ATOM     34  C   LIG    1       27.058 -21.651   8.441  0.00  0.00    +0.324 C 
BRANCH  34  35
ATOM     35  O   LIG    1       28.122 -21.750   7.487  0.00  0.00    -0.482 OA
BRANCH  35  38
ATOM     36  C   LIG    1       30.738 -21.897   9.209  0.00  0.00    +0.048 C 
ATOM     37  C   LIG    1       30.395 -20.891   8.154  0.00  0.00    -0.009 A 
ATOM     38  C   LIG    1       29.179 -20.845   7.434  0.00  0.00    +0.127 A 
ATOM     39  C   LIG    1       29.058 -19.821   6.448  0.00  0.00    -0.009 A 
ATOM     40  C   LIG    1       27.847 -19.694   5.563  0.00  0.00    +0.048 C 
ATOM     41  C   LIG    1       30.108 -18.900   6.200  0.00  0.00    +0.007 A 
ATOM     42  C   LIG    1       31.301 -18.982   6.891  0.00  0.00    +0.001 A 
ATOM     43  C   LIG    1       31.440 -19.972   7.851  0.00  0.00    +0.007 A 
ENDBRANCH  35  38
ENDBRANCH  34  35
ENDBRANCH  30  34
ENDBRANCH  29  31
BRANCH  29  44
ATOM     44  C   LIG    1       23.415 -23.853   6.138  0.00  0.00    +0.060 C 
BRANCH  44  45
ATOM     45  C   LIG    1       23.572 -22.403   5.631  0.00  0.00    -0.045 A 
ATOM     46  C   LIG    1       22.787 -21.343   6.124  0.00  0.00    +0.003 A 
ATOM     47  C   LIG    1       22.883 -20.048   5.580  0.00  0.00    +0.000 A 
ATOM     48  C   LIG    1       23.787 -19.776   4.557  0.00  0.00    +0.000 A 
ATOM     49  C   LIG    1       24.610 -20.795   4.092  0.00  0.00    +0.000 A 
ATOM     50  C   LIG    1       24.506 -22.092   4.622  0.00  0.00    +0.003 A 
ENDBRANCH  44  45
ENDBRANCH  29  44
ENDBRANCH   1  29
TORSDOF 16
ENDMDL
MODEL 4
REMARK VINA RESULT:      -8.4      2.042      9.993
REMARK  Name = *****
REMARK                            x       y       z     vdW  Elec       q    Type
REMARK                         _______ _______ _______ _____ _____    ______ ____
ROOT
ATOM      1  C   LIG    1       25.229 -26.107   6.227  0.00  0.00    +0.137 C 
ENDROOT
BRANCH   1   2
ATOM      2  O   LIG    1       23.915 -25.629   6.459  0.00  0.00    -0.390 OA
ATOM      3  H   LIG    1       23.839 -25.408   7.408  0.00  0.00    +0.210 HD
ENDBRANCH   1   2
BRANCH   1   4
ATOM      4  C   LIG    1       26.245 -25.064   6.719  0.00  0.00    +0.056 C 
BRANCH   4   5
ATOM      5  C   LIG    1       25.625 -23.711   7.133  0.00  0.00    +0.080 C 
BRANCH   5   6
ATOM      6  N   LIG    1       26.625 -22.651   6.951  0.00  0.00    -0.310 N 
ATOM      7  H   LIG    1       27.092 -22.600   6.058  0.00  0.00    +0.149 HD
ATOM      8  C   LIG    1       26.879 -21.677   7.904  0.00  0.00    +0.234 C 
ATOM      9  O   LIG    1       26.272 -21.703   8.977  0.00  0.00    -0.274 OA
BRANCH   8  10
ATOM     10  C   LIG    1       27.927 -20.561   7.463  0.00  0.00    +0.166 C 
BRANCH  10  11
ATOM     11  N   LIG    1       29.253 -20.681   8.145  0.00  0.00    -0.274 N 
ATOM     12  C   LIG    1       29.869 -19.619   8.758  0.00  0.00    +0.303 C 
ATOM     13  O   LIG    1       29.336 -18.496   8.956  0.00  0.00    -0.253 OA
ATOM     14  N   LIG    1       31.143 -19.802   9.203  0.00  0.00    -0.299 N 
ATOM     15  H   LIG    1       31.605 -18.948   9.506  0.00  0.00    +0.150 HD
ATOM     16  C   LIG    1       31.888 -21.027   9.115  0.00  0.00    +0.107 C 
ATOM     17  C   LIG    1       30.928 -22.185   9.190  0.00  0.00    +0.038 C 
ATOM     18  C   LIG    1       29.922 -21.984   8.072  0.00  0.00    +0.112 C 
ENDBRANCH  10  11
BRANCH  10  19
ATOM     19  C   LIG    1       28.044 -20.238   5.928  0.00  0.00    +0.012 C 
ATOM     20  C   LIG    1       26.722 -19.781   5.295  0.00  0.00    +0.009 C 
ATOM     21  C   LIG    1       29.068 -19.120   5.610  0.00  0.00    +0.009 C 
ENDBRANCH  10  19
ENDBRANCH   8  10
ENDBRANCH   5   6
BRANCH   5  22
ATOM     22  C   LIG    1       24.253 -23.354   6.501  0.00  0.00    +0.057 C 
BRANCH  22  23
ATOM     23  C   LIG    1       24.012 -22.011   5.831  0.00  0.00    -0.046 A 
ATOM     24  C   LIG    1       24.200 -21.824   4.455  0.00  0.00    +0.003 A 
ATOM     25  C   LIG    1       23.673 -20.708   3.799  0.00  0.00    +0.000 A 
ATOM     26  C   LIG    1       22.939 -19.763   4.507  0.00  0.00    +0.000 A 
ATOM     27  C   LIG    1       22.792 -19.899   5.884  0.00  0.00    +0.000 A 
ATOM     28  C   LIG    1       23.345 -21.000   6.546  0.00  0.00    +0.003 A 
ENDBRANCH  22  23
ENDBRANCH   5  22
ENDBRANCH   4   5
ENDBRANCH   1   4
BRANCH   1  29
ATOM     29  C   LIG    1       25.465 -27.539   6.809  0.00  0.00    +0.106 C 
BRANCH  29  31
ATOM     30  C   LIG    1       26.299 -28.644   9.073  0.00  0.00    +0.251 C 
ATOM     31  N   LIG    1       26.081 -27.574   8.201  0.00  0.00    -0.307 N 
ATOM     32  H   LIG    1       26.339 -26.669   8.569  0.00  0.00    +0.149 HD
ATOM     33  O   LIG    1       25.998 -29.795   8.783  0.00  0.00    -0.272 OA
BRANCH  30  34
ATOM     34  C   LIG    1       27.023 -28.281  10.458  0.00  0.00    +0.324 C 
BRANCH  34  35
ATOM     35  O   LIG    1       26.471 -28.749  11.694  0.00  0.00    -0.482 OA
BRANCH  35  38
ATOM     36  C   LIG    1       26.909 -26.012  13.156  0.00  0.00    +0.048 C 
ATOM     37  C   LIG    1       25.636 -26.792  13.042  0.00  0.00    -0.009 A 
ATOM     38  C   LIG    1       25.502 -28.047  12.405  0.00  0.00    +0.127 A 
ATOM     39  C   LIG    1       24.193 -28.614  12.380  0.00  0.00    -0.009 A 
ATOM     40  C   LIG    1       23.892 -29.913  11.680  0.00  0.00    +0.048 C 
ATOM     41  C   LIG    1       23.084 -27.949  12.961  0.00  0.00    +0.007 A 
ATOM     42  C   LIG    1       23.229 -26.709  13.550  0.00  0.00    +0.001 A 
ATOM     43  C   LIG    1       24.491 -26.138  13.581  0.00  0.00    +0.007 A 
ENDBRANCH  35  38
ENDBRANCH  34  35
ENDBRANCH  30  34
ENDBRANCH  29  31
BRANCH  29  44
ATOM     44  C   LIG    1       24.236 -28.499   6.573  0.00  0.00    +0.060 C 
BRANCH  44  45
ATOM     45  C   LIG    1       24.564 -29.924   6.076  0.00  0.00    -0.045 A 
ATOM     46  C   LIG    1       25.669 -30.197   5.248  0.00  0.00    +0.003 A 
ATOM     47  C   LIG    1       25.894 -31.489   4.732  0.00  0.00    +0.000 A 
ATOM     48  C   LIG    1       25.041 -32.539   5.058  0.00  0.00    +0.000 A 
ATOM     49  C   LIG    1       23.974 -32.303   5.917  0.00  0.00    +0.000 A 
ATOM     50  C   LIG    1       23.738 -31.012   6.422  0.00  0.00    +0.003 A 
ENDBRANCH  44  45
ENDBRANCH  29  44
ENDBRANCH   1  29
TORSDOF 16
ENDMDL
MODEL 5
REMARK VINA RESULT:      -8.0      2.435      6.678
REMARK  Name = *****
REMARK                            x       y       z     vdW  Elec       q    Type
REMARK                         _______ _______ _______ _____ _____    ______ ____
ROOT
ATOM      1  C   LIG    1       25.985 -29.037   8.134  0.00  0.00    +0.137 C 
ENDROOT
BRANCH   1   2
ATOM      2  O   LIG    1       27.091 -28.384   8.734  0.00  0.00    -0.390 OA
ATOM      3  H   LIG    1       27.898 -28.665   8.261  0.00  0.00    +0.210 HD
ENDBRANCH   1   2
BRANCH   1   4
ATOM      4  C   LIG    1       25.002 -29.482   9.228  0.00  0.00    +0.056 C 
BRANCH   4   5
ATOM      5  C   LIG    1       25.641 -30.302  10.370  0.00  0.00    +0.080 C 
BRANCH   5   6
ATOM      6  N   LIG    1       25.901 -29.413  11.511  0.00  0.00    -0.310 N 
ATOM      7  H   LIG    1       25.111 -29.139  12.076  0.00  0.00    +0.149 HD
ATOM      8  C   LIG    1       27.175 -29.022  11.893  0.00  0.00    +0.234 C 
ATOM      9  O   LIG    1       28.148 -29.398  11.237  0.00  0.00    -0.274 OA
BRANCH   8  10
ATOM     10  C   LIG    1       27.239 -28.142  13.219  0.00  0.00    +0.166 C 
BRANCH  10  11
ATOM     11  N   LIG    1       26.041 -27.269  13.418  0.00  0.00    -0.274 N 
ATOM     12  C   LIG    1       26.101 -25.901  13.345  0.00  0.00    +0.303 C 
ATOM     13  O   LIG    1       27.102 -25.246  12.952  0.00  0.00    -0.253 OA
ATOM     14  N   LIG    1       24.989 -25.202  13.703  0.00  0.00    -0.299 N 
ATOM     15  H   LIG    1       25.134 -24.198  13.780  0.00  0.00    +0.150 HD
ATOM     16  C   LIG    1       23.741 -25.778  14.121  0.00  0.00    +0.107 C 
ATOM     17  C   LIG    1       23.564 -27.104  13.430  0.00  0.00    +0.038 C 
ATOM     18  C   LIG    1       24.784 -27.937  13.776  0.00  0.00    +0.112 C 
ENDBRANCH  10  11
BRANCH  10  19
ATOM     19  C   LIG    1       27.720 -28.849  14.540  0.00  0.00    +0.012 C 
ATOM     20  C   LIG    1       27.504 -30.369  14.535  0.00  0.00    +0.009 C 
ATOM     21  C   LIG    1       29.227 -28.643  14.835  0.00  0.00    +0.009 C 
ENDBRANCH  10  19
ENDBRANCH   8  10
ENDBRANCH   5   6
BRANCH   5  22
ATOM     22  C   LIG    1       24.908 -31.606  10.784  0.00  0.00    +0.057 C 
BRANCH  22  23
ATOM     23  C   LIG    1       23.393 -31.673  10.871  0.00  0.00    -0.046 A 
ATOM     24  C   LIG    1       22.644 -30.690  11.532  0.00  0.00    +0.003 A 
ATOM     25  C   LIG    1       21.265 -30.577  11.333  0.00  0.00    +0.000 A 
ATOM     26  C   LIG    1       20.611 -31.441  10.461  0.00  0.00    +0.000 A 
ATOM     27  C   LIG    1       21.326 -32.462   9.843  0.00  0.00    +0.000 A 
ATOM     28  C   LIG    1       22.701 -32.594  10.065  0.00  0.00    +0.003 A 
ENDBRANCH  22  23
ENDBRANCH   5  22
ENDBRANCH   4   5
ENDBRANCH   1   4
BRANCH   1  29
ATOM     29  C   LIG    1       25.323 -28.190   6.999  0.00  0.00    +0.106 C 
BRANCH  29  31
ATOM     30  C   LIG    1       25.106 -25.617   6.387  0.00  0.00    +0.251 C 
ATOM     31  N   LIG    1       25.731 -26.724   6.969  0.00  0.00    -0.307 N 
ATOM     32  H   LIG    1       26.619 -26.526   7.407  0.00  0.00    +0.149 HD
ATOM     33  O   LIG    1       24.044 -25.708   5.783  0.00  0.00    -0.272 OA
BRANCH  30  34
ATOM     34  C   LIG    1       25.836 -24.206   6.609  0.00  0.00    +0.324 C 
BRANCH  34  35
ATOM     35  O   LIG    1       25.138 -23.139   7.263  0.00  0.00    -0.482 OA
BRANCH  35  38
ATOM     36  C   LIG    1       26.757 -20.695   6.153  0.00  0.00    +0.048 C 
ATOM     37  C   LIG    1       25.288 -20.954   6.019  0.00  0.00    -0.009 A 
ATOM     38  C   LIG    1       24.599 -22.054   6.577  0.00  0.00    +0.127 A 
ATOM     39  C   LIG    1       23.199 -22.134   6.309  0.00  0.00    -0.009 A 
ATOM     40  C   LIG    1       22.353 -23.285   6.785  0.00  0.00    +0.048 C 
ATOM     41  C   LIG    1       22.537 -21.160   5.519  0.00  0.00    +0.007 A 
ATOM     42  C   LIG    1       23.234 -20.110   4.955  0.00  0.00    +0.001 A 
ATOM     43  C   LIG    1       24.596 -20.017   5.199  0.00  0.00    +0.007 A 
ENDBRANCH  35  38
ENDBRANCH  34  35
ENDBRANCH  30  34
ENDBRANCH  29  31
BRANCH  29  44
ATOM     44  C   LIG    1       25.320 -28.936   5.610  0.00  0.00    +0.060 C 
BRANCH  44  45
ATOM     45  C   LIG    1       25.016 -30.451   5.645  0.00  0.00    -0.045 A 
ATOM     46  C   LIG    1       23.797 -30.963   6.127  0.00  0.00    +0.003 A 
ATOM     47  C   LIG    1       23.579 -32.350   6.236  0.00  0.00    +0.000 A 
ATOM     48  C   LIG    1       24.560 -33.254   5.837  0.00  0.00    +0.000 A 
ATOM     49  C   LIG    1       25.752 -32.770   5.308  0.00  0.00    +0.000 A 
ATOM     50  C   LIG    1       25.977 -31.385   5.212  0.00  0.00    +0.003 A 
ENDBRANCH  44  45
ENDBRANCH  29  44
ENDBRANCH   1  29
TORSDOF 16
ENDMDL
MODEL 6
REMARK VINA RESULT:      -8.0      1.783     10.460
REMARK  Name = *****
REMARK                            x       y       z     vdW  Elec       q    Type
REMARK                         _______ _______ _______ _____ _____    ______ ____
ROOT
ATOM      1  C   LIG    1       25.053 -25.836   6.102  0.00  0.00    +0.137 C 
ENDROOT
BRANCH   1   2
ATOM      2  O   LIG    1       23.738 -25.571   6.562  0.00  0.00    -0.390 OA
ATOM      3  H   LIG    1       23.671 -25.897   7.481  0.00  0.00    +0.210 HD
ENDBRANCH   1   2
BRANCH   1   4
ATOM      4  C   LIG    1       26.039 -24.890   6.806  0.00  0.00    +0.056 C 
BRANCH   4   5
ATOM      5  C   LIG    1       25.461 -23.497   7.142  0.00  0.00    +0.080 C 
BRANCH   5   6
ATOM      6  N   LIG    1       26.506 -22.484   6.941  0.00  0.00    -0.310 N 
ATOM      7  H   LIG    1       26.926 -22.426   6.025  0.00  0.00    +0.149 HD
ATOM      8  C   LIG    1       26.863 -21.560   7.910  0.00  0.00    +0.234 C 
ATOM      9  O   LIG    1       26.315 -21.593   9.013  0.00  0.00    -0.274 OA
BRANCH   8  10
ATOM     10  C   LIG    1       27.944 -20.485   7.448  0.00  0.00    +0.166 C 
BRANCH  10  11
ATOM     11  N   LIG    1       29.263 -20.626   8.141  0.00  0.00    -0.274 N 
ATOM     12  C   LIG    1       29.895 -19.572   8.751  0.00  0.00    +0.303 C 
ATOM     13  O   LIG    1       29.383 -18.437   8.938  0.00  0.00    -0.253 OA
ATOM     14  N   LIG    1       31.162 -19.777   9.206  0.00  0.00    -0.299 N 
ATOM     15  H   LIG    1       31.638 -18.929   9.507  0.00  0.00    +0.150 HD
ATOM     16  C   LIG    1       31.884 -21.016   9.133  0.00  0.00    +0.107 C 
ATOM     17  C   LIG    1       30.902 -22.154   9.207  0.00  0.00    +0.038 C 
ATOM     18  C   LIG    1       29.908 -21.942   8.081  0.00  0.00    +0.112 C 
ENDBRANCH  10  11
BRANCH  10  19
ATOM     19  C   LIG    1       28.079 -20.202   5.906  0.00  0.00    +0.012 C 
ATOM     20  C   LIG    1       26.776 -19.717   5.256  0.00  0.00    +0.009 C 
ATOM     21  C   LIG    1       29.140 -19.126   5.568  0.00  0.00    +0.009 C 
ENDBRANCH  10  19
ENDBRANCH   8  10
ENDBRANCH   5   6
BRANCH   5  22
ATOM     22  C   LIG    1       24.121 -23.117   6.458  0.00  0.00    +0.057 C 
BRANCH  22  23
ATOM     23  C   LIG    1       23.942 -21.790   5.740  0.00  0.00    -0.046 A 
ATOM     24  C   LIG    1       24.219 -21.641   4.374  0.00  0.00    +0.003 A 
ATOM     25  C   LIG    1       23.750 -20.536   3.659  0.00  0.00    +0.000 A 
ATOM     26  C   LIG    1       22.988 -19.563   4.295  0.00  0.00    +0.000 A 
ATOM     27  C   LIG    1       22.754 -19.661   5.663  0.00  0.00    +0.000 A 
ATOM     28  C   LIG    1       23.248 -20.752   6.386  0.00  0.00    +0.003 A 
ENDBRANCH  22  23
ENDBRANCH   5  22
ENDBRANCH   4   5
ENDBRANCH   1   4
BRANCH   1  29
ATOM     29  C   LIG    1       25.442 -27.347   6.214  0.00  0.00    +0.106 C 
BRANCH  29  31
ATOM     30  C   LIG    1       25.886 -28.397   8.610  0.00  0.00    +0.251 C 
ATOM     31  N   LIG    1       26.254 -27.712   7.448  0.00  0.00    -0.307 N 
ATOM     32  H   LIG    1       27.204 -27.368   7.444  0.00  0.00    +0.149 HD
ATOM     33  O   LIG    1       24.755 -28.837   8.779  0.00  0.00    -0.272 OA
BRANCH  30  34
ATOM     34  C   LIG    1       27.053 -28.626   9.686  0.00  0.00    +0.324 C 
BRANCH  34  35
ATOM     35  O   LIG    1       27.386 -29.956  10.103  0.00  0.00    -0.482 OA
BRANCH  35  38
ATOM     36  C   LIG    1       25.519 -29.896  12.620  0.00  0.00    +0.048 C 
ATOM     37  C   LIG    1       25.531 -30.909  11.516  0.00  0.00    -0.009 A 
ATOM     38  C   LIG    1       26.426 -30.912  10.422  0.00  0.00    +0.127 A 
ATOM     39  C   LIG    1       26.254 -31.951   9.459  0.00  0.00    -0.009 A 
ATOM     40  C   LIG    1       27.092 -32.040   8.212  0.00  0.00    +0.048 C 
ATOM     41  C   LIG    1       25.234 -32.927   9.593  0.00  0.00    +0.007 A 
ATOM     42  C   LIG    1       24.349 -32.887  10.652  0.00  0.00    +0.001 A 
ATOM     43  C   LIG    1       24.496 -31.883  11.597  0.00  0.00    +0.007 A 
ENDBRANCH  35  38
ENDBRANCH  34  35
ENDBRANCH  30  34
ENDBRANCH  29  31
BRANCH  29  44
ATOM     44  C   LIG    1       24.241 -28.308   5.866  0.00  0.00    +0.060 C 
BRANCH  44  45
ATOM     45  C   LIG    1       24.587 -29.804   5.697  0.00  0.00    -0.045 A 
ATOM     46  C   LIG    1       25.701 -30.240   4.955  0.00  0.00    +0.003 A 
ATOM     47  C   LIG    1       25.942 -31.610   4.736  0.00  0.00    +0.000 A 
ATOM     48  C   LIG    1       25.096 -32.573   5.280  0.00  0.00    +0.000 A 
ATOM     49  C   LIG    1       24.020 -32.166   6.061  0.00  0.00    +0.000 A 
ATOM     50  C   LIG    1       23.769 -30.798   6.268  0.00  0.00    +0.003 A 
ENDBRANCH  44  45
ENDBRANCH  29  44
ENDBRANCH   1  29
TORSDOF 16
ENDMDL
MODEL 7
REMARK VINA RESULT:      -7.7      1.394      2.277
REMARK  Name = *****
REMARK                            x       y       z     vdW  Elec       q    Type
REMARK                         _______ _______ _______ _____ _____    ______ ____
ROOT
ATOM      1  C   LIG    1       25.217 -25.704   6.126  0.00  0.00    +0.137 C 
ENDROOT
BRANCH   1   2
ATOM      2  O   LIG    1       25.546 -25.538   4.757  0.00  0.00    -0.390 OA
ATOM      3  H   LIG    1       24.806 -25.067   4.325  0.00  0.00    +0.210 HD
ENDBRANCH   1   2
BRANCH   1   4
ATOM      4  C   LIG    1       26.319 -26.520   6.820  0.00  0.00    +0.056 C 
BRANCH   4   5
ATOM      5  C   LIG    1       25.952 -27.997   7.084  0.00  0.00    +0.080 C 
BRANCH   5   6
ATOM      6  N   LIG    1       25.547 -28.146   8.488  0.00  0.00    -0.310 N 
ATOM      7  H   LIG    1       24.627 -27.817   8.743  0.00  0.00    +0.149 HD
ATOM      8  C   LIG    1       26.322 -28.794   9.437  0.00  0.00    +0.234 C 
ATOM      9  O   LIG    1       27.423 -29.245   9.117  0.00  0.00    -0.274 OA
BRANCH   8  10
ATOM     10  C   LIG    1       25.649 -28.935  10.874  0.00  0.00    +0.166 C 
BRANCH  10  11
ATOM     11  N   LIG    1       24.731 -30.110  10.994  0.00  0.00    -0.274 N 
ATOM     12  C   LIG    1       25.145 -31.398  10.767  0.00  0.00    +0.303 C 
ATOM     13  O   LIG    1       26.341 -31.750  10.599  0.00  0.00    -0.253 OA
ATOM     14  N   LIG    1       24.191 -32.370  10.745  0.00  0.00    -0.299 N 
ATOM     15  H   LIG    1       24.526 -33.275  10.422  0.00  0.00    +0.150 HD
ATOM     16  C   LIG    1       22.787 -32.167  10.972  0.00  0.00    +0.107 C 
ATOM     17  C   LIG    1       22.613 -31.012  11.922  0.00  0.00    +0.038 C 
ATOM     18  C   LIG    1       23.324 -29.826  11.297  0.00  0.00    +0.112 C 
ENDBRANCH  10  11
BRANCH  10  19
ATOM     19  C   LIG    1       26.572 -28.735  12.132  0.00  0.00    +0.012 C 
ATOM     20  C   LIG    1       28.000 -29.260  11.934  0.00  0.00    +0.009 C 
ATOM     21  C   LIG    1       26.726 -27.253  12.553  0.00  0.00    +0.009 C 
ENDBRANCH  10  19
ENDBRANCH   8  10
ENDBRANCH   5   6
BRANCH   5  22
ATOM     22  C   LIG    1       24.946 -28.650   6.099  0.00  0.00    +0.057 C 
BRANCH  22  23
ATOM     23  C   LIG    1       24.829 -30.159   5.964  0.00  0.00    -0.046 A 
ATOM     24  C   LIG    1       25.605 -30.884   5.050  0.00  0.00    +0.003 A 
ATOM     25  C   LIG    1       25.735 -32.272   5.155  0.00  0.00    +0.000 A 
ATOM     26  C   LIG    1       25.099 -32.958   6.184  0.00  0.00    +0.000 A 
ATOM     27  C   LIG    1       24.276 -32.265   7.065  0.00  0.00    +0.000 A 
ATOM     28  C   LIG    1       24.120 -30.879   6.942  0.00  0.00    +0.003 A 
ENDBRANCH  22  23
ENDBRANCH   5  22
ENDBRANCH   4   5
ENDBRANCH   1   4
BRANCH   1  29
ATOM     29  C   LIG    1       24.892 -24.351   6.840  0.00  0.00    +0.106 C 
BRANCH  29  31
ATOM     30  C   LIG    1       26.543 -22.368   7.462  0.00  0.00    +0.251 C 
ATOM     31  N   LIG    1       25.888 -23.230   6.577  0.00  0.00    -0.307 N 
ATOM     32  H   LIG    1       26.076 -23.054   5.601  0.00  0.00    +0.149 HD
ATOM     33  O   LIG    1       26.382 -22.431   8.675  0.00  0.00    -0.272 OA
BRANCH  30  34
ATOM     34  C   LIG    1       27.566 -21.328   6.796  0.00  0.00    +0.324 C 
BRANCH  34  35
ATOM     35  O   LIG    1       28.978 -21.517   6.956  0.00  0.00    -0.482 OA
BRANCH  35  38
ATOM     36  C   LIG    1       30.895 -22.054   9.377  0.00  0.00    +0.048 C 
ATOM     37  C   LIG    1       30.716 -20.774   8.621  0.00  0.00    -0.009 A 
ATOM     38  C   LIG    1       29.804 -20.573   7.560  0.00  0.00    +0.127 A 
ATOM     39  C   LIG    1       29.807 -19.283   6.950  0.00  0.00    -0.009 A 
ATOM     40  C   LIG    1       28.934 -18.948   5.770  0.00  0.00    +0.048 C 
ATOM     41  C   LIG    1       30.685 -18.258   7.384  0.00  0.00    +0.007 A 
ATOM     42  C   LIG    1       31.592 -18.484   8.400  0.00  0.00    +0.001 A 
ATOM     43  C   LIG    1       31.609 -19.732   9.003  0.00  0.00    +0.007 A 
ENDBRANCH  35  38
ENDBRANCH  34  35
ENDBRANCH  30  34
ENDBRANCH  29  31
BRANCH  29  44
ATOM     44  C   LIG    1       23.368 -23.961   6.734  0.00  0.00    +0.060 C 
BRANCH  44  45
ATOM     45  C   LIG    1       23.059 -22.483   6.406  0.00  0.00    -0.045 A 
ATOM     46  C   LIG    1       22.489 -22.087   5.181  0.00  0.00    +0.003 A 
ATOM     47  C   LIG    1       22.302 -20.727   4.867  0.00  0.00    +0.000 A 
ATOM     48  C   LIG    1       22.650 -19.737   5.782  0.00  0.00    +0.000 A 
ATOM     49  C   LIG    1       23.165 -20.108   7.019  0.00  0.00    +0.000 A 
ATOM     50  C   LIG    1       23.366 -21.464   7.328  0.00  0.00    +0.003 A 
ENDBRANCH  44  45
ENDBRANCH  29  44
ENDBRANCH   1  29
TORSDOF 16
ENDMDL
MODEL 8
REMARK VINA RESULT:      -7.3      1.778      4.146
REMARK  Name = *****
REMARK                            x       y       z     vdW  Elec       q    Type
REMARK                         _______ _______ _______ _____ _____    ______ ____
ROOT
ATOM      1  C   LIG    1       25.406 -26.069   5.996  0.00  0.00    +0.137 C 
ENDROOT
BRANCH   1   2
ATOM      2  O   LIG    1       25.852 -25.846   4.669  0.00  0.00    -0.390 OA
ATOM      3  H   LIG    1       25.064 -25.784   4.094  0.00  0.00    +0.210 HD
ENDBRANCH   1   2
BRANCH   1   4
ATOM      4  C   LIG    1       26.373 -27.032   6.703  0.00  0.00    +0.056 C 
BRANCH   4   5
ATOM      5  C   LIG    1       25.735 -27.861   7.841  0.00  0.00    +0.080 C 
BRANCH   5   6
ATOM      6  N   LIG    1       25.939 -29.289   7.565  0.00  0.00    -0.310 N 
ATOM      7  H   LIG    1       26.868 -29.660   7.698  0.00  0.00    +0.149 HD
ATOM      8  C   LIG    1       24.907 -30.151   7.228  0.00  0.00    +0.234 C 
ATOM      9  O   LIG    1       23.761 -29.713   7.116  0.00  0.00    -0.274 OA
BRANCH   8  10
ATOM     10  C   LIG    1       25.330 -31.679   7.073  0.00  0.00    +0.166 C 
BRANCH  10  11
ATOM     11  N   LIG    1       25.110 -32.226   5.698  0.00  0.00    -0.274 N 
ATOM     12  C   LIG    1       23.988 -32.937   5.355  0.00  0.00    +0.303 C 
ATOM     13  O   LIG    1       22.971 -33.070   6.084  0.00  0.00    -0.253 OA
ATOM     14  N   LIG    1       23.967 -33.525   4.127  0.00  0.00    -0.299 N 
ATOM     15  H   LIG    1       23.188 -34.163   3.984  0.00  0.00    +0.150 HD
ATOM     16  C   LIG    1       25.009 -33.436   3.142  0.00  0.00    +0.107 C 
ATOM     17  C   LIG    1       25.703 -32.108   3.291  0.00  0.00    +0.038 C 
ATOM     18  C   LIG    1       26.191 -32.034   4.725  0.00  0.00    +0.112 C 
ENDBRANCH  10  11
BRANCH  10  19
ATOM     19  C   LIG    1       26.700 -32.123   7.707  0.00  0.00    +0.012 C 
ATOM     20  C   LIG    1       26.724 -32.033   9.239  0.00  0.00    +0.009 C 
ATOM     21  C   LIG    1       27.090 -33.584   7.368  0.00  0.00    +0.009 C 
ENDBRANCH  10  19
ENDBRANCH   8  10
ENDBRANCH   5   6
BRANCH   5  22
ATOM     22  C   LIG    1       26.131 -27.470   9.290  0.00  0.00    +0.057 C 
BRANCH  22  23
ATOM     23  C   LIG    1       26.432 -28.522  10.343  0.00  0.00    -0.046 A 
ATOM     24  C   LIG    1       27.731 -28.751  10.814  0.00  0.00    +0.003 A 
ATOM     25  C   LIG    1       27.957 -29.468  11.992  0.00  0.00    +0.000 A 
ATOM     26  C   LIG    1       26.885 -29.963  12.726  0.00  0.00    +0.000 A 
ATOM     27  C   LIG    1       25.590 -29.800  12.244  0.00  0.00    +0.000 A 
ATOM     28  C   LIG    1       25.365 -29.108  11.049  0.00  0.00    +0.003 A 
ENDBRANCH  22  23
ENDBRANCH   5  22
ENDBRANCH   4   5
ENDBRANCH   1   4
BRANCH   1  29
ATOM     29  C   LIG    1       25.152 -24.742   6.783  0.00  0.00    +0.106 C 
BRANCH  29  31
ATOM     30  C   LIG    1       26.657 -22.629   7.342  0.00  0.00    +0.251 C 
ATOM     31  N   LIG    1       26.153 -23.629   6.506  0.00  0.00    -0.307 N 
ATOM     32  H   LIG    1       26.477 -23.583   5.550  0.00  0.00    +0.149 HD
ATOM     33  O   LIG    1       26.324 -22.530   8.517  0.00  0.00    -0.272 OA
BRANCH  30  34
ATOM     34  C   LIG    1       27.744 -21.650   6.685  0.00  0.00    +0.324 C 
BRANCH  34  35
ATOM     35  O   LIG    1       29.124 -21.769   7.055  0.00  0.00    -0.482 OA
BRANCH  35  38
ATOM     36  C   LIG    1       30.971 -22.116   9.563  0.00  0.00    +0.048 C 
ATOM     37  C   LIG    1       30.706 -20.860   8.791  0.00  0.00    -0.009 A 
ATOM     38  C   LIG    1       29.828 -20.750   7.690  0.00  0.00    +0.127 A 
ATOM     39  C   LIG    1       29.736 -19.466   7.072  0.00  0.00    -0.009 A 
ATOM     40  C   LIG    1       28.890 -19.219   5.851  0.00  0.00    +0.048 C 
ATOM     41  C   LIG    1       30.492 -18.361   7.539  0.00  0.00    +0.007 A 
ATOM     42  C   LIG    1       31.369 -18.497   8.596  0.00  0.00    +0.001 A 
ATOM     43  C   LIG    1       31.477 -19.736   9.207  0.00  0.00    +0.007 A 
ENDBRANCH  35  38
ENDBRANCH  34  35
ENDBRANCH  30  34
ENDBRANCH  29  31
BRANCH  29  44
ATOM     44  C   LIG    1       23.633 -24.321   6.786  0.00  0.00    +0.060 C 
BRANCH  44  45
ATOM     45  C   LIG    1       23.332 -22.833   6.497  0.00  0.00    -0.045 A 
ATOM     46  C   LIG    1       23.150 -22.342   5.190  0.00  0.00    +0.003 A 
ATOM     47  C   LIG    1       22.970 -20.966   4.945  0.00  0.00    +0.000 A 
ATOM     48  C   LIG    1       22.936 -20.059   6.000  0.00  0.00    +0.000 A 
ATOM     49  C   LIG    1       23.060 -20.529   7.303  0.00  0.00    +0.000 A 
ATOM     50  C   LIG    1       23.254 -21.900   7.549  0.00  0.00    +0.003 A 
ENDBRANCH  44  45
ENDBRANCH  29  44
ENDBRANCH   1  29
TORSDOF 16
ENDMDL
MODEL 9
REMARK VINA RESULT:      -7.2      3.260      7.165
REMARK  Name = *****
REMARK                            x       y       z     vdW  Elec       q    Type
REMARK                         _______ _______ _______ _____ _____    ______ ____
ROOT
ATOM      1  C   LIG    1       24.844 -29.443   8.905  0.00  0.00    +0.137 C 
ENDROOT
BRANCH   1   2
ATOM      2  O   LIG    1       23.867 -29.235   7.900  0.00  0.00    -0.390 OA
ATOM      3  H   LIG    1       23.410 -28.393   8.095  0.00  0.00    +0.210 HD
ENDBRANCH   1   2
BRANCH   1   4
ATOM      4  C   LIG    1       24.844 -30.924   9.316  0.00  0.00    +0.056 C 
BRANCH   4   5
ATOM      5  C   LIG    1       24.338 -31.190  10.751  0.00  0.00    +0.080 C 
BRANCH   5   6
ATOM      6  N   LIG    1       23.165 -30.344  11.010  0.00  0.00    -0.310 N 
ATOM      7  H   LIG    1       22.495 -30.237  10.263  0.00  0.00    +0.149 HD
ATOM      8  C   LIG    1       22.897 -29.775  12.245  0.00  0.00    +0.234 C 
ATOM      9  O   LIG    1       23.686 -29.946  13.177  0.00  0.00    -0.274 OA
BRANCH   8  10
ATOM     10  C   LIG    1       21.520 -28.980  12.337  0.00  0.00    +0.166 C 
BRANCH  10  11
ATOM     11  N   LIG    1       20.326 -29.866  12.502  0.00  0.00    -0.274 N 
ATOM     12  C   LIG    1       19.716 -30.492  11.444  0.00  0.00    +0.303 C 
ATOM     13  O   LIG    1       20.170 -30.527  10.271  0.00  0.00    -0.253 OA
ATOM     14  N   LIG    1       18.544 -31.140  11.688  0.00  0.00    -0.299 N 
ATOM     15  H   LIG    1       18.058 -31.451  10.850  0.00  0.00    +0.150 HD
ATOM     16  C   LIG    1       17.905 -31.255  12.970  0.00  0.00    +0.107 C 
ATOM     17  C   LIG    1       18.965 -31.260  14.040  0.00  0.00    +0.038 C 
ATOM     18  C   LIG    1       19.772 -29.989  13.855  0.00  0.00    +0.112 C 
ENDBRANCH  10  11
BRANCH  10  19
ATOM     19  C   LIG    1       21.477 -27.701  13.252  0.00  0.00    +0.012 C 
ATOM     20  C   LIG    1       22.774 -26.881  13.220  0.00  0.00    +0.009 C 
ATOM     21  C   LIG    1       20.347 -26.711  12.873  0.00  0.00    +0.009 C 
ENDBRANCH  10  19
ENDBRANCH   8  10
ENDBRANCH   5   6
BRANCH   5  22
ATOM     22  C   LIG    1       24.101 -32.674  11.140  0.00  0.00    +0.057 C 
BRANCH  22  23
ATOM     23  C   LIG    1       24.244 -33.153  12.575  0.00  0.00    -0.046 A 
ATOM     24  C   LIG    1       25.438 -33.003  13.292  0.00  0.00    +0.003 A 
ATOM     25  C   LIG    1       25.467 -33.137  14.683  0.00  0.00    +0.000 A 
ATOM     26  C   LIG    1       24.299 -33.416  15.383  0.00  0.00    +0.000 A 
ATOM     27  C   LIG    1       23.115 -33.629  14.685  0.00  0.00    +0.000 A 
ATOM     28  C   LIG    1       23.091 -33.524  13.290  0.00  0.00    +0.003 A 
ENDBRANCH  22  23
ENDBRANCH   5  22
ENDBRANCH   4   5
ENDBRANCH   1   4
BRANCH   1  29
ATOM     29  C   LIG    1       26.255 -28.903   8.501  0.00  0.00    +0.106 C 
BRANCH  29  31
ATOM     30  C   LIG    1       25.898 -27.066   6.619  0.00  0.00    +0.251 C 
ATOM     31  N   LIG    1       26.260 -27.506   7.896  0.00  0.00    -0.307 N 
ATOM     32  H   LIG    1       26.620 -26.785   8.504  0.00  0.00    +0.149 HD
ATOM     33  O   LIG    1       25.484 -27.831   5.757  0.00  0.00    -0.272 OA
BRANCH  30  34
ATOM     34  C   LIG    1       26.004 -25.485   6.369  0.00  0.00    +0.324 C 
BRANCH  34  35
ATOM     35  O   LIG    1       25.833 -24.578   7.465  0.00  0.00    -0.482 OA
BRANCH  35  38
ATOM     36  C   LIG    1       27.452 -21.920   7.839  0.00  0.00    +0.048 C 
ATOM     37  C   LIG    1       26.021 -22.066   7.423  0.00  0.00    -0.009 A 
ATOM     38  C   LIG    1       25.325 -23.291   7.310  0.00  0.00    +0.127 A 
ATOM     39  C   LIG    1       23.970 -23.218   6.870  0.00  0.00    -0.009 A 
ATOM     40  C   LIG    1       23.129 -24.446   6.643  0.00  0.00    +0.048 C 
ATOM     41  C   LIG    1       23.356 -21.978   6.557  0.00  0.00    +0.007 A 
ATOM     42  C   LIG    1       24.062 -20.795   6.643  0.00  0.00    +0.001 A 
ATOM     43  C   LIG    1       25.382 -20.845   7.064  0.00  0.00    +0.007 A 
ENDBRANCH  35  38
ENDBRANCH  34  35
ENDBRANCH  30  34
ENDBRANCH  29  31
BRANCH  29  44
ATOM     44  C   LIG    1       27.349 -29.183   9.602  0.00  0.00    +0.060 C 
BRANCH  44  45
ATOM     45  C   LIG    1       27.012 -28.722  11.037  0.00  0.00    -0.045 A 
ATOM     46  C   LIG    1       26.622 -27.401  11.331  0.00  0.00    +0.003 A 
ATOM     47  C   LIG    1       26.411 -26.980  12.659  0.00  0.00    +0.000 A 
ATOM     48  C   LIG    1       26.553 -27.876  13.716  0.00  0.00    +0.000 A 
ATOM     49  C   LIG    1       26.885 -29.198  13.443  0.00  0.00    +0.000 A 
ATOM     50  C   LIG    1       27.111 -29.617  12.120  0.00  0.00    +0.003 A 
ENDBRANCH  44  45
ENDBRANCH  29  44
ENDBRANCH   1  29
TORSDOF 16
ENDMDL
