MODEL 1
REMARK VINA RESULT:      -8.3      0.000      0.000
REMARK  Name = *****
REMARK                            x       y       z     vdW  Elec       q    Type
REMARK                         _______ _______ _______ _____ _____    ______ ____
ROOT
ATOM      1  C   LIG    1       25.621 -22.483   6.238  0.00  0.00    +0.050 C 
ATOM      2  C   LIG    1       25.398 -21.568   7.459  0.00  0.00    +0.065 C 
ATOM      3  C   LIG    1       24.039 -20.985   7.134  0.00  0.00    +0.140 C 
ATOM      4  O   LIG    1       23.300 -20.473   7.967  0.00  0.00    -0.297 OA
ATOM      5  C   LIG    1       23.685 -21.093   5.673  0.00  0.00    +0.106 C 
ATOM      6  C   LIG    1       24.920 -21.760   5.073  0.00  0.00    +0.129 C 
ENDROOT
BRANCH   6   7
ATOM      7  O   LIG    1       25.776 -20.770   4.509  0.00  0.00    -0.391 OA
ATOM      8  H   LIG    1       26.424 -20.516   5.190  0.00  0.00    +0.210 HD
ENDBRANCH   6   7
BRANCH   1  10
ATOM      9  C   LIG    1       24.845 -24.761   5.501  0.00  0.00    -0.028 C 
ATOM     10  C   LIG    1       25.008 -23.850   6.475  0.00  0.00    -0.024 C 
BRANCH   9  11
ATOM     11  C   LIG    1       24.297 -26.147   5.729  0.00  0.00    +0.061 C 
BRANCH  11  12
ATOM     12  C   LIG    1       25.365 -27.275   5.770  0.00  0.00    +0.067 C 
ATOM     13  C   LIG    1       25.955 -27.354   7.186  0.00  0.00    +0.041 C 
BRANCH  12  14
ATOM     14  O   LIG    1       26.448 -26.920   4.891  0.00  0.00    -0.389 OA
ATOM     15  H   LIG    1       26.420 -25.961   4.736  0.00  0.00    +0.210 HD
ENDBRANCH  12  14
BRANCH  12  16
ATOM     16  C   LIG    1       24.862 -28.659   5.288  0.00  0.00    +0.035 C 
BRANCH  16  17
ATOM     17  C   LIG    1       24.290 -29.590   6.368  0.00  0.00    +0.002 C 
BRANCH  17  19
ATOM     18  C   LIG    1       25.885 -31.377   5.488  0.00  0.00    +0.004 C 
ATOM     19  C   LIG    1       24.480 -31.068   5.994  0.00  0.00    -0.003 C 
ENDBRANCH  17  19
ENDBRANCH  16  17
ENDBRANCH  12  16
ENDBRANCH  11  12
ENDBRANCH   9  11
ENDBRANCH   1  10
BRANCH   2  20
ATOM     20  C   LIG    1       26.390 -20.408   7.622  0.00  0.00    +0.011 C 
BRANCH  20  21
ATOM     21  C   LIG    1       27.843 -20.856   7.831  0.00  0.00    +0.001 C 
BRANCH  21  22
ATOM     22  C   LIG    1       28.702 -20.773   6.558  0.00  0.00    +0.000 C 
BRANCH  22  23
ATOM     23  C   LIG    1       29.163 -19.352   6.229  0.00  0.00    +0.000 C 
BRANCH  23  24
ATOM     24  C   LIG    1       29.788 -18.648   7.443  0.00  0.00    +0.011 C 
BRANCH  24  25
ATOM     25  C   LIG    1       31.215 -19.116   7.755  0.00  0.00    +0.120 C 
BRANCH  25  26
ATOM     26  C   LIG    1       31.473 -19.553   9.197  0.00  0.00    +0.307 C 
ATOM     27  O   LIG    1       31.148 -18.887  10.152  0.00  0.00    -0.251 OA
BRANCH  26  28
ATOM     28  O   LIG    1       32.120 -20.754   9.247  0.00  0.00    -0.468 OA
ATOM     29  C   LIG    1       31.311 -21.900   9.006  0.00  0.00    +0.280 C 
ENDBRANCH  26  28
ENDBRANCH  25  26
ENDBRANCH  24  25
ENDBRANCH  23  24
ENDBRANCH  22  23
ENDBRANCH  21  22
ENDBRANCH  20  21
ENDBRANCH   2  20
TORSDOF 16
ENDMDL
MODEL 2
REMARK VINA RESULT:      -8.3      1.389      1.926
REMARK  Name = *****
REMARK                            x       y       z     vdW  Elec       q    Type
REMARK                         _______ _______ _______ _____ _____    ______ ____
ROOT
ATOM      1  C   LIG    1       25.288 -22.562   6.115  0.00  0.00    +0.050 C 
ATOM      2  C   LIG    1       25.221 -21.711   7.398  0.00  0.00    +0.065 C 
ATOM      3  C   LIG    1       23.998 -20.865   7.115  0.00  0.00    +0.140 C 
ATOM      4  O   LIG    1       23.355 -20.285   7.983  0.00  0.00    -0.297 OA
ATOM      5  C   LIG    1       23.651 -20.801   5.650  0.00  0.00    +0.106 C 
ATOM      6  C   LIG    1       24.750 -21.641   5.004  0.00  0.00    +0.129 C 
ENDROOT
BRANCH   6   7
ATOM      7  O   LIG    1       25.781 -20.789   4.514  0.00  0.00    -0.391 OA
ATOM      8  H   LIG    1       25.711 -19.939   4.984  0.00  0.00    +0.210 HD
ENDBRANCH   6   7
BRANCH   1  10
ATOM      9  C   LIG    1       24.841 -25.026   5.872  0.00  0.00    -0.028 C 
ATOM     10  C   LIG    1       24.431 -23.805   6.251  0.00  0.00    -0.024 C 
BRANCH   9  11
ATOM     11  C   LIG    1       24.029 -26.283   6.058  0.00  0.00    +0.061 C 
BRANCH  11  12
ATOM     12  C   LIG    1       24.806 -27.607   5.818  0.00  0.00    +0.067 C 
ATOM     13  C   LIG    1       26.002 -27.325   4.897  0.00  0.00    +0.041 C 
BRANCH  12  14
ATOM     14  O   LIG    1       23.952 -28.527   5.116  0.00  0.00    -0.389 OA
ATOM     15  H   LIG    1       23.057 -28.469   5.493  0.00  0.00    +0.210 HD
ENDBRANCH  12  14
BRANCH  12  16
ATOM     16  C   LIG    1       25.247 -28.339   7.111  0.00  0.00    +0.035 C 
BRANCH  16  17
ATOM     17  C   LIG    1       24.710 -29.766   7.302  0.00  0.00    +0.002 C 
BRANCH  17  19
ATOM     18  C   LIG    1       23.438 -30.305   9.447  0.00  0.00    +0.004 C 
ATOM     19  C   LIG    1       24.802 -30.209   8.770  0.00  0.00    -0.003 C 
ENDBRANCH  17  19
ENDBRANCH  16  17
ENDBRANCH  12  16
ENDBRANCH  11  12
ENDBRANCH   9  11
ENDBRANCH   1  10
BRANCH   2  20
ATOM     20  C   LIG    1       26.408 -20.769   7.646  0.00  0.00    +0.011 C 
BRANCH  20  21
ATOM     21  C   LIG    1       27.714 -21.492   8.000  0.00  0.00    +0.001 C 
BRANCH  21  22
ATOM     22  C   LIG    1       28.895 -21.111   7.091  0.00  0.00    +0.000 C 
BRANCH  22  23
ATOM     23  C   LIG    1       28.687 -19.790   6.349  0.00  0.00    +0.000 C 
BRANCH  23  24
ATOM     24  C   LIG    1       29.783 -18.762   6.674  0.00  0.00    +0.011 C 
BRANCH  24  25
ATOM     25  C   LIG    1       30.053 -18.610   8.176  0.00  0.00    +0.120 C 
BRANCH  25  26
ATOM     26  C   LIG    1       31.520 -18.677   8.600  0.00  0.00    +0.307 C 
ATOM     27  O   LIG    1       32.008 -19.654   9.118  0.00  0.00    -0.251 OA
BRANCH  26  28
ATOM     28  O   LIG    1       32.171 -17.507   8.335  0.00  0.00    -0.468 OA
ATOM     29  C   LIG    1       32.111 -16.523   9.361  0.00  0.00    +0.280 C 
ENDBRANCH  26  28
ENDBRANCH  25  26
ENDBRANCH  24  25
ENDBRANCH  23  24
ENDBRANCH  22  23
ENDBRANCH  21  22
ENDBRANCH  20  21
ENDBRANCH   2  20
TORSDOF 16
ENDMDL
MODEL 3
REMARK VINA RESULT:      -8.0      1.904      2.630
REMARK  Name = *****
REMARK                            x       y       z     vdW  Elec       q    Type
REMARK                         _______ _______ _______ _____ _____    ______ ____
ROOT
ATOM      1  C   LIG    1       25.930 -22.196   6.469  0.00  0.00    +0.050 C 
ATOM      2  C   LIG    1       26.801 -21.444   7.495  0.00  0.00    +0.065 C 
ATOM      3  C   LIG    1       25.735 -20.813   8.366  0.00  0.00    +0.140 C 
ATOM      4  O   LIG    1       25.937 -20.406   9.504  0.00  0.00    -0.297 OA
ATOM      5  C   LIG    1       24.392 -20.729   7.686  0.00  0.00    +0.106 C 
ATOM      6  C   LIG    1       24.672 -21.324   6.308  0.00  0.00    +0.129 C 
ENDROOT
BRANCH   6   7
ATOM      7  O   LIG    1       24.903 -20.277   5.370  0.00  0.00    -0.391 OA
ATOM      8  H   LIG    1       24.066 -20.110   4.900  0.00  0.00    +0.210 HD
ENDBRANCH   6   7
BRANCH   1  10
ATOM      9  C   LIG    1       25.875 -24.708   6.326  0.00  0.00    -0.028 C 
ATOM     10  C   LIG    1       25.571 -23.577   6.983  0.00  0.00    -0.024 C 
BRANCH   9  11
ATOM     11  C   LIG    1       25.583 -26.092   6.850  0.00  0.00    +0.061 C 
BRANCH  11  12
ATOM     12  C   LIG    1       24.802 -27.011   5.871  0.00  0.00    +0.067 C 
ATOM     13  C   LIG    1       25.718 -27.385   4.697  0.00  0.00    +0.041 C 
BRANCH  12  14
ATOM     14  O   LIG    1       23.701 -26.270   5.316  0.00  0.00    -0.389 OA
ATOM     15  H   LIG    1       22.902 -26.823   5.359  0.00  0.00    +0.210 HD
ENDBRANCH  12  14
BRANCH  12  16
ATOM     16  C   LIG    1       24.179 -28.270   6.527  0.00  0.00    +0.035 C 
BRANCH  16  17
ATOM     17  C   LIG    1       25.165 -29.350   6.998  0.00  0.00    +0.002 C 
BRANCH  17  19
ATOM     18  C   LIG    1       26.269 -28.832   9.239  0.00  0.00    +0.004 C 
ATOM     19  C   LIG    1       25.117 -29.529   8.523  0.00  0.00    -0.003 C 
ENDBRANCH  17  19
ENDBRANCH  16  17
ENDBRANCH  12  16
ENDBRANCH  11  12
ENDBRANCH   9  11
ENDBRANCH   1  10
BRANCH   2  20
ATOM     20  C   LIG    1       27.687 -20.323   6.935  0.00  0.00    +0.011 C 
BRANCH  20  21
ATOM     21  C   LIG    1       29.191 -20.617   7.018  0.00  0.00    +0.001 C 
BRANCH  21  22
ATOM     22  C   LIG    1       30.073 -19.463   6.513  0.00  0.00    +0.000 C 
BRANCH  22  23
ATOM     23  C   LIG    1       31.259 -19.160   7.431  0.00  0.00    +0.000 C 
BRANCH  23  24
ATOM     24  C   LIG    1       30.835 -19.011   8.900  0.00  0.00    +0.011 C 
BRANCH  24  25
ATOM     25  C   LIG    1       30.171 -17.664   9.211  0.00  0.00    +0.120 C 
BRANCH  25  26
ATOM     26  C   LIG    1       31.041 -16.645   9.947  0.00  0.00    +0.307 C 
ATOM     27  O   LIG    1       32.017 -16.135   9.449  0.00  0.00    -0.251 OA
BRANCH  26  28
ATOM     28  O   LIG    1       30.581 -16.418  11.212  0.00  0.00    -0.468 OA
ATOM     29  C   LIG    1       31.578 -16.149  12.191  0.00  0.00    +0.280 C 
ENDBRANCH  26  28
ENDBRANCH  25  26
ENDBRANCH  24  25
ENDBRANCH  23  24
ENDBRANCH  22  23
ENDBRANCH  21  22
ENDBRANCH  20  21
ENDBRANCH   2  20
TORSDOF 16
ENDMDL
MODEL 4
REMARK VINA RESULT:      -7.8      1.750      9.023
REMARK  Name = *****
REMARK                            x       y       z     vdW  Elec       q    Type
REMARK                         _______ _______ _______ _____ _____    ______ ____
ROOT
ATOM      1  C   LIG    1       25.259 -21.435   7.208  0.00  0.00    +0.050 C 
ATOM      2  C   LIG    1       25.277 -22.089   5.812  0.00  0.00    +0.065 C 
ATOM      3  C   LIG    1       24.343 -21.169   5.054  0.00  0.00    +0.140 C 
ATOM      4  O   LIG    1       24.313 -21.084   3.832  0.00  0.00    -0.297 OA
ATOM      5  C   LIG    1       23.443 -20.367   5.959  0.00  0.00    +0.106 C 
ATOM      6  C   LIG    1       23.841 -20.853   7.350  0.00  0.00    +0.129 C 
ENDROOT
BRANCH   6   7
ATOM      7  O   LIG    1       22.928 -21.855   7.789  0.00  0.00    -0.391 OA
ATOM      8  H   LIG    1       22.159 -21.838   7.192  0.00  0.00    +0.210 HD
ENDBRANCH   6   7
BRANCH   1  10
ATOM      9  C   LIG    1       27.483 -20.501   7.925  0.00  0.00    -0.028 C 
ATOM     10  C   LIG    1       26.305 -20.341   7.300  0.00  0.00    -0.024 C 
BRANCH   9  11
ATOM     11  C   LIG    1       28.561 -19.448   7.973  0.00  0.00    +0.061 C 
BRANCH  11  12
ATOM     12  C   LIG    1       29.656 -19.582   6.878  0.00  0.00    +0.067 C 
ATOM     13  C   LIG    1       29.330 -18.622   5.724  0.00  0.00    +0.041 C 
BRANCH  12  14
ATOM     14  O   LIG    1       29.607 -20.913   6.333  0.00  0.00    -0.389 OA
ATOM     15  H   LIG    1       30.014 -21.524   6.971  0.00  0.00    +0.210 HD
ENDBRANCH  12  14
BRANCH  12  16
ATOM     16  C   LIG    1       31.106 -19.385   7.388  0.00  0.00    +0.035 C 
BRANCH  16  17
ATOM     17  C   LIG    1       31.278 -19.228   8.906  0.00  0.00    +0.002 C 
BRANCH  17  19
ATOM     18  C   LIG    1       30.511 -17.181  10.221  0.00  0.00    +0.004 C 
ATOM     19  C   LIG    1       31.567 -17.769   9.292  0.00  0.00    -0.003 C 
ENDBRANCH  17  19
ENDBRANCH  16  17
ENDBRANCH  12  16
ENDBRANCH  11  12
ENDBRANCH   9  11
ENDBRANCH   1  10
BRANCH   2  20
ATOM     20  C   LIG    1       24.716 -23.516   5.728  0.00  0.00    +0.011 C 
BRANCH  20  21
ATOM     21  C   LIG    1       25.147 -24.423   6.888  0.00  0.00    +0.001 C 
BRANCH  21  22
ATOM     22  C   LIG    1       25.993 -25.629   6.446  0.00  0.00    +0.000 C 
BRANCH  22  23
ATOM     23  C   LIG    1       25.573 -26.200   5.091  0.00  0.00    +0.000 C 
BRANCH  23  24
ATOM     24  C   LIG    1       25.618 -27.736   5.068  0.00  0.00    +0.011 C 
BRANCH  24  25
ATOM     25  C   LIG    1       24.589 -28.393   5.996  0.00  0.00    +0.120 C 
BRANCH  25  26
ATOM     26  C   LIG    1       24.415 -29.903   5.837  0.00  0.00    +0.307 C 
ATOM     27  O   LIG    1       23.368 -30.468   6.049  0.00  0.00    -0.251 OA
BRANCH  26  28
ATOM     28  O   LIG    1       25.579 -30.502   5.452  0.00  0.00    -0.468 OA
ATOM     29  C   LIG    1       25.825 -31.788   6.010  0.00  0.00    +0.280 C 
ENDBRANCH  26  28
ENDBRANCH  25  26
ENDBRANCH  24  25
ENDBRANCH  23  24
ENDBRANCH  22  23
ENDBRANCH  21  22
ENDBRANCH  20  21
ENDBRANCH   2  20
TORSDOF 16
ENDMDL
MODEL 5
REMARK VINA RESULT:      -7.4      2.351      8.424
REMARK  Name = *****
REMARK                            x       y       z     vdW  Elec       q    Type
REMARK                         _______ _______ _______ _____ _____    ______ ____
ROOT
ATOM      1  C   LIG    1       25.175 -21.558   7.254  0.00  0.00    +0.050 C 
ATOM      2  C   LIG    1       25.222 -22.190   5.849  0.00  0.00    +0.065 C 
ATOM      3  C   LIG    1       24.284 -21.273   5.092  0.00  0.00    +0.140 C 
ATOM      4  O   LIG    1       24.270 -21.169   3.871  0.00  0.00    -0.297 OA
ATOM      5  C   LIG    1       23.359 -20.499   5.996  0.00  0.00    +0.106 C 
ATOM      6  C   LIG    1       23.746 -21.000   7.386  0.00  0.00    +0.129 C 
ENDROOT
BRANCH   6   7
ATOM      7  O   LIG    1       22.843 -22.024   7.796  0.00  0.00    -0.391 OA
ATOM      8  H   LIG    1       21.940 -21.661   7.743  0.00  0.00    +0.210 HD
ENDBRANCH   6   7
BRANCH   1  10
ATOM      9  C   LIG    1       27.402 -20.622   7.955  0.00  0.00    -0.028 C 
ATOM     10  C   LIG    1       26.202 -20.450   7.377  0.00  0.00    -0.024 C 
BRANCH   9  11
ATOM     11  C   LIG    1       28.462 -19.551   8.030  0.00  0.00    +0.061 C 
BRANCH  11  12
ATOM     12  C   LIG    1       29.663 -19.750   7.065  0.00  0.00    +0.067 C 
ATOM     13  C   LIG    1       29.619 -18.664   5.980  0.00  0.00    +0.041 C 
BRANCH  12  14
ATOM     14  O   LIG    1       29.515 -21.013   6.392  0.00  0.00    -0.389 OA
ATOM     15  H   LIG    1       29.310 -20.843   5.457  0.00  0.00    +0.210 HD
ENDBRANCH  12  14
BRANCH  12  16
ATOM     16  C   LIG    1       31.048 -19.799   7.760  0.00  0.00    +0.035 C 
BRANCH  16  17
ATOM     17  C   LIG    1       31.671 -18.445   8.134  0.00  0.00    +0.002 C 
BRANCH  17  19
ATOM     18  C   LIG    1       30.437 -17.107   9.923  0.00  0.00    +0.004 C 
ATOM     19  C   LIG    1       31.514 -18.148   9.633  0.00  0.00    -0.003 C 
ENDBRANCH  17  19
ENDBRANCH  16  17
ENDBRANCH  12  16
ENDBRANCH  11  12
ENDBRANCH   9  11
ENDBRANCH   1  10
BRANCH   2  20
ATOM     20  C   LIG    1       24.685 -23.624   5.735  0.00  0.00    +0.011 C 
BRANCH  20  21
ATOM     21  C   LIG    1       25.476 -24.652   6.554  0.00  0.00    +0.001 C 
BRANCH  21  22
ATOM     22  C   LIG    1       25.843 -25.919   5.763  0.00  0.00    +0.000 C 
BRANCH  22  23
ATOM     23  C   LIG    1       25.453 -27.214   6.477  0.00  0.00    +0.000 C 
BRANCH  23  24
ATOM     24  C   LIG    1       26.229 -27.411   7.789  0.00  0.00    +0.011 C 
BRANCH  24  25
ATOM     25  C   LIG    1       25.893 -28.724   8.507  0.00  0.00    +0.120 C 
BRANCH  25  26
ATOM     26  C   LIG    1       26.666 -28.995   9.798  0.00  0.00    +0.307 C 
ATOM     27  O   LIG    1       27.643 -29.705   9.840  0.00  0.00    -0.251 OA
BRANCH  26  28
ATOM     28  O   LIG    1       26.100 -28.355  10.862  0.00  0.00    -0.468 OA
ATOM     29  C   LIG    1       27.003 -27.666  11.719  0.00  0.00    +0.280 C 
ENDBRANCH  26  28
ENDBRANCH  25  26
ENDBRANCH  24  25
ENDBRANCH  23  24
ENDBRANCH  22  23
ENDBRANCH  21  22
ENDBRANCH  20  21
ENDBRANCH   2  20
TORSDOF 16
ENDMDL
MODEL 6
REMARK VINA RESULT:      -7.0      3.030      9.150
REMARK  Name = *****
REMARK                            x       y       z     vdW  Elec       q    Type
REMARK                         _______ _______ _______ _____ _____    ______ ____
ROOT
ATOM      1  C   LIG    1       24.838 -25.860   6.573  0.00  0.00    +0.050 C 
ATOM      2  C   LIG    1       26.168 -26.578   6.875  0.00  0.00    +0.065 C 
ATOM      3  C   LIG    1       26.680 -26.830   5.472  0.00  0.00    +0.140 C 
ATOM      4  O   LIG    1       27.854 -27.066   5.207  0.00  0.00    -0.297 OA
ATOM      5  C   LIG    1       25.596 -26.767   4.428  0.00  0.00    +0.106 C 
ATOM      6  C   LIG    1       24.344 -26.485   5.255  0.00  0.00    +0.129 C 
ENDROOT
BRANCH   6   7
ATOM      7  O   LIG    1       23.649 -27.703   5.507  0.00  0.00    -0.391 OA
ATOM      8  H   LIG    1       24.230 -28.437   5.236  0.00  0.00    +0.210 HD
ENDBRANCH   6   7
BRANCH   1  10
ATOM      9  C   LIG    1       26.010 -23.692   7.081  0.00  0.00    -0.028 C 
ATOM     10  C   LIG    1       25.060 -24.368   6.415  0.00  0.00    -0.024 C 
BRANCH   9  11
ATOM     11  C   LIG    1       26.288 -22.221   6.890  0.00  0.00    +0.061 C 
BRANCH  11  12
ATOM     12  C   LIG    1       25.744 -21.301   8.018  0.00  0.00    +0.067 C 
ATOM     13  C   LIG    1       26.846 -20.317   8.436  0.00  0.00    +0.041 C 
BRANCH  12  14
ATOM     14  O   LIG    1       25.450 -22.107   9.174  0.00  0.00    -0.389 OA
ATOM     15  H   LIG    1       24.722 -21.689   9.665  0.00  0.00    +0.210 HD
ENDBRANCH  12  14
BRANCH  12  16
ATOM     16  C   LIG    1       24.428 -20.562   7.669  0.00  0.00    +0.035 C 
BRANCH  16  17
ATOM     17  C   LIG    1       23.232 -21.447   7.282  0.00  0.00    +0.002 C 
BRANCH  17  19
ATOM     18  C   LIG    1       22.709 -19.793   5.411  0.00  0.00    +0.004 C 
ATOM     19  C   LIG    1       22.848 -21.259   5.806  0.00  0.00    -0.003 C 
ENDBRANCH  17  19
ENDBRANCH  16  17
ENDBRANCH  12  16
ENDBRANCH  11  12
ENDBRANCH   9  11
ENDBRANCH   1  10
BRANCH   2  20
ATOM     20  C   LIG    1       26.057 -27.930   7.593  0.00  0.00    +0.011 C 
BRANCH  20  21
ATOM     21  C   LIG    1       26.562 -27.908   9.042  0.00  0.00    +0.001 C 
BRANCH  21  22
ATOM     22  C   LIG    1       26.622 -29.300   9.694  0.00  0.00    +0.000 C 
BRANCH  22  23
ATOM     23  C   LIG    1       25.245 -29.931   9.906  0.00  0.00    +0.000 C 
BRANCH  23  24
ATOM     24  C   LIG    1       25.223 -31.420   9.528  0.00  0.00    +0.011 C 
BRANCH  24  25
ATOM     25  C   LIG    1       24.205 -31.759   8.431  0.00  0.00    +0.120 C 
BRANCH  25  26
ATOM     26  C   LIG    1       24.472 -31.139   7.060  0.00  0.00    +0.307 C 
ATOM     27  O   LIG    1       23.684 -30.409   6.506  0.00  0.00    -0.251 OA
BRANCH  26  28
ATOM     28  O   LIG    1       25.681 -31.530   6.562  0.00  0.00    -0.468 OA
ATOM     29  C   LIG    1       25.772 -32.894   6.166  0.00  0.00    +0.280 C 
ENDBRANCH  26  28
ENDBRANCH  25  26
ENDBRANCH  24  25
ENDBRANCH  23  24
ENDBRANCH  22  23
ENDBRANCH  21  22
ENDBRANCH  20  21
ENDBRANCH   2  20
TORSDOF 16
ENDMDL
MODEL 7
REMARK VINA RESULT:      -7.0      3.733      9.099
REMARK  Name = *****
REMARK                            x       y       z     vdW  Elec       q    Type
REMARK                         _______ _______ _______ _____ _____    ______ ____
ROOT
ATOM      1  C   LIG    1       24.148 -26.108   5.592  0.00  0.00    +0.050 C 
ATOM      2  C   LIG    1       24.375 -27.392   6.415  0.00  0.00    +0.065 C 
ATOM      3  C   LIG    1       25.751 -27.124   6.987  0.00  0.00    +0.140 C 
ATOM      4  O   LIG    1       26.204 -27.700   7.970  0.00  0.00    -0.297 OA
ATOM      5  C   LIG    1       26.515 -26.076   6.220  0.00  0.00    +0.106 C 
ATOM      6  C   LIG    1       25.549 -25.706   5.097  0.00  0.00    +0.129 C 
ENDROOT
BRANCH   6   7
ATOM      7  O   LIG    1       25.889 -26.424   3.915  0.00  0.00    -0.391 OA
ATOM      8  H   LIG    1       26.860 -26.414   3.831  0.00  0.00    +0.210 HD
ENDBRANCH   6   7
BRANCH   1  10
ATOM      9  C   LIG    1       23.958 -23.741   6.423  0.00  0.00    -0.028 C 
ATOM     10  C   LIG    1       23.545 -25.018   6.458  0.00  0.00    -0.024 C 
BRANCH   9  11
ATOM     11  C   LIG    1       23.329 -22.631   7.228  0.00  0.00    +0.061 C 
BRANCH  11  12
ATOM     12  C   LIG    1       23.749 -21.196   6.804  0.00  0.00    +0.067 C 
ATOM     13  C   LIG    1       25.272 -21.155   6.618  0.00  0.00    +0.041 C 
BRANCH  12  14
ATOM     14  O   LIG    1       23.440 -20.286   7.875  0.00  0.00    -0.389 OA
ATOM     15  H   LIG    1       22.511 -20.417   8.135  0.00  0.00    +0.210 HD
ENDBRANCH  12  14
BRANCH  12  16
ATOM     16  C   LIG    1       23.010 -20.650   5.556  0.00  0.00    +0.035 C 
BRANCH  16  17
ATOM     17  C   LIG    1       23.895 -20.201   4.383  0.00  0.00    +0.002 C 
BRANCH  17  19
ATOM     18  C   LIG    1       22.228 -18.277   4.549  0.00  0.00    +0.004 C 
ATOM     19  C   LIG    1       23.404 -18.875   3.784  0.00  0.00    -0.003 C 
ENDBRANCH  17  19
ENDBRANCH  16  17
ENDBRANCH  12  16
ENDBRANCH  11  12
ENDBRANCH   9  11
ENDBRANCH   1  10
BRANCH   2  20
ATOM     20  C   LIG    1       24.435 -28.703   5.617  0.00  0.00    +0.011 C 
BRANCH  20  21
ATOM     21  C   LIG    1       24.159 -29.956   6.457  0.00  0.00    +0.001 C 
BRANCH  21  22
ATOM     22  C   LIG    1       25.304 -30.984   6.425  0.00  0.00    +0.000 C 
BRANCH  22  23
ATOM     23  C   LIG    1       25.010 -32.244   7.241  0.00  0.00    +0.000 C 
BRANCH  23  24
ATOM     24  C   LIG    1       25.574 -32.157   8.668  0.00  0.00    +0.011 C 
BRANCH  24  25
ATOM     25  C   LIG    1       26.829 -31.282   8.778  0.00  0.00    +0.120 C 
BRANCH  25  26
ATOM     26  C   LIG    1       26.911 -30.386  10.014  0.00  0.00    +0.307 C 
ATOM     27  O   LIG    1       27.952 -30.140  10.578  0.00  0.00    -0.251 OA
BRANCH  26  28
ATOM     28  O   LIG    1       25.678 -29.934  10.385  0.00  0.00    -0.468 OA
ATOM     29  C   LIG    1       25.661 -29.005  11.463  0.00  0.00    +0.280 C 
ENDBRANCH  26  28
ENDBRANCH  25  26
ENDBRANCH  24  25
ENDBRANCH  23  24
ENDBRANCH  22  23
ENDBRANCH  21  22
ENDBRANCH  20  21
ENDBRANCH   2  20
TORSDOF 16
ENDMDL
MODEL 8
REMARK VINA RESULT:      -6.9      3.061      9.422
REMARK  Name = *****
REMARK                            x       y       z     vdW  Elec       q    Type
REMARK                         _______ _______ _______ _____ _____    ______ ____
ROOT
ATOM      1  C   LIG    1       24.666 -25.832   6.704  0.00  0.00    +0.050 C 
ATOM      2  C   LIG    1       25.986 -26.565   7.017  0.00  0.00    +0.065 C 
ATOM      3  C   LIG    1       26.637 -26.575   5.650  0.00  0.00    +0.140 C 
ATOM      4  O   LIG    1       27.838 -26.742   5.468  0.00  0.00    -0.297 OA
ATOM      5  C   LIG    1       25.655 -26.363   4.527  0.00  0.00    +0.106 C 
ATOM      6  C   LIG    1       24.321 -26.244   5.261  0.00  0.00    +0.129 C 
ENDROOT
BRANCH   6   7
ATOM      7  O   LIG    1       23.649 -27.500   5.244  0.00  0.00    -0.391 OA
ATOM      8  H   LIG    1       24.032 -28.050   5.950  0.00  0.00    +0.210 HD
ENDBRANCH   6   7
BRANCH   1  10
ATOM      9  C   LIG    1       23.826 -23.462   6.778  0.00  0.00    -0.028 C 
ATOM     10  C   LIG    1       24.849 -24.331   6.810  0.00  0.00    -0.024 C 
BRANCH   9  11
ATOM     11  C   LIG    1       23.981 -21.971   6.946  0.00  0.00    +0.061 C 
BRANCH  11  12
ATOM     12  C   LIG    1       24.088 -21.170   5.619  0.00  0.00    +0.067 C 
ATOM     13  C   LIG    1       22.908 -20.191   5.529  0.00  0.00    +0.041 C 
BRANCH  12  14
ATOM     14  O   LIG    1       23.952 -22.082   4.514  0.00  0.00    -0.389 OA
ATOM     15  H   LIG    1       24.443 -21.723   3.755  0.00  0.00    +0.210 HD
ENDBRANCH  12  14
BRANCH  12  16
ATOM     16  C   LIG    1       25.442 -20.446   5.409  0.00  0.00    +0.035 C 
BRANCH  16  17
ATOM     17  C   LIG    1       26.459 -20.559   6.556  0.00  0.00    +0.002 C 
BRANCH  17  19
ATOM     18  C   LIG    1       28.789 -19.733   7.189  0.00  0.00    +0.004 C 
ATOM     19  C   LIG    1       27.885 -20.251   6.075  0.00  0.00    -0.003 C 
ENDBRANCH  17  19
ENDBRANCH  16  17
ENDBRANCH  12  16
ENDBRANCH  11  12
ENDBRANCH   9  11
ENDBRANCH   1  10
BRANCH   2  20
ATOM     20  C   LIG    1       25.855 -28.018   7.495  0.00  0.00    +0.011 C 
BRANCH  20  21
ATOM     21  C   LIG    1       26.402 -28.260   8.908  0.00  0.00    +0.001 C 
BRANCH  21  22
ATOM     22  C   LIG    1       26.276 -29.720   9.375  0.00  0.00    +0.000 C 
BRANCH  22  23
ATOM     23  C   LIG    1       24.831 -30.154   9.627  0.00  0.00    +0.000 C 
BRANCH  23  24
ATOM     24  C   LIG    1       24.489 -31.475   8.920  0.00  0.00    +0.011 C 
BRANCH  24  25
ATOM     25  C   LIG    1       24.984 -31.540   7.470  0.00  0.00    +0.120 C 
BRANCH  25  26
ATOM     26  C   LIG    1       23.931 -31.277   6.393  0.00  0.00    +0.307 C 
ATOM     27  O   LIG    1       23.581 -30.165   6.076  0.00  0.00    -0.251 OA
BRANCH  26  28
ATOM     28  O   LIG    1       23.448 -32.443   5.873  0.00  0.00    -0.468 OA
ATOM     29  C   LIG    1       24.427 -33.349   5.376  0.00  0.00    +0.280 C 
ENDBRANCH  26  28
ENDBRANCH  25  26
ENDBRANCH  24  25
ENDBRANCH  23  24
ENDBRANCH  22  23
ENDBRANCH  21  22
ENDBRANCH  20  21
ENDBRANCH   2  20
TORSDOF 16
ENDMDL
MODEL 9
REMARK VINA RESULT:      -6.9      3.175      5.469
REMARK  Name = *****
REMARK                            x       y       z     vdW  Elec       q    Type
REMARK                         _______ _______ _______ _____ _____    ______ ____
ROOT
ATOM      1  C   LIG    1       25.209 -22.163   7.715  0.00  0.00    +0.050 C 
ATOM      2  C   LIG    1       24.653 -21.446   6.468  0.00  0.00    +0.065 C 
ATOM      3  C   LIG    1       25.859 -20.631   6.047  0.00  0.00    +0.140 C 
ATOM      4  O   LIG    1       26.009 -20.169   4.922  0.00  0.00    -0.297 OA
ATOM      5  C   LIG    1       26.859 -20.440   7.159  0.00  0.00    +0.106 C 
ATOM      6  C   LIG    1       26.203 -21.162   8.333  0.00  0.00    +0.129 C 
ENDROOT
BRANCH   6   7
ATOM      7  O   LIG    1       25.521 -20.221   9.157  0.00  0.00    -0.391 OA
ATOM      8  H   LIG    1       24.894 -20.715   9.714  0.00  0.00    +0.210 HD
ENDBRANCH   6   7
BRANCH   1  10
ATOM      9  C   LIG    1       25.251 -24.558   6.945  0.00  0.00    -0.028 C 
ATOM     10  C   LIG    1       25.909 -23.450   7.324  0.00  0.00    -0.024 C 
BRANCH   9  11
ATOM     11  C   LIG    1       25.929 -25.827   6.492  0.00  0.00    +0.061 C 
BRANCH  11  12
ATOM     12  C   LIG    1       25.009 -26.828   5.740  0.00  0.00    +0.067 C 
ATOM     13  C   LIG    1       25.680 -27.229   4.418  0.00  0.00    +0.041 C 
BRANCH  12  14
ATOM     14  O   LIG    1       23.781 -26.162   5.394  0.00  0.00    -0.389 OA
ATOM     15  H   LIG    1       23.779 -25.282   5.810  0.00  0.00    +0.210 HD
ENDBRANCH  12  14
BRANCH  12  16
ATOM     16  C   LIG    1       24.598 -28.072   6.567  0.00  0.00    +0.035 C 
BRANCH  16  17
ATOM     17  C   LIG    1       24.277 -29.345   5.769  0.00  0.00    +0.002 C 
BRANCH  17  19
ATOM     18  C   LIG    1       25.689 -31.331   5.009  0.00  0.00    +0.004 C 
ATOM     19  C   LIG    1       25.177 -30.517   6.193  0.00  0.00    -0.003 C 
ENDBRANCH  17  19
ENDBRANCH  16  17
ENDBRANCH  12  16
ENDBRANCH  11  12
ENDBRANCH   9  11
ENDBRANCH   1  10
BRANCH   2  20
ATOM     20  C   LIG    1       23.484 -20.480   6.710  0.00  0.00    +0.011 C 
BRANCH  20  21
ATOM     21  C   LIG    1       22.541 -20.332   5.509  0.00  0.00    +0.001 C 
BRANCH  21  22
ATOM     22  C   LIG    1       22.342 -18.875   5.059  0.00  0.00    +0.000 C 
BRANCH  22  23
ATOM     23  C   LIG    1       23.069 -18.537   3.757  0.00  0.00    +0.000 C 
BRANCH  23  24
ATOM     24  C   LIG    1       24.062 -17.376   3.929  0.00  0.00    +0.011 C 
BRANCH  24  25
ATOM     25  C   LIG    1       23.389 -16.041   4.270  0.00  0.00    +0.120 C 
BRANCH  25  26
ATOM     26  C   LIG    1       24.242 -14.791   4.059  0.00  0.00    +0.307 C 
ATOM     27  O   LIG    1       23.826 -13.672   4.252  0.00  0.00    -0.251 OA
BRANCH  26  28
ATOM     28  O   LIG    1       25.493 -15.109   3.616  0.00  0.00    -0.468 OA
ATOM     29  C   LIG    1       26.304 -14.010   3.214  0.00  0.00    +0.280 C 
ENDBRANCH  26  28
ENDBRANCH  25  26
ENDBRANCH  24  25
ENDBRANCH  23  24
ENDBRANCH  22  23
ENDBRANCH  21  22
ENDBRANCH  20  21
ENDBRANCH   2  20
TORSDOF 16
ENDMDL
