MODEL 1
REMARK VINA RESULT:      -5.5      0.000      0.000
REMARK  Name = *****
REMARK                            x       y       z     vdW  Elec       q    Type
REMARK                         _______ _______ _______ _____ _____    ______ ____
ROOT
ATOM      1  N   LIG    1       25.033 -29.125   6.426  0.00  0.00    -0.297 NA
ATOM      2  C   LIG    1       25.827 -30.238   5.868  0.00  0.00    +0.100 C 
ATOM      3  C   LIG    1       24.919 -31.354   5.340  0.00  0.00    +0.100 C 
ATOM      4  N   LIG    1       25.733 -32.475   4.805  0.00  0.00    -0.290 NA
ATOM      5  C   LIG    1       25.372 -33.712   5.563  0.00  0.00    +0.100 C 
ATOM      6  C   LIG    1       26.095 -33.766   6.943  0.00  0.00    +0.100 C 
ATOM      7  N   LIG    1       25.403 -33.074   8.049  0.00  0.00    -0.290 NA
ATOM      8  C   LIG    1       26.369 -32.671   9.096  0.00  0.00    +0.100 C 
ATOM      9  C   LIG    1       25.910 -31.599  10.133  0.00  0.00    +0.100 C 
ATOM     10  N   LIG    1       26.219 -30.184   9.755  0.00  0.00    -0.290 NA
ATOM     11  C   LIG    1       25.127 -29.705   8.853  0.00  0.00    +0.100 C 
ATOM     12  C   LIG    1       25.617 -28.751   7.735  0.00  0.00    +0.100 C 
ENDROOT
BRANCH   1  13
ATOM     13  C   LIG    1       25.018 -27.958   5.522  0.00  0.00    +0.115 C 
BRANCH  13  15
ATOM     14  C   LIG    1       25.893 -25.641   6.172  0.00  0.00    +0.039 C 
ATOM     15  C   LIG    1       24.690 -26.578   6.144  0.00  0.00    +0.125 C 
BRANCH  15  16
ATOM     16  O   LIG    1       23.650 -25.957   5.381  0.00  0.00    -0.391 OA
ATOM     17  H   LIG    1       23.811 -24.999   5.359  0.00  0.00    +0.210 HD
ENDBRANCH  15  16
ENDBRANCH  13  15
ENDBRANCH   1  13
BRANCH   4  18
ATOM     18  C   LIG    1       25.464 -32.665   3.350  0.00  0.00    +0.205 C 
BRANCH  18  19
ATOM     19  C   LIG    1       26.686 -33.054   2.530  0.00  0.00    +0.319 C 
ATOM     20  O   LIG    1       27.710 -33.496   3.010  0.00  0.00    -0.250 OA
BRANCH  19  21
ATOM     21  O   LIG    1       26.593 -32.813   1.189  0.00  0.00    -0.480 OA
ATOM     22  H   LIG    1       26.440 -31.862   1.023  0.00  0.00    +0.295 HD
ENDBRANCH  19  21
ENDBRANCH  18  19
ENDBRANCH   4  18
BRANCH   7  23
ATOM     23  C   LIG    1       24.232 -33.825   8.575  0.00  0.00    +0.205 C 
BRANCH  23  24
ATOM     24  C   LIG    1       22.876 -33.190   8.312  0.00  0.00    +0.319 C 
ATOM     25  O   LIG    1       22.463 -32.184   8.897  0.00  0.00    -0.250 OA
BRANCH  24  26
ATOM     26  O   LIG    1       22.128 -33.824   7.386  0.00  0.00    -0.480 OA
ATOM     27  H   LIG    1       21.410 -33.279   7.006  0.00  0.00    +0.295 HD
ENDBRANCH  24  26
ENDBRANCH  23  24
ENDBRANCH   7  23
BRANCH  10  28
ATOM     28  C   LIG    1       26.246 -29.349  11.005  0.00  0.00    +0.205 C 
BRANCH  28  29
ATOM     29  C   LIG    1       27.672 -28.954  11.392  0.00  0.00    +0.319 C 
ATOM     30  O   LIG    1       28.656 -29.707  11.368  0.00  0.00    -0.250 OA
BRANCH  29  31
ATOM     31  O   LIG    1       27.755 -27.657  11.796  0.00  0.00    -0.480 OA
ATOM     32  H   LIG    1       26.835 -27.321  11.962  0.00  0.00    +0.295 HD
ENDBRANCH  29  31
ENDBRANCH  28  29
ENDBRANCH  10  28
TORSDOF 12
ENDMDL
MODEL 2
REMARK VINA RESULT:      -5.1      1.923      2.241
REMARK  Name = *****
REMARK                            x       y       z     vdW  Elec       q    Type
REMARK                         _______ _______ _______ _____ _____    ______ ____
ROOT
ATOM      1  N   LIG    1       25.159 -29.309   7.873  0.00  0.00    -0.297 NA
ATOM      2  C   LIG    1       25.322 -30.721   7.476  0.00  0.00    +0.100 C 
ATOM      3  C   LIG    1       23.965 -31.379   7.202  0.00  0.00    +0.100 C 
ATOM      4  N   LIG    1       24.145 -32.805   6.828  0.00  0.00    -0.290 NA
ATOM      5  C   LIG    1       23.389 -33.640   7.810  0.00  0.00    +0.100 C 
ATOM      6  C   LIG    1       24.186 -33.825   9.137  0.00  0.00    +0.100 C 
ATOM      7  N   LIG    1       24.003 -32.757  10.141  0.00  0.00    -0.290 NA
ATOM      8  C   LIG    1       25.173 -32.688  11.046  0.00  0.00    +0.100 C 
ATOM      9  C   LIG    1       25.353 -31.396  11.903  0.00  0.00    +0.100 C 
ATOM     10  N   LIG    1       26.188 -30.329  11.265  0.00  0.00    -0.290 NA
ATOM     11  C   LIG    1       25.302 -29.541  10.355  0.00  0.00    +0.100 C 
ATOM     12  C   LIG    1       26.008 -29.062   9.062  0.00  0.00    +0.100 C 
ENDROOT
BRANCH   1  13
ATOM     13  C   LIG    1       25.532 -28.389   6.780  0.00  0.00    +0.115 C 
BRANCH  13  15
ATOM     14  C   LIG    1       24.828 -26.399   5.330  0.00  0.00    +0.039 C 
ATOM     15  C   LIG    1       24.381 -27.687   6.016  0.00  0.00    +0.125 C 
BRANCH  15  16
ATOM     16  O   LIG    1       23.871 -28.578   5.018  0.00  0.00    -0.391 OA
ATOM     17  H   LIG    1       23.820 -28.101   4.173  0.00  0.00    +0.210 HD
ENDBRANCH  15  16
ENDBRANCH  13  15
ENDBRANCH   1  13
BRANCH   4  18
ATOM     18  C   LIG    1       23.640 -33.048   5.446  0.00  0.00    +0.205 C 
BRANCH  18  19
ATOM     19  C   LIG    1       24.727 -33.146   4.387  0.00  0.00    +0.319 C 
ATOM     20  O   LIG    1       25.897 -32.891   4.592  0.00  0.00    -0.250 OA
BRANCH  19  21
ATOM     21  O   LIG    1       24.298 -33.486   3.135  0.00  0.00    -0.480 OA
ATOM     22  H   LIG    1       23.325 -33.578   3.122  0.00  0.00    +0.295 HD
ENDBRANCH  19  21
ENDBRANCH  18  19
ENDBRANCH   4  18
BRANCH   7  23
ATOM     23  C   LIG    1       22.701 -32.833  10.854  0.00  0.00    +0.205 C 
BRANCH  23  24
ATOM     24  C   LIG    1       21.609 -31.920  10.319  0.00  0.00    +0.319 C 
ATOM     25  O   LIG    1       21.808 -30.766   9.927  0.00  0.00    -0.250 OA
BRANCH  24  26
ATOM     26  O   LIG    1       20.373 -32.462  10.318  0.00  0.00    -0.480 OA
ATOM     27  H   LIG    1       20.265 -33.217   9.707  0.00  0.00    +0.295 HD
ENDBRANCH  24  26
ENDBRANCH  23  24
ENDBRANCH   7  23
BRANCH  10  28
ATOM     28  C   LIG    1       26.727 -29.434  12.346  0.00  0.00    +0.205 C 
BRANCH  28  29
ATOM     29  C   LIG    1       28.250 -29.307  12.269  0.00  0.00    +0.319 C 
ATOM     30  O   LIG    1       28.944 -29.589  11.281  0.00  0.00    -0.250 OA
BRANCH  29  31
ATOM     31  O   LIG    1       28.789 -28.859  13.436  0.00  0.00    -0.480 OA
ATOM     32  H   LIG    1       29.778 -28.931  13.373  0.00  0.00    +0.295 HD
ENDBRANCH  29  31
ENDBRANCH  28  29
ENDBRANCH  10  28
TORSDOF 12
ENDMDL
MODEL 3
REMARK VINA RESULT:      -5.0      2.649      3.587
REMARK  Name = *****
REMARK                            x       y       z     vdW  Elec       q    Type
REMARK                         _______ _______ _______ _____ _____    ______ ____
ROOT
ATOM      1  N   LIG    1       25.940 -28.588   9.157  0.00  0.00    -0.297 NA
ATOM      2  C   LIG    1       25.851 -29.999   8.734  0.00  0.00    +0.100 C 
ATOM      3  C   LIG    1       24.417 -30.367   8.335  0.00  0.00    +0.100 C 
ATOM      4  N   LIG    1       24.340 -31.796   7.936  0.00  0.00    -0.290 NA
ATOM      5  C   LIG    1       23.354 -32.473   8.830  0.00  0.00    +0.100 C 
ATOM      6  C   LIG    1       23.985 -32.831  10.210  0.00  0.00    +0.100 C 
ATOM      7  N   LIG    1       23.936 -31.760  11.227  0.00  0.00    -0.290 NA
ATOM      8  C   LIG    1       25.017 -31.939  12.223  0.00  0.00    +0.100 C 
ATOM      9  C   LIG    1       25.378 -30.720  13.128  0.00  0.00    +0.100 C 
ATOM     10  N   LIG    1       26.459 -29.835  12.589  0.00  0.00    -0.290 NA
ATOM     11  C   LIG    1       25.827 -28.874  11.635  0.00  0.00    +0.100 C 
ATOM     12  C   LIG    1       26.719 -28.530  10.416  0.00  0.00    +0.100 C 
ENDROOT
BRANCH   1  13
ATOM     13  C   LIG    1       26.578 -27.747   8.123  0.00  0.00    +0.115 C 
BRANCH  13  15
ATOM     14  C   LIG    1       25.682 -25.743   6.806  0.00  0.00    +0.039 C 
ATOM     15  C   LIG    1       25.690 -27.262   6.951  0.00  0.00    +0.125 C 
BRANCH  15  16
ATOM     16  O   LIG    1       26.176 -27.831   5.730  0.00  0.00    -0.391 OA
ATOM     17  H   LIG    1       25.725 -28.679   5.583  0.00  0.00    +0.210 HD
ENDBRANCH  15  16
ENDBRANCH  13  15
ENDBRANCH   1  13
BRANCH   4  18
ATOM     18  C   LIG    1       23.913 -31.915   6.512  0.00  0.00    +0.205 C 
BRANCH  18  19
ATOM     19  C   LIG    1       24.260 -30.712   5.648  0.00  0.00    +0.319 C 
ATOM     20  O   LIG    1       25.362 -30.511   5.178  0.00  0.00    -0.250 OA
BRANCH  19  21
ATOM     21  O   LIG    1       23.254 -29.805   5.473  0.00  0.00    -0.480 OA
ATOM     22  H   LIG    1       22.864 -29.559   6.335  0.00  0.00    +0.295 HD
ENDBRANCH  19  21
ENDBRANCH  18  19
ENDBRANCH   4  18
BRANCH   7  23
ATOM     23  C   LIG    1       22.590 -31.582  11.832  0.00  0.00    +0.205 C 
BRANCH  23  24
ATOM     24  C   LIG    1       21.786 -30.405  11.303  0.00  0.00    +0.319 C 
ATOM     25  O   LIG    1       20.976 -30.488  10.375  0.00  0.00    -0.250 OA
BRANCH  24  26
ATOM     26  O   LIG    1       22.035 -29.231  11.919  0.00  0.00    -0.480 OA
ATOM     27  H   LIG    1       22.928 -28.870  11.751  0.00  0.00    +0.295 HD
ENDBRANCH  24  26
ENDBRANCH  23  24
ENDBRANCH   7  23
BRANCH  10  28
ATOM     28  C   LIG    1       27.074 -29.080  13.735  0.00  0.00    +0.205 C 
BRANCH  28  29
ATOM     29  C   LIG    1       28.596 -29.229  13.759  0.00  0.00    +0.319 C 
ATOM     30  O   LIG    1       29.236 -30.146  13.223  0.00  0.00    -0.250 OA
BRANCH  29  31
ATOM     31  O   LIG    1       29.200 -28.235  14.466  0.00  0.00    -0.480 OA
ATOM     32  H   LIG    1       29.101 -27.385  13.960  0.00  0.00    +0.295 HD
ENDBRANCH  29  31
ENDBRANCH  28  29
ENDBRANCH  10  28
TORSDOF 12
ENDMDL
MODEL 4
REMARK VINA RESULT:      -4.9      3.610      6.374
REMARK  Name = *****
REMARK                            x       y       z     vdW  Elec       q    Type
REMARK                         _______ _______ _______ _____ _____    ______ ____
ROOT
ATOM      1  N   LIG    1       24.214 -29.899   9.285  0.00  0.00    -0.297 NA
ATOM      2  C   LIG    1       23.581 -31.045   9.966  0.00  0.00    +0.100 C 
ATOM      3  C   LIG    1       22.115 -30.746  10.303  0.00  0.00    +0.100 C 
ATOM      4  N   LIG    1       21.500 -31.900  11.009  0.00  0.00    -0.290 NA
ATOM      5  C   LIG    1       21.011 -31.421  12.338  0.00  0.00    +0.100 C 
ATOM      6  C   LIG    1       22.172 -31.329  13.374  0.00  0.00    +0.100 C 
ATOM      7  N   LIG    1       22.927 -30.059  13.369  0.00  0.00    -0.290 NA
ATOM      8  C   LIG    1       24.293 -30.263  13.905  0.00  0.00    +0.100 C 
ATOM      9  C   LIG    1       25.357 -29.159  13.618  0.00  0.00    +0.100 C 
ATOM     10  N   LIG    1       26.161 -29.368  12.372  0.00  0.00    -0.290 NA
ATOM     11  C   LIG    1       25.369 -28.831  11.224  0.00  0.00    +0.100 C 
ATOM     12  C   LIG    1       25.529 -29.652   9.920  0.00  0.00    +0.100 C 
ENDROOT
BRANCH   1  13
ATOM     13  C   LIG    1       24.384 -30.149   7.840  0.00  0.00    +0.115 C 
BRANCH  13  15
ATOM     14  C   LIG    1       25.236 -28.226   6.379  0.00  0.00    +0.039 C 
ATOM     15  C   LIG    1       24.015 -28.999   6.869  0.00  0.00    +0.125 C 
BRANCH  15  16
ATOM     16  O   LIG    1       23.340 -29.547   5.731  0.00  0.00    -0.391 OA
ATOM     17  H   LIG    1       22.444 -29.812   6.001  0.00  0.00    +0.210 HD
ENDBRANCH  15  16
ENDBRANCH  13  15
ENDBRANCH   1  13
BRANCH   4  18
ATOM     18  C   LIG    1       20.368 -32.454  10.212  0.00  0.00    +0.205 C 
BRANCH  18  19
ATOM     19  C   LIG    1       19.041 -31.741  10.423  0.00  0.00    +0.319 C 
ATOM     20  O   LIG    1       18.107 -32.216  11.037  0.00  0.00    -0.250 OA
BRANCH  19  21
ATOM     21  O   LIG    1       18.925 -30.525   9.811  0.00  0.00    -0.480 OA
ATOM     22  H   LIG    1       18.155 -30.518   9.210  0.00  0.00    +0.295 HD
ENDBRANCH  19  21
ENDBRANCH  18  19
ENDBRANCH   4  18
BRANCH   7  23
ATOM     23  C   LIG    1       22.196 -28.935  14.012  0.00  0.00    +0.205 C 
BRANCH  23  24
ATOM     24  C   LIG    1       21.848 -27.773  13.096  0.00  0.00    +0.319 C 
ATOM     25  O   LIG    1       22.544 -26.759  12.977  0.00  0.00    -0.250 OA
BRANCH  24  26
ATOM     26  O   LIG    1       20.691 -27.917  12.418  0.00  0.00    -0.480 OA
ATOM     27  H   LIG    1       20.792 -28.306  11.527  0.00  0.00    +0.295 HD
ENDBRANCH  24  26
ENDBRANCH  23  24
ENDBRANCH   7  23
BRANCH  10  28
ATOM     28  C   LIG    1       27.450 -28.604  12.500  0.00  0.00    +0.205 C 
BRANCH  28  29
ATOM     29  C   LIG    1       28.638 -29.535  12.746  0.00  0.00    +0.319 C 
ATOM     30  O   LIG    1       28.725 -30.360  13.667  0.00  0.00    -0.250 OA
BRANCH  29  31
ATOM     31  O   LIG    1       29.634 -29.350  11.835  0.00  0.00    -0.480 OA
ATOM     32  H   LIG    1       30.500 -29.311  12.321  0.00  0.00    +0.295 HD
ENDBRANCH  29  31
ENDBRANCH  28  29
ENDBRANCH  10  28
TORSDOF 12
ENDMDL
MODEL 5
REMARK VINA RESULT:      -4.8      5.120      8.723
REMARK  Name = *****
REMARK                            x       y       z     vdW  Elec       q    Type
REMARK                         _______ _______ _______ _____ _____    ______ ____
ROOT
ATOM      1  N   LIG    1       23.039 -27.450  12.951  0.00  0.00    -0.297 NA
ATOM      2  C   LIG    1       24.043 -27.641  14.016  0.00  0.00    +0.100 C 
ATOM      3  C   LIG    1       25.372 -26.969  13.650  0.00  0.00    +0.100 C 
ATOM      4  N   LIG    1       26.378 -27.191  14.720  0.00  0.00    -0.290 NA
ATOM      5  C   LIG    1       27.550 -27.892  14.114  0.00  0.00    +0.100 C 
ATOM      6  C   LIG    1       27.285 -29.421  13.963  0.00  0.00    +0.100 C 
ATOM      7  N   LIG    1       26.598 -29.826  12.719  0.00  0.00    -0.290 NA
ATOM      8  C   LIG    1       25.885 -31.109  12.913  0.00  0.00    +0.100 C 
ATOM      9  C   LIG    1       24.794 -31.498  11.867  0.00  0.00    +0.100 C 
ATOM     10  N   LIG    1       23.407 -31.044  12.206  0.00  0.00    -0.290 NA
ATOM     11  C   LIG    1       23.267 -29.628  11.750  0.00  0.00    +0.100 C 
ATOM     12  C   LIG    1       22.393 -28.757  12.686  0.00  0.00    +0.100 C 
ENDROOT
BRANCH   1  13
ATOM     13  C   LIG    1       22.025 -26.447  13.331  0.00  0.00    +0.115 C 
BRANCH  13  15
ATOM     14  C   LIG    1       20.059 -26.624  14.962  0.00  0.00    +0.039 C 
ATOM     15  C   LIG    1       20.578 -26.949  13.565  0.00  0.00    +0.125 C 
BRANCH  15  16
ATOM     16  O   LIG    1       19.710 -26.335  12.605  0.00  0.00    -0.391 OA
ATOM     17  H   LIG    1       18.792 -26.433  12.910  0.00  0.00    +0.210 HD
ENDBRANCH  15  16
ENDBRANCH  13  15
ENDBRANCH   1  13
BRANCH   4  18
ATOM     18  C   LIG    1       26.804 -25.890  15.311  0.00  0.00    +0.205 C 
BRANCH  18  19
ATOM     19  C   LIG    1       26.866 -24.738  14.319  0.00  0.00    +0.319 C 
ATOM     20  O   LIG    1       26.004 -23.888  14.213  0.00  0.00    -0.250 OA
BRANCH  19  21
ATOM     21  O   LIG    1       27.945 -24.743  13.481  0.00  0.00    -0.480 OA
ATOM     22  H   LIG    1       28.760 -24.525  13.973  0.00  0.00    +0.295 HD
ENDBRANCH  19  21
ENDBRANCH  18  19
ENDBRANCH   4  18
BRANCH   7  23
ATOM     23  C   LIG    1       27.483 -29.809  11.524  0.00  0.00    +0.205 C 
BRANCH  23  24
ATOM     24  C   LIG    1       27.068 -28.853  10.417  0.00  0.00    +0.319 C 
ATOM     25  O   LIG    1       26.631 -27.715  10.620  0.00  0.00    -0.250 OA
BRANCH  24  26
ATOM     26  O   LIG    1       27.197 -29.347   9.169  0.00  0.00    -0.480 OA
ATOM     27  H   LIG    1       27.854 -30.065   9.086  0.00  0.00    +0.295 HD
ENDBRANCH  24  26
ENDBRANCH  23  24
ENDBRANCH   7  23
BRANCH  10  28
ATOM     28  C   LIG    1       22.426 -31.913  11.468  0.00  0.00    +0.205 C 
BRANCH  28  29
ATOM     29  C   LIG    1       22.029 -31.301  10.124  0.00  0.00    +0.319 C 
ATOM     30  O   LIG    1       22.752 -31.247   9.119  0.00  0.00    -0.250 OA
BRANCH  29  31
ATOM     31  O   LIG    1       20.768 -30.788  10.145  0.00  0.00    -0.480 OA
ATOM     32  H   LIG    1       20.624 -30.275   9.306  0.00  0.00    +0.295 HD
ENDBRANCH  29  31
ENDBRANCH  28  29
ENDBRANCH  10  28
TORSDOF 12
ENDMDL
MODEL 6
REMARK VINA RESULT:      -4.7      2.060      6.122
REMARK  Name = *****
REMARK                            x       y       z     vdW  Elec       q    Type
REMARK                         _______ _______ _______ _____ _____    ______ ____
ROOT
ATOM      1  N   LIG    1       26.573 -29.451   9.852  0.00  0.00    -0.297 NA
ATOM      2  C   LIG    1       25.343 -30.264   9.788  0.00  0.00    +0.100 C 
ATOM      3  C   LIG    1       25.651 -31.697   9.337  0.00  0.00    +0.100 C 
ATOM      4  N   LIG    1       24.401 -32.495   9.255  0.00  0.00    -0.290 NA
ATOM      5  C   LIG    1       24.263 -32.995   7.854  0.00  0.00    +0.100 C 
ATOM      6  C   LIG    1       23.694 -31.895   6.907  0.00  0.00    +0.100 C 
ATOM      7  N   LIG    1       24.697 -30.985   6.317  0.00  0.00    -0.290 NA
ATOM      8  C   LIG    1       24.076 -29.691   5.955  0.00  0.00    +0.100 C 
ATOM      9  C   LIG    1       25.023 -28.479   5.694  0.00  0.00    +0.100 C 
ATOM     10  N   LIG    1       25.313 -27.636   6.898  0.00  0.00    -0.290 NA
ATOM     11  C   LIG    1       26.431 -28.284   7.649  0.00  0.00    +0.100 C 
ATOM     12  C   LIG    1       26.305 -28.154   9.187  0.00  0.00    +0.100 C 
ENDROOT
BRANCH   1  13
ATOM     13  C   LIG    1       27.010 -29.229  11.245  0.00  0.00    +0.115 C 
BRANCH  13  15
ATOM     14  C   LIG    1       25.424 -27.945  12.792  0.00  0.00    +0.039 C 
ATOM     15  C   LIG    1       26.656 -27.868  11.895  0.00  0.00    +0.125 C 
BRANCH  15  16
ATOM     16  O   LIG    1       27.765 -27.426  12.685  0.00  0.00    -0.391 OA
ATOM     17  H   LIG    1       28.470 -28.093  12.630  0.00  0.00    +0.210 HD
ENDBRANCH  15  16
ENDBRANCH  13  15
ENDBRANCH   1  13
BRANCH   4  18
ATOM     18  C   LIG    1       24.451 -33.639  10.210  0.00  0.00    +0.205 C 
BRANCH  18  19
ATOM     19  C   LIG    1       24.789 -33.250  11.641  0.00  0.00    +0.319 C 
ATOM     20  O   LIG    1       25.806 -33.590  12.212  0.00  0.00    -0.250 OA
BRANCH  19  21
ATOM     21  O   LIG    1       23.832 -32.528  12.296  0.00  0.00    -0.480 OA
ATOM     22  H   LIG    1       23.843 -32.734  13.251  0.00  0.00    +0.295 HD
ENDBRANCH  19  21
ENDBRANCH  18  19
ENDBRANCH   4  18
BRANCH   7  23
ATOM     23  C   LIG    1       25.478 -31.603   5.213  0.00  0.00    +0.205 C 
BRANCH  23  24
ATOM     24  C   LIG    1       26.591 -32.543   5.646  0.00  0.00    +0.319 C 
ATOM     25  O   LIG    1       26.763 -33.670   5.170  0.00  0.00    -0.250 OA
BRANCH  24  26
ATOM     26  O   LIG    1       27.388 -32.060   6.622  0.00  0.00    -0.480 OA
ATOM     27  H   LIG    1       27.840 -31.224   6.396  0.00  0.00    +0.295 HD
ENDBRANCH  24  26
ENDBRANCH  23  24
ENDBRANCH   7  23
BRANCH  10  28
ATOM     28  C   LIG    1       25.738 -26.270   6.435  0.00  0.00    +0.205 C 
BRANCH  28  29
ATOM     29  C   LIG    1       24.559 -25.467   5.885  0.00  0.00    +0.319 C 
ATOM     30  O   LIG    1       23.507 -25.228   6.495  0.00  0.00    -0.250 OA
BRANCH  29  31
ATOM     31  O   LIG    1       24.776 -25.041   4.610  0.00  0.00    -0.480 OA
ATOM     32  H   LIG    1       24.204 -25.577   3.999  0.00  0.00    +0.295 HD
ENDBRANCH  29  31
ENDBRANCH  28  29
ENDBRANCH  10  28
TORSDOF 12
ENDMDL
MODEL 7
REMARK VINA RESULT:      -4.6      4.025      6.702
REMARK  Name = *****
REMARK                            x       y       z     vdW  Elec       q    Type
REMARK                         _______ _______ _______ _____ _____    ______ ____
ROOT
ATOM      1  N   LIG    1       21.754 -31.222  10.901  0.00  0.00    -0.297 NA
ATOM      2  C   LIG    1       22.546 -30.464   9.912  0.00  0.00    +0.100 C 
ATOM      3  C   LIG    1       23.820 -31.224   9.524  0.00  0.00    +0.100 C 
ATOM      4  N   LIG    1       24.617 -30.437   8.548  0.00  0.00    -0.290 NA
ATOM      5  C   LIG    1       25.967 -30.196   9.140  0.00  0.00    +0.100 C 
ATOM      6  C   LIG    1       25.941 -29.017  10.160  0.00  0.00    +0.100 C 
ATOM      7  N   LIG    1       25.572 -29.383  11.543  0.00  0.00    -0.290 NA
ATOM      8  C   LIG    1       25.010 -28.214  12.257  0.00  0.00    +0.100 C 
ATOM      9  C   LIG    1       24.207 -28.481  13.568  0.00  0.00    +0.100 C 
ATOM     10  N   LIG    1       22.733 -28.668  13.376  0.00  0.00    -0.290 NA
ATOM     11  C   LIG    1       22.500 -30.096  13.001  0.00  0.00    +0.100 C 
ATOM     12  C   LIG    1       21.351 -30.291  11.981  0.00  0.00    +0.100 C 
ENDROOT
BRANCH   1  13
ATOM     13  C   LIG    1       20.562 -31.839  10.287  0.00  0.00    +0.115 C 
BRANCH  13  15
ATOM     14  C   LIG    1       18.111 -31.215   9.886  0.00  0.00    +0.039 C 
ATOM     15  C   LIG    1       19.186 -31.520  10.924  0.00  0.00    +0.125 C 
BRANCH  15  16
ATOM     16  O   LIG    1       18.760 -32.645  11.702  0.00  0.00    -0.391 OA
ATOM     17  H   LIG    1       19.543 -33.164  11.950  0.00  0.00    +0.210 HD
ENDBRANCH  15  16
ENDBRANCH  13  15
ENDBRANCH   1  13
BRANCH   4  18
ATOM     18  C   LIG    1       24.742 -31.181   7.261  0.00  0.00    +0.205 C 
BRANCH  18  19
ATOM     19  C   LIG    1       24.553 -30.323   6.018  0.00  0.00    +0.319 C 
ATOM     20  O   LIG    1       25.464 -29.960   5.301  0.00  0.00    -0.250 OA
BRANCH  19  21
ATOM     21  O   LIG    1       23.272 -29.916   5.776  0.00  0.00    -0.480 OA
ATOM     22  H   LIG    1       22.806 -30.568   5.217  0.00  0.00    +0.295 HD
ENDBRANCH  19  21
ENDBRANCH  18  19
ENDBRANCH   4  18
BRANCH   7  23
ATOM     23  C   LIG    1       26.664 -30.067  12.285  0.00  0.00    +0.205 C 
BRANCH  23  24
ATOM     24  C   LIG    1       28.025 -29.395  12.212  0.00  0.00    +0.319 C 
ATOM     25  O   LIG    1       28.919 -29.735  11.430  0.00  0.00    -0.250 OA
BRANCH  24  26
ATOM     26  O   LIG    1       28.203 -28.387  13.091  0.00  0.00    -0.480 OA
ATOM     27  H   LIG    1       27.377 -28.049  13.489  0.00  0.00    +0.295 HD
ENDBRANCH  24  26
ENDBRANCH  23  24
ENDBRANCH   7  23
BRANCH  10  28
ATOM     28  C   LIG    1       22.040 -28.365  14.675  0.00  0.00    +0.205 C 
BRANCH  28  29
ATOM     29  C   LIG    1       21.142 -27.132  14.564  0.00  0.00    +0.319 C 
ATOM     30  O   LIG    1       20.498 -26.627  15.494  0.00  0.00    -0.250 OA
BRANCH  29  31
ATOM     31  O   LIG    1       21.102 -26.637  13.296  0.00  0.00    -0.480 OA
ATOM     32  H   LIG    1       21.871 -26.019  13.176  0.00  0.00    +0.295 HD
ENDBRANCH  29  31
ENDBRANCH  28  29
ENDBRANCH  10  28
TORSDOF 12
ENDMDL
MODEL 8
REMARK VINA RESULT:      -4.5      4.106      7.667
REMARK  Name = *****
REMARK                            x       y       z     vdW  Elec       q    Type
REMARK                         _______ _______ _______ _____ _____    ______ ____
ROOT
ATOM      1  N   LIG    1       23.954 -31.821   9.882  0.00  0.00    -0.297 NA
ATOM      2  C   LIG    1       24.188 -30.387  10.140  0.00  0.00    +0.100 C 
ATOM      3  C   LIG    1       24.980 -30.180  11.437  0.00  0.00    +0.100 C 
ATOM      4  N   LIG    1       25.185 -28.732  11.694  0.00  0.00    -0.290 NA
ATOM      5  C   LIG    1       24.579 -28.407  13.021  0.00  0.00    +0.100 C 
ATOM      6  C   LIG    1       23.033 -28.231  12.915  0.00  0.00    +0.100 C 
ATOM      7  N   LIG    1       22.244 -29.474  13.034  0.00  0.00    -0.290 NA
ATOM      8  C   LIG    1       20.934 -29.325  12.358  0.00  0.00    +0.100 C 
ATOM      9  C   LIG    1       20.135 -30.624  12.030  0.00  0.00    +0.100 C 
ATOM     10  N   LIG    1       20.405 -31.204  10.676  0.00  0.00    -0.290 NA
ATOM     11  C   LIG    1       21.635 -32.047  10.779  0.00  0.00    +0.100 C 
ATOM     12  C   LIG    1       22.530 -32.000   9.516  0.00  0.00    +0.100 C 
ENDROOT
BRANCH   1  13
ATOM     13  C   LIG    1       24.826 -32.331   8.805  0.00  0.00    +0.115 C 
BRANCH  13  15
ATOM     14  C   LIG    1       26.988 -33.702   8.805  0.00  0.00    +0.039 C 
ATOM     15  C   LIG    1       26.352 -32.340   9.067  0.00  0.00    +0.125 C 
BRANCH  15  16
ATOM     16  O   LIG    1       26.979 -31.376   8.212  0.00  0.00    -0.391 OA
ATOM     17  H   LIG    1       26.324 -31.065   7.565  0.00  0.00    +0.210 HD
ENDBRANCH  15  16
ENDBRANCH  13  15
ENDBRANCH   1  13
BRANCH   4  18
ATOM     18  C   LIG    1       26.640 -28.405  11.697  0.00  0.00    +0.205 C 
BRANCH  18  19
ATOM     19  C   LIG    1       27.445 -29.111  10.616  0.00  0.00    +0.319 C 
ATOM     20  O   LIG    1       28.285 -29.958  10.843  0.00  0.00    -0.250 OA
BRANCH  19  21
ATOM     21  O   LIG    1       27.215 -28.683   9.339  0.00  0.00    -0.480 OA
ATOM     22  H   LIG    1       27.527 -27.764   9.226  0.00  0.00    +0.295 HD
ENDBRANCH  19  21
ENDBRANCH  18  19
ENDBRANCH   4  18
BRANCH   7  23
ATOM     23  C   LIG    1       22.142 -29.979  14.429  0.00  0.00    +0.205 C 
BRANCH  23  24
ATOM     24  C   LIG    1       22.634 -31.401  14.647  0.00  0.00    +0.319 C 
ATOM     25  O   LIG    1       23.762 -31.794  14.333  0.00  0.00    -0.250 OA
BRANCH  24  26
ATOM     26  O   LIG    1       21.727 -32.231  15.203  0.00  0.00    -0.480 OA
ATOM     27  H   LIG    1       22.116 -32.968  15.713  0.00  0.00    +0.295 HD
ENDBRANCH  24  26
ENDBRANCH  23  24
ENDBRANCH   7  23
BRANCH  10  28
ATOM     28  C   LIG    1       19.235 -32.061  10.281  0.00  0.00    +0.205 C 
BRANCH  28  29
ATOM     29  C   LIG    1       17.914 -31.297  10.381  0.00  0.00    +0.319 C 
ATOM     30  O   LIG    1       17.075 -31.429  11.284  0.00  0.00    -0.250 OA
BRANCH  29  31
ATOM     31  O   LIG    1       17.734 -30.441   9.337  0.00  0.00    -0.480 OA
ATOM     32  H   LIG    1       17.908 -30.936   8.493  0.00  0.00    +0.295 HD
ENDBRANCH  29  31
ENDBRANCH  28  29
ENDBRANCH  10  28
TORSDOF 12
ENDMDL
MODEL 9
REMARK VINA RESULT:      -4.2      5.804      8.290
REMARK  Name = *****
REMARK                            x       y       z     vdW  Elec       q    Type
REMARK                         _______ _______ _______ _____ _____    ______ ____
ROOT
ATOM      1  N   LIG    1       23.775 -26.577  14.339  0.00  0.00    -0.297 NA
ATOM      2  C   LIG    1       24.359 -27.931  14.282  0.00  0.00    +0.100 C 
ATOM      3  C   LIG    1       24.838 -28.268  12.865  0.00  0.00    +0.100 C 
ATOM      4  N   LIG    1       25.401 -29.642  12.821  0.00  0.00    -0.290 NA
ATOM      5  C   LIG    1       24.618 -30.430  11.821  0.00  0.00    +0.100 C 
ATOM      6  C   LIG    1       23.272 -30.936  12.421  0.00  0.00    +0.100 C 
ATOM      7  N   LIG    1       22.140 -29.991  12.328  0.00  0.00    -0.290 NA
ATOM      8  C   LIG    1       21.141 -30.270  13.385  0.00  0.00    +0.100 C 
ATOM      9  C   LIG    1       20.092 -29.160  13.704  0.00  0.00    +0.100 C 
ATOM     10  N   LIG    1       20.495 -28.205  14.785  0.00  0.00    -0.290 NA
ATOM     11  C   LIG    1       21.350 -27.148  14.164  0.00  0.00    +0.100 C 
ATOM     12  C   LIG    1       22.496 -26.656  15.083  0.00  0.00    +0.100 C 
ENDROOT
BRANCH   1  13
ATOM     13  C   LIG    1       24.686 -25.616  14.991  0.00  0.00    +0.115 C 
BRANCH  13  15
ATOM     14  C   LIG    1       25.705 -23.267  14.984  0.00  0.00    +0.039 C 
ATOM     15  C   LIG    1       25.205 -24.432  14.137  0.00  0.00    +0.125 C 
BRANCH  15  16
ATOM     16  O   LIG    1       26.283 -24.889  13.312  0.00  0.00    -0.391 OA
ATOM     17  H   LIG    1       26.395 -24.265  12.575  0.00  0.00    +0.210 HD
ENDBRANCH  15  16
ENDBRANCH  13  15
ENDBRANCH   1  13
BRANCH   4  18
ATOM     18  C   LIG    1       26.841 -29.601  12.434  0.00  0.00    +0.205 C 
BRANCH  18  19
ATOM     19  C   LIG    1       27.191 -28.516  11.426  0.00  0.00    +0.319 C 
ATOM     20  O   LIG    1       27.217 -28.692  10.224  0.00  0.00    -0.250 OA
BRANCH  19  21
ATOM     21  O   LIG    1       27.550 -27.312  11.961  0.00  0.00    -0.480 OA
ATOM     22  H   LIG    1       27.704 -26.656  11.253  0.00  0.00    +0.295 HD
ENDBRANCH  19  21
ENDBRANCH  18  19
ENDBRANCH   4  18
BRANCH   7  23
ATOM     23  C   LIG    1       21.557 -29.899  10.964  0.00  0.00    +0.205 C 
BRANCH  23  24
ATOM     24  C   LIG    1       20.570 -30.997  10.600  0.00  0.00    +0.319 C 
ATOM     25  O   LIG    1       20.883 -32.183  10.455  0.00  0.00    -0.250 OA
BRANCH  24  26
ATOM     26  O   LIG    1       19.300 -30.577  10.424  0.00  0.00    -0.480 OA
ATOM     27  H   LIG    1       19.009 -29.897  11.063  0.00  0.00    +0.295 HD
ENDBRANCH  24  26
ENDBRANCH  23  24
ENDBRANCH   7  23
BRANCH  10  28
ATOM     28  C   LIG    1       19.253 -27.580  15.358  0.00  0.00    +0.205 C 
BRANCH  28  29
ATOM     29  C   LIG    1       18.327 -27.052  14.261  0.00  0.00    +0.319 C 
ATOM     30  O   LIG    1       18.492 -26.000  13.628  0.00  0.00    -0.250 OA
BRANCH  29  31
ATOM     31  O   LIG    1       17.258 -27.870  14.053  0.00  0.00    -0.480 OA
ATOM     32  H   LIG    1       17.083 -28.376  14.890  0.00  0.00    +0.295 HD
ENDBRANCH  29  31
ENDBRANCH  28  29
ENDBRANCH  10  28
TORSDOF 12
ENDMDL
