MODEL 1
REMARK VINA RESULT:      -2.7      0.000      0.000
REMARK  Name = *****
REMARK                            x       y       z     vdW  Elec       q    Type
REMARK                         _______ _______ _______ _____ _____    ______ ____
ROOT
ATOM      1  N   LIG    1       26.510 -18.186   4.498  0.00  0.00    -0.230 N 
ATOM      2  H   LIG    1       25.621 -17.969   4.061  0.00  0.00    +0.173 HD
ATOM      3  C   LIG    1       27.594 -17.323   4.414  0.00  0.00    +0.260 C 
ATOM      4  O   LIG    1       28.760 -17.599   4.675  0.00  0.00    -0.269 OA
ENDROOT
BRANCH   1   7
ATOM      5  C   LIG    1       28.784 -20.416   5.865  0.00  0.00    +0.030 C 
ATOM      6  C   LIG    1       27.404 -19.815   6.118  0.00  0.00    +0.096 C 
ATOM      7  N   LIG    1       26.697 -19.564   4.818  0.00  0.00    -0.247 N 
ATOM      8  C   LIG    1       25.437 -20.217   4.987  0.00  0.00    +0.051 A 
ATOM      9  C   LIG    1       25.311 -20.903   6.193  0.00  0.00    -0.023 A 
ATOM     10  C   LIG    1       24.147 -21.572   6.543  0.00  0.00    +0.005 A 
ATOM     11  C   LIG    1       23.080 -21.549   5.648  0.00  0.00    +0.000 A 
ATOM     12  C   LIG    1       23.197 -20.873   4.424  0.00  0.00    +0.002 A 
ATOM     13  C   LIG    1       24.380 -20.206   4.087  0.00  0.00    +0.025 A 
ATOM     14  C   LIG    1       26.560 -20.785   6.982  0.00  0.00    +0.061 C 
ENDBRANCH   1   7
BRANCH   3  15
ATOM     15  C   LIG    1       27.261 -15.918   3.974  0.00  0.00    +0.040 A 
ATOM     16  C   LIG    1       25.925 -15.494   3.891  0.00  0.00    +0.043 A 
ATOM     17  C   LIG    1       25.603 -14.201   3.422  0.00  0.00    +0.124 A 
ATOM     18  C   LIG    1       26.619 -13.317   3.053  0.00  0.00    +0.067 A 
ATOM     19 CL   LIG    1       26.348 -11.707   2.491  0.00  0.00    -0.082 Cl
ATOM     20  C   LIG    1       27.951 -13.740   3.138  0.00  0.00    +0.022 A 
ATOM     21  C   LIG    1       28.269 -15.030   3.583  0.00  0.00    +0.014 A 
BRANCH  17  22
ATOM     22  S   LIG    1       23.912 -13.710   3.280  0.00  0.00    +0.057 S 
ATOM     23  O   LIG    1       23.077 -14.722   3.902  0.00  0.00    -0.153 OA
ATOM     24  O   LIG    1       23.681 -13.198   1.954  0.00  0.00    -0.153 OA
BRANCH  22  25
ATOM     25  N   LIG    1       23.790 -12.372   4.292  0.00  0.00    -0.203 NA
ATOM     26  H   LIG    1       24.288 -11.576   3.895  0.00  0.00    +0.144 HD
ATOM     27  H   LIG    1       24.077 -12.617   5.241  0.00  0.00    +0.144 HD
ENDBRANCH  22  25
ENDBRANCH  17  22
ENDBRANCH   3  15
TORSDOF 4
ENDMDL
MODEL 2
REMARK VINA RESULT:      -0.3      3.764      7.640
REMARK  Name = *****
REMARK                            x       y       z     vdW  Elec       q    Type
REMARK                         _______ _______ _______ _____ _____    ______ ____
ROOT
ATOM      1  N   LIG    1       24.398 -15.106   3.554  0.00  0.00    -0.230 N 
ATOM      2  H   LIG    1       24.661 -15.732   2.801  0.00  0.00    +0.173 HD
ATOM      3  C   LIG    1       23.374 -15.421   4.437  0.00  0.00    +0.260 C 
ATOM      4  O   LIG    1       22.813 -14.641   5.201  0.00  0.00    -0.269 OA
ENDROOT
BRANCH   1   7
ATOM      5  C   LIG    1       23.300 -11.821   3.687  0.00  0.00    +0.030 C 
ATOM      6  C   LIG    1       24.255 -12.788   4.381  0.00  0.00    +0.096 C 
ATOM      7  N   LIG    1       24.831 -13.757   3.389  0.00  0.00    -0.247 N 
ATOM      8  C   LIG    1       26.241 -13.653   3.594  0.00  0.00    +0.051 A 
ATOM      9  C   LIG    1       26.609 -12.688   4.529  0.00  0.00    -0.023 A 
ATOM     10  C   LIG    1       27.933 -12.466   4.879  0.00  0.00    +0.005 A 
ATOM     11  C   LIG    1       28.915 -13.239   4.264  0.00  0.00    +0.000 A 
ATOM     12  C   LIG    1       28.561 -14.206   3.312  0.00  0.00    +0.002 A 
ATOM     13  C   LIG    1       27.220 -14.415   2.970  0.00  0.00    +0.025 A 
ATOM     14  C   LIG    1       25.406 -11.998   5.053  0.00  0.00    +0.061 C 
ENDBRANCH   1   7
BRANCH   3  15
ATOM     15  C   LIG    1       22.952 -16.870   4.440  0.00  0.00    +0.040 A 
ATOM     16  C   LIG    1       23.915 -17.892   4.385  0.00  0.00    +0.043 A 
ATOM     17  C   LIG    1       23.526 -19.249   4.327  0.00  0.00    +0.124 A 
ATOM     18  C   LIG    1       22.173 -19.591   4.343  0.00  0.00    +0.067 A 
ATOM     19 CL   LIG    1       21.582 -21.213   4.302  0.00  0.00    -0.082 Cl
ATOM     20  C   LIG    1       21.215 -18.572   4.401  0.00  0.00    +0.022 A 
ATOM     21  C   LIG    1       21.600 -17.225   4.437  0.00  0.00    +0.014 A 
BRANCH  17  22
ATOM     22  S   LIG    1       24.755 -20.513   4.207  0.00  0.00    +0.057 S 
ATOM     23  O   LIG    1       24.600 -21.199   2.937  0.00  0.00    -0.153 OA
ATOM     24  O   LIG    1       24.849 -21.198   5.471  0.00  0.00    -0.153 OA
BRANCH  22  25
ATOM     25  N   LIG    1       26.199 -19.664   4.063  0.00  0.00    -0.203 NA
ATOM     26  H   LIG    1       26.982 -20.228   4.395  0.00  0.00    +0.144 HD
ATOM     27  H   LIG    1       26.120 -18.749   4.510  0.00  0.00    +0.144 HD
ENDBRANCH  22  25
ENDBRANCH  17  22
ENDBRANCH   3  15
TORSDOF 4
ENDMDL
MODEL 3
REMARK VINA RESULT:       0.1      2.033      2.739
REMARK  Name = *****
REMARK                            x       y       z     vdW  Elec       q    Type
REMARK                         _______ _______ _______ _____ _____    ______ ____
ROOT
ATOM      1  N   LIG    1       24.933 -18.222   4.314  0.00  0.00    -0.230 N 
ATOM      2  H   LIG    1       24.475 -17.628   4.996  0.00  0.00    +0.173 HD
ATOM      3  C   LIG    1       25.773 -17.699   3.340  0.00  0.00    +0.260 C 
ATOM      4  O   LIG    1       26.160 -18.280   2.332  0.00  0.00    -0.269 OA
ENDROOT
BRANCH   1   7
ATOM      5  C   LIG    1       25.387 -21.572   5.080  0.00  0.00    +0.030 C 
ATOM      6  C   LIG    1       24.450 -20.400   5.361  0.00  0.00    +0.096 C 
ATOM      7  N   LIG    1       24.346 -19.512   4.155  0.00  0.00    -0.247 N 
ATOM      8  C   LIG    1       22.938 -19.401   3.937  0.00  0.00    +0.051 A 
ATOM      9  C   LIG    1       22.167 -20.169   4.807  0.00  0.00    -0.023 A 
ATOM     10  C   LIG    1       20.781 -20.165   4.764  0.00  0.00    +0.005 A 
ATOM     11  C   LIG    1       20.154 -19.362   3.812  0.00  0.00    +0.000 A 
ATOM     12  C   LIG    1       20.917 -18.592   2.923  0.00  0.00    +0.002 A 
ATOM     13  C   LIG    1       22.315 -18.611   2.979  0.00  0.00    +0.025 A 
ATOM     14  C   LIG    1       23.042 -20.931   5.729  0.00  0.00    +0.061 C 
ENDBRANCH   1   7
BRANCH   3  15
ATOM     15  C   LIG    1       26.247 -16.288   3.592  0.00  0.00    +0.040 A 
ATOM     16  C   LIG    1       25.390 -15.198   3.365  0.00  0.00    +0.043 A 
ATOM     17  C   LIG    1       25.846 -13.872   3.539  0.00  0.00    +0.124 A 
ATOM     18  C   LIG    1       27.154 -13.630   3.963  0.00  0.00    +0.067 A 
ATOM     19 CL   LIG    1       27.811 -12.057   4.234  0.00  0.00    -0.082 Cl
ATOM     20  C   LIG    1       28.005 -14.718   4.191  0.00  0.00    +0.022 A 
ATOM     21  C   LIG    1       27.560 -16.032   3.997  0.00  0.00    +0.014 A 
BRANCH  17  22
ATOM     22  S   LIG    1       24.764 -12.517   3.199  0.00  0.00    +0.057 S 
ATOM     23  O   LIG    1       25.201 -11.864   1.978  0.00  0.00    -0.153 OA
ATOM     24  O   LIG    1       24.497 -11.809   4.424  0.00  0.00    -0.153 OA
BRANCH  22  25
ATOM     25  N   LIG    1       23.306 -13.252   2.793  0.00  0.00    -0.203 NA
ATOM     26  H   LIG    1       22.678 -12.582   2.349  0.00  0.00    +0.144 HD
ATOM     27  H   LIG    1       22.910 -13.726   3.606  0.00  0.00    +0.144 HD
ENDBRANCH  22  25
ENDBRANCH  17  22
ENDBRANCH   3  15
TORSDOF 4
ENDMDL
