MODEL 1
REMARK VINA RESULT:      -0.8      0.000      0.000
REMARK  Name = *****
REMARK                            x       y       z     vdW  Elec       q    Type
REMARK                         _______ _______ _______ _____ _____    ______ ____
ROOT
ATOM      1  O   LIG    1       27.014 -16.836   4.295  0.00  0.00    -0.461 OA
ENDROOT
BRANCH   1   6
ATOM      2  N   LIG    1       25.485 -13.264   3.456  0.00  0.00    +0.247 N 
ATOM      3  C   LIG    1       26.592 -12.414   2.824  0.00  0.00    +0.193 C 
ATOM      4  C   LIG    1       25.869 -13.861   4.842  0.00  0.00    +0.070 C 
ATOM      5  C   LIG    1       27.257 -14.517   4.780  0.00  0.00    +0.099 C 
ATOM      6  C   LIG    1       27.403 -15.588   3.691  0.00  0.00    +0.187 C 
ATOM      7  C   LIG    1       26.532 -15.361   2.448  0.00  0.00    +0.099 C 
ATOM      8  C   LIG    1       24.760 -14.897   5.090  0.00  0.00    +0.060 C 
ATOM      9  C   LIG    1       24.333 -15.382   3.704  0.00  0.00    +0.060 C 
ATOM     10  C   LIG    1       25.216 -14.609   2.716  0.00  0.00    +0.070 C 
BRANCH   2  12
ATOM     11  C   LIG    1       23.969 -11.447   2.373  0.00  0.00    +0.063 C 
ATOM     12  C   LIG    1       24.156 -12.380   3.572  0.00  0.00    +0.060 C 
ATOM     13  C   LIG    1       24.103 -11.587   4.882  0.00  0.00    +0.063 C 
ENDBRANCH   2  12
ENDBRANCH   1   6
BRANCH   1  14
ATOM     14  C   LIG    1       28.038 -17.587   4.830  0.00  0.00    +0.317 C 
ATOM     15  O   LIG    1       29.017 -17.117   5.389  0.00  0.00    -0.250 OA
BRANCH  14  16
ATOM     16  C   LIG    1       27.706 -19.076   4.754  0.00  0.00    +0.153 C 
BRANCH  16  17
ATOM     17  C   LIG    1       26.207 -19.325   4.633  0.00  0.00    -0.032 A 
ATOM     18  C   LIG    1       25.428 -18.799   3.591  0.00  0.00    +0.004 A 
ATOM     19  C   LIG    1       24.051 -19.025   3.542  0.00  0.00    +0.000 A 
ATOM     20  C   LIG    1       23.438 -19.818   4.506  0.00  0.00    +0.000 A 
ATOM     21  C   LIG    1       24.200 -20.384   5.524  0.00  0.00    +0.000 A 
ATOM     22  C   LIG    1       25.571 -20.127   5.598  0.00  0.00    +0.004 A 
ENDBRANCH  16  17
BRANCH  16  23
ATOM     23  C   LIG    1       28.383 -19.761   5.960  0.00  0.00    +0.175 C 
BRANCH  23  24
ATOM     24  O   LIG    1       29.008 -20.994   5.623  0.00  0.00    -0.394 OA
ATOM     25  H   LIG    1       29.497 -21.318   6.402  0.00  0.00    +0.209 HD
ENDBRANCH  23  24
ENDBRANCH  16  23
ENDBRANCH  14  16
ENDBRANCH   1  14
TORSDOF 7
ENDMDL
MODEL 2
REMARK VINA RESULT:      -0.7      1.823      3.478
REMARK  Name = *****
REMARK                            x       y       z     vdW  Elec       q    Type
REMARK                         _______ _______ _______ _____ _____    ______ ____
ROOT
ATOM      1  O   LIG    1       24.798 -16.485   4.066  0.00  0.00    -0.461 OA
ENDROOT
BRANCH   1   6
ATOM      2  N   LIG    1       26.760 -13.065   3.556  0.00  0.00    +0.247 N 
ATOM      3  C   LIG    1       25.874 -12.134   2.721  0.00  0.00    +0.193 C 
ATOM      4  C   LIG    1       27.018 -14.448   2.889  0.00  0.00    +0.070 C 
ATOM      5  C   LIG    1       25.700 -15.059   2.386  0.00  0.00    +0.099 C 
ATOM      6  C   LIG    1       24.613 -15.192   3.460  0.00  0.00    +0.187 C 
ATOM      7  C   LIG    1       24.671 -14.128   4.566  0.00  0.00    +0.099 C 
ATOM      8  C   LIG    1       27.628 -15.274   4.033  0.00  0.00    +0.060 C 
ATOM      9  C   LIG    1       27.019 -14.709   5.317  0.00  0.00    +0.060 C 
ATOM     10  C   LIG    1       26.080 -13.585   4.860  0.00  0.00    +0.070 C 
BRANCH   2  12
ATOM     11  C   LIG    1       29.336 -13.005   3.198  0.00  0.00    +0.063 C 
ATOM     12  C   LIG    1       28.141 -12.322   3.868  0.00  0.00    +0.060 C 
ATOM     13  C   LIG    1       28.386 -12.168   5.373  0.00  0.00    +0.063 C 
ENDBRANCH   2  12
ENDBRANCH   1   6
BRANCH   1  14
ATOM     14  C   LIG    1       23.682 -17.292   4.105  0.00  0.00    +0.317 C 
ATOM     15  O   LIG    1       22.551 -16.893   4.332  0.00  0.00    -0.250 OA
BRANCH  14  16
ATOM     16  C   LIG    1       24.037 -18.717   3.684  0.00  0.00    +0.153 C 
BRANCH  16  17
ATOM     17  C   LIG    1       24.077 -19.674   4.869  0.00  0.00    -0.032 A 
ATOM     18  C   LIG    1       22.937 -20.014   5.614  0.00  0.00    +0.004 A 
ATOM     19  C   LIG    1       23.029 -20.868   6.716  0.00  0.00    +0.000 A 
ATOM     20  C   LIG    1       24.253 -21.432   7.062  0.00  0.00    +0.000 A 
ATOM     21  C   LIG    1       25.387 -21.140   6.310  0.00  0.00    +0.000 A 
ATOM     22  C   LIG    1       25.305 -20.256   5.233  0.00  0.00    +0.004 A 
ENDBRANCH  16  17
BRANCH  16  23
ATOM     23  C   LIG    1       25.342 -18.643   2.865  0.00  0.00    +0.175 C 
BRANCH  23  24
ATOM     24  O   LIG    1       26.478 -18.304   3.653  0.00  0.00    -0.394 OA
ATOM     25  H   LIG    1       27.247 -18.804   3.322  0.00  0.00    +0.209 HD
ENDBRANCH  23  24
ENDBRANCH  16  23
ENDBRANCH  14  16
ENDBRANCH   1  14
TORSDOF 7
ENDMDL
MODEL 3
REMARK VINA RESULT:      -0.4      1.012      1.694
REMARK  Name = *****
REMARK                            x       y       z     vdW  Elec       q    Type
REMARK                         _______ _______ _______ _____ _____    ______ ____
ROOT
ATOM      1  O   LIG    1       26.609 -16.665   4.389  0.00  0.00    -0.461 OA
ENDROOT
BRANCH   1   6
ATOM      2  N   LIG    1       25.837 -12.885   3.429  0.00  0.00    +0.247 N 
ATOM      3  C   LIG    1       27.056 -12.330   2.684  0.00  0.00    +0.193 C 
ATOM      4  C   LIG    1       26.177 -13.489   4.823  0.00  0.00    +0.070 C 
ATOM      5  C   LIG    1       27.382 -14.437   4.721  0.00  0.00    +0.099 C 
ATOM      6  C   LIG    1       27.216 -15.562   3.690  0.00  0.00    +0.187 C 
ATOM      7  C   LIG    1       26.331 -15.205   2.488  0.00  0.00    +0.099 C 
ATOM      8  C   LIG    1       24.890 -14.242   5.196  0.00  0.00    +0.060 C 
ATOM      9  C   LIG    1       24.273 -14.683   3.868  0.00  0.00    +0.060 C 
ATOM     10  C   LIG    1       25.232 -14.170   2.786  0.00  0.00    +0.070 C 
BRANCH   2  12
ATOM     11  C   LIG    1       23.858 -11.903   4.803  0.00  0.00    +0.063 C 
ATOM     12  C   LIG    1       24.744 -11.726   3.567  0.00  0.00    +0.060 C 
ATOM     13  C   LIG    1       23.884 -11.590   2.306  0.00  0.00    +0.063 C 
ENDBRANCH   2  12
ENDBRANCH   1   6
BRANCH   1  14
ATOM     14  C   LIG    1       26.315 -17.770   3.621  0.00  0.00    +0.317 C 
ATOM     15  O   LIG    1       25.822 -17.722   2.504  0.00  0.00    -0.250 OA
BRANCH  14  16
ATOM     16  C   LIG    1       26.823 -19.042   4.297  0.00  0.00    +0.153 C 
BRANCH  16  17
ATOM     17  C   LIG    1       25.696 -19.842   4.940  0.00  0.00    -0.032 A 
ATOM     18  C   LIG    1       24.433 -19.994   4.346  0.00  0.00    +0.004 A 
ATOM     19  C   LIG    1       23.419 -20.706   4.990  0.00  0.00    +0.000 A 
ATOM     20  C   LIG    1       23.665 -21.317   6.215  0.00  0.00    +0.000 A 
ATOM     21  C   LIG    1       24.923 -21.214   6.801  0.00  0.00    +0.000 A 
ATOM     22  C   LIG    1       25.926 -20.469   6.178  0.00  0.00    +0.004 A 
ENDBRANCH  16  17
BRANCH  16  23
ATOM     23  C   LIG    1       27.957 -18.631   5.258  0.00  0.00    +0.175 C 
BRANCH  23  24
ATOM     24  O   LIG    1       29.114 -18.149   4.583  0.00  0.00    -0.394 OA
ATOM     25  H   LIG    1       29.742 -18.887   4.477  0.00  0.00    +0.209 HD
ENDBRANCH  23  24
ENDBRANCH  16  23
ENDBRANCH  14  16
ENDBRANCH   1  14
TORSDOF 7
ENDMDL
MODEL 4
REMARK VINA RESULT:      -0.0      1.541      2.964
REMARK  Name = *****
REMARK                            x       y       z     vdW  Elec       q    Type
REMARK                         _______ _______ _______ _____ _____    ______ ____
ROOT
ATOM      1  O   LIG    1       25.921 -16.835   4.181  0.00  0.00    -0.461 OA
ENDROOT
BRANCH   1   6
ATOM      2  N   LIG    1       25.681 -12.949   3.376  0.00  0.00    +0.247 N 
ATOM      3  C   LIG    1       26.982 -12.530   2.682  0.00  0.00    +0.193 C 
ATOM      4  C   LIG    1       25.902 -13.651   4.749  0.00  0.00    +0.070 C 
ATOM      5  C   LIG    1       26.974 -14.746   4.628  0.00  0.00    +0.099 C 
ATOM      6  C   LIG    1       26.687 -15.794   3.545  0.00  0.00    +0.187 C 
ATOM      7  C   LIG    1       25.888 -15.272   2.342  0.00  0.00    +0.099 C 
ATOM      8  C   LIG    1       24.518 -14.240   5.061  0.00  0.00    +0.060 C 
ATOM      9  C   LIG    1       23.882 -14.539   3.703  0.00  0.00    +0.060 C 
ATOM     10  C   LIG    1       24.928 -14.114   2.664  0.00  0.00    +0.070 C 
BRANCH   2  12
ATOM     11  C   LIG    1       23.924 -11.701   4.835  0.00  0.00    +0.063 C 
ATOM     12  C   LIG    1       24.748 -11.661   3.545  0.00  0.00    +0.060 C 
ATOM     13  C   LIG    1       23.834 -11.448   2.333  0.00  0.00    +0.063 C 
ENDBRANCH   2  12
ENDBRANCH   1   6
BRANCH   1  14
ATOM     14  C   LIG    1       25.864 -18.034   3.504  0.00  0.00    +0.317 C 
ATOM     15  O   LIG    1       26.235 -18.193   2.352  0.00  0.00    -0.250 OA
BRANCH  14  16
ATOM     16  C   LIG    1       25.410 -19.154   4.439  0.00  0.00    +0.153 C 
BRANCH  16  17
ATOM     17  C   LIG    1       26.561 -19.709   5.271  0.00  0.00    -0.032 A 
ATOM     18  C   LIG    1       26.390 -20.714   6.235  0.00  0.00    +0.004 A 
ATOM     19  C   LIG    1       27.468 -21.165   7.000  0.00  0.00    +0.000 A 
ATOM     20  C   LIG    1       28.743 -20.654   6.779  0.00  0.00    +0.000 A 
ATOM     21  C   LIG    1       28.941 -19.686   5.798  0.00  0.00    +0.000 A 
ATOM     22  C   LIG    1       27.857 -19.205   5.061  0.00  0.00    +0.004 A 
ENDBRANCH  16  17
BRANCH  16  23
ATOM     23  C   LIG    1       24.667 -20.198   3.581  0.00  0.00    +0.175 C 
BRANCH  23  24
ATOM     24  O   LIG    1       23.557 -19.653   2.876  0.00  0.00    -0.394 OA
ATOM     25  H   LIG    1       23.277 -20.291   2.195  0.00  0.00    +0.209 HD
ENDBRANCH  23  24
ENDBRANCH  16  23
ENDBRANCH  14  16
ENDBRANCH   1  14
TORSDOF 7
ENDMDL
MODEL 5
REMARK VINA RESULT:       0.3      2.582      6.964
REMARK  Name = *****
REMARK                            x       y       z     vdW  Elec       q    Type
REMARK                         _______ _______ _______ _____ _____    ______ ____
ROOT
ATOM      1  O   LIG    1       25.022 -17.032   3.676  0.00  0.00    -0.461 OA
ENDROOT
BRANCH   1   6
ATOM      2  N   LIG    1       23.502 -20.684   4.076  0.00  0.00    +0.247 N 
ATOM      3  C   LIG    1       24.116 -21.571   2.989  0.00  0.00    +0.193 C 
ATOM      4  C   LIG    1       22.821 -19.397   3.524  0.00  0.00    +0.070 C 
ATOM      5  C   LIG    1       23.747 -18.683   2.526  0.00  0.00    +0.099 C 
ATOM      6  C   LIG    1       25.134 -18.341   3.085  0.00  0.00    +0.187 C 
ATOM      7  C   LIG    1       25.652 -19.311   4.156  0.00  0.00    +0.099 C 
ATOM      8  C   LIG    1       22.592 -18.557   4.790  0.00  0.00    +0.060 C 
ATOM      9  C   LIG    1       23.718 -18.944   5.749  0.00  0.00    +0.060 C 
ATOM     10  C   LIG    1       24.552 -19.986   4.994  0.00  0.00    +0.070 C 
BRANCH   2  12
ATOM     11  C   LIG    1       21.014 -21.103   4.712  0.00  0.00    +0.063 C 
ATOM     12  C   LIG    1       22.462 -21.552   4.926  0.00  0.00    +0.060 C 
ATOM     13  C   LIG    1       22.804 -21.562   6.420  0.00  0.00    +0.063 C 
ENDBRANCH   2  12
ENDBRANCH   1   6
BRANCH   1  14
ATOM     14  C   LIG    1       26.161 -16.257   3.635  0.00  0.00    +0.317 C 
ATOM     15  O   LIG    1       27.297 -16.704   3.616  0.00  0.00    -0.250 OA
BRANCH  14  16
ATOM     16  C   LIG    1       25.799 -14.782   3.471  0.00  0.00    +0.153 C 
BRANCH  16  17
ATOM     17  C   LIG    1       26.890 -13.860   4.002  0.00  0.00    -0.032 A 
ATOM     18  C   LIG    1       26.926 -13.406   5.330  0.00  0.00    +0.004 A 
ATOM     19  C   LIG    1       27.926 -12.532   5.762  0.00  0.00    +0.000 A 
ATOM     20  C   LIG    1       28.932 -12.135   4.887  0.00  0.00    +0.000 A 
ATOM     21  C   LIG    1       28.938 -12.607   3.577  0.00  0.00    +0.000 A 
ATOM     22  C   LIG    1       27.916 -13.449   3.132  0.00  0.00    +0.004 A 
ENDBRANCH  16  17
BRANCH  16  23
ATOM     23  C   LIG    1       24.408 -14.576   4.105  0.00  0.00    +0.175 C 
BRANCH  23  24
ATOM     24  O   LIG    1       23.791 -13.356   3.711  0.00  0.00    -0.394 OA
ATOM     25  H   LIG    1       22.906 -13.556   3.353  0.00  0.00    +0.209 HD
ENDBRANCH  23  24
ENDBRANCH  16  23
ENDBRANCH  14  16
ENDBRANCH   1  14
TORSDOF 7
ENDMDL
MODEL 6
REMARK VINA RESULT:       0.3      2.496      6.623
REMARK  Name = *****
REMARK                            x       y       z     vdW  Elec       q    Type
REMARK                         _______ _______ _______ _____ _____    ______ ____
ROOT
ATOM      1  O   LIG    1       25.132 -16.935   3.658  0.00  0.00    -0.461 OA
ENDROOT
BRANCH   1   6
ATOM      2  N   LIG    1       23.798 -20.632   4.258  0.00  0.00    +0.247 N 
ATOM      3  C   LIG    1       24.585 -21.572   3.339  0.00  0.00    +0.193 C 
ATOM      4  C   LIG    1       23.109 -19.454   3.508  0.00  0.00    +0.070 C 
ATOM      5  C   LIG    1       24.099 -18.773   2.550  0.00  0.00    +0.099 C 
ATOM      6  C   LIG    1       25.390 -18.282   3.218  0.00  0.00    +0.187 C 
ATOM      7  C   LIG    1       25.838 -19.109   4.431  0.00  0.00    +0.099 C 
ATOM      8  C   LIG    1       22.686 -18.518   4.651  0.00  0.00    +0.060 C 
ATOM      9  C   LIG    1       23.716 -18.732   5.760  0.00  0.00    +0.060 C 
ATOM     10  C   LIG    1       24.692 -19.779   5.209  0.00  0.00    +0.070 C 
BRANCH   2  12
ATOM     11  C   LIG    1       21.282 -21.155   4.670  0.00  0.00    +0.063 C 
ATOM     12  C   LIG    1       22.721 -21.488   5.074  0.00  0.00    +0.060 C 
ATOM     13  C   LIG    1       22.899 -21.345   6.589  0.00  0.00    +0.063 C 
ENDBRANCH   2  12
ENDBRANCH   1   6
BRANCH   1  14
ATOM     14  C   LIG    1       26.160 -16.037   3.469  0.00  0.00    +0.317 C 
ATOM     15  O   LIG    1       27.008 -16.135   2.596  0.00  0.00    -0.250 OA
BRANCH  14  16
ATOM     16  C   LIG    1       26.003 -14.840   4.405  0.00  0.00    +0.153 C 
BRANCH  16  17
ATOM     17  C   LIG    1       25.256 -13.687   3.742  0.00  0.00    -0.032 A 
ATOM     18  C   LIG    1       25.335 -13.417   2.368  0.00  0.00    +0.004 A 
ATOM     19  C   LIG    1       24.662 -12.327   1.812  0.00  0.00    +0.000 A 
ATOM     20  C   LIG    1       23.861 -11.519   2.612  0.00  0.00    +0.000 A 
ATOM     21  C   LIG    1       23.735 -11.796   3.971  0.00  0.00    +0.000 A 
ATOM     22  C   LIG    1       24.440 -12.861   4.536  0.00  0.00    +0.004 A 
ENDBRANCH  16  17
BRANCH  16  23
ATOM     23  C   LIG    1       27.406 -14.484   4.937  0.00  0.00    +0.175 C 
BRANCH  23  24
ATOM     24  O   LIG    1       28.310 -14.092   3.910  0.00  0.00    -0.394 OA
ATOM     25  H   LIG    1       27.914 -14.311   3.047  0.00  0.00    +0.209 HD
ENDBRANCH  23  24
ENDBRANCH  16  23
ENDBRANCH  14  16
ENDBRANCH   1  14
TORSDOF 7
ENDMDL
MODEL 7
REMARK VINA RESULT:       0.5      2.636      4.314
REMARK  Name = *****
REMARK                            x       y       z     vdW  Elec       q    Type
REMARK                         _______ _______ _______ _____ _____    ______ ____
ROOT
ATOM      1  O   LIG    1       23.202 -15.950   4.085  0.00  0.00    -0.461 OA
ENDROOT
BRANCH   1   6
ATOM      2  N   LIG    1       25.829 -12.996   3.659  0.00  0.00    +0.247 N 
ATOM      3  C   LIG    1       25.051 -11.677   3.612  0.00  0.00    +0.193 C 
ATOM      4  C   LIG    1       25.355 -14.041   2.606  0.00  0.00    +0.070 C 
ATOM      5  C   LIG    1       23.823 -14.171   2.629  0.00  0.00    +0.099 C 
ATOM      6  C   LIG    1       23.237 -14.512   4.005  0.00  0.00    +0.187 C 
ATOM      7  C   LIG    1       24.047 -13.981   5.196  0.00  0.00    +0.099 C 
ATOM      8  C   LIG    1       26.043 -15.335   3.070  0.00  0.00    +0.060 C 
ATOM      9  C   LIG    1       26.177 -15.207   4.588  0.00  0.00    +0.060 C 
ATOM     10  C   LIG    1       25.557 -13.848   4.937  0.00  0.00    +0.070 C 
BRANCH   2  12
ATOM     11  C   LIG    1       28.078 -13.673   2.537  0.00  0.00    +0.063 C 
ATOM     12  C   LIG    1       27.388 -12.685   3.481  0.00  0.00    +0.060 C 
ATOM     13  C   LIG    1       28.122 -12.626   4.825  0.00  0.00    +0.063 C 
ENDBRANCH   2  12
ENDBRANCH   1   6
BRANCH   1  14
ATOM     14  C   LIG    1       22.312 -16.477   4.995  0.00  0.00    +0.317 C 
ATOM     15  O   LIG    1       21.852 -15.862   5.944  0.00  0.00    -0.250 OA
BRANCH  14  16
ATOM     16  C   LIG    1       21.874 -17.876   4.565  0.00  0.00    +0.153 C 
BRANCH  16  17
ATOM     17  C   LIG    1       23.023 -18.877   4.608  0.00  0.00    -0.032 A 
ATOM     18  C   LIG    1       24.122 -18.814   3.737  0.00  0.00    +0.004 A 
ATOM     19  C   LIG    1       25.134 -19.776   3.789  0.00  0.00    +0.000 A 
ATOM     20  C   LIG    1       25.088 -20.786   4.744  0.00  0.00    +0.000 A 
ATOM     21  C   LIG    1       24.028 -20.841   5.644  0.00  0.00    +0.000 A 
ATOM     22  C   LIG    1       22.995 -19.905   5.568  0.00  0.00    +0.004 A 
ENDBRANCH  16  17
BRANCH  16  23
ATOM     23  C   LIG    1       21.181 -17.741   3.194  0.00  0.00    +0.175 C 
BRANCH  23  24
ATOM     24  O   LIG    1       19.932 -18.422   3.130  0.00  0.00    -0.394 OA
ATOM     25  H   LIG    1       19.447 -18.260   3.960  0.00  0.00    +0.209 HD
ENDBRANCH  23  24
ENDBRANCH  16  23
ENDBRANCH  14  16
ENDBRANCH   1  14
TORSDOF 7
ENDMDL
MODEL 8
REMARK VINA RESULT:       1.9      1.911      3.672
REMARK  Name = *****
REMARK                            x       y       z     vdW  Elec       q    Type
REMARK                         _______ _______ _______ _____ _____    ______ ____
ROOT
ATOM      1  O   LIG    1       25.366 -17.418   4.211  0.00  0.00    -0.461 OA
ENDROOT
BRANCH   1   6
ATOM      2  N   LIG    1       26.665 -13.740   3.444  0.00  0.00    +0.247 N 
ATOM      3  C   LIG    1       25.916 -13.224   2.211  0.00  0.00    +0.193 C 
ATOM      4  C   LIG    1       27.388 -15.099   3.213  0.00  0.00    +0.070 C 
ATOM      5  C   LIG    1       26.442 -16.106   2.540  0.00  0.00    +0.099 C 
ATOM      6  C   LIG    1       25.124 -16.336   3.292  0.00  0.00    +0.187 C 
ATOM      7  C   LIG    1       24.623 -15.126   4.092  0.00  0.00    +0.099 C 
ATOM      8  C   LIG    1       27.764 -15.536   4.638  0.00  0.00    +0.060 C 
ATOM      9  C   LIG    1       26.687 -14.943   5.547  0.00  0.00    +0.060 C 
ATOM     10  C   LIG    1       25.732 -14.194   4.608  0.00  0.00    +0.070 C 
BRANCH   2  12
ATOM     11  C   LIG    1       29.147 -12.964   3.543  0.00  0.00    +0.063 C 
ATOM     12  C   LIG    1       27.704 -12.622   3.923  0.00  0.00    +0.060 C 
ATOM     13  C   LIG    1       27.598 -12.343   5.426  0.00  0.00    +0.063 C 
ENDBRANCH   2  12
ENDBRANCH   1   6
BRANCH   1  14
ATOM     14  C   LIG    1       25.128 -18.684   3.722  0.00  0.00    +0.317 C 
ATOM     15  O   LIG    1       25.228 -18.998   2.546  0.00  0.00    -0.250 OA
BRANCH  14  16
ATOM     16  C   LIG    1       24.866 -19.660   4.868  0.00  0.00    +0.153 C 
BRANCH  16  17
ATOM     17  C   LIG    1       26.157 -20.124   5.533  0.00  0.00    -0.032 A 
ATOM     18  C   LIG    1       26.206 -21.199   6.435  0.00  0.00    +0.004 A 
ATOM     19  C   LIG    1       27.407 -21.564   7.048  0.00  0.00    +0.000 A 
ATOM     20  C   LIG    1       28.584 -20.893   6.734  0.00  0.00    +0.000 A 
ATOM     21  C   LIG    1       28.563 -19.852   5.811  0.00  0.00    +0.000 A 
ATOM     22  C   LIG    1       27.357 -19.458   5.227  0.00  0.00    +0.004 A 
ENDBRANCH  16  17
BRANCH  16  23
ATOM     23  C   LIG    1       23.977 -20.792   4.314  0.00  0.00    +0.175 C 
BRANCH  23  24
ATOM     24  O   LIG    1       22.651 -20.764   4.831  0.00  0.00    -0.394 OA
ATOM     25  H   LIG    1       22.658 -20.285   5.680  0.00  0.00    +0.209 HD
ENDBRANCH  23  24
ENDBRANCH  16  23
ENDBRANCH  14  16
ENDBRANCH   1  14
TORSDOF 7
ENDMDL
MODEL 9
REMARK VINA RESULT:       2.0      2.737      4.215
REMARK  Name = *****
REMARK                            x       y       z     vdW  Elec       q    Type
REMARK                         _______ _______ _______ _____ _____    ______ ____
ROOT
ATOM      1  O   LIG    1       23.110 -16.046   3.952  0.00  0.00    -0.461 OA
ENDROOT
BRANCH   1   6
ATOM      2  N   LIG    1       26.178 -13.525   3.759  0.00  0.00    +0.247 N 
ATOM      3  C   LIG    1       27.302 -14.083   4.639  0.00  0.00    +0.193 C 
ATOM      4  C   LIG    1       24.822 -13.359   4.506  0.00  0.00    +0.070 C 
ATOM      5  C   LIG    1       24.480 -14.634   5.293  0.00  0.00    +0.099 C 
ATOM      6  C   LIG    1       24.456 -15.912   4.446  0.00  0.00    +0.187 C 
ATOM      7  C   LIG    1       25.413 -15.905   3.245  0.00  0.00    +0.099 C 
ATOM      8  C   LIG    1       23.826 -13.111   3.363  0.00  0.00    +0.060 C 
ATOM      9  C   LIG    1       24.392 -13.859   2.155  0.00  0.00    +0.060 C 
ATOM     10  C   LIG    1       25.688 -14.511   2.655  0.00  0.00    +0.070 C 
BRANCH   2  12
ATOM     11  C   LIG    1       25.951 -11.813   1.812  0.00  0.00    +0.063 C 
ATOM     12  C   LIG    1       26.653 -12.131   3.135  0.00  0.00    +0.060 C 
ATOM     13  C   LIG    1       28.174 -12.064   2.964  0.00  0.00    +0.063 C 
ENDBRANCH   2  12
ENDBRANCH   1   6
BRANCH   1  14
ATOM     14  C   LIG    1       22.186 -16.528   4.853  0.00  0.00    +0.317 C 
ATOM     15  O   LIG    1       21.732 -15.883   5.786  0.00  0.00    -0.250 OA
BRANCH  14  16
ATOM     16  C   LIG    1       21.708 -17.918   4.438  0.00  0.00    +0.153 C 
BRANCH  16  17
ATOM     17  C   LIG    1       22.786 -18.979   4.631  0.00  0.00    -0.032 A 
ATOM     18  C   LIG    1       22.855 -19.798   5.769  0.00  0.00    +0.004 A 
ATOM     19  C   LIG    1       23.883 -20.731   5.918  0.00  0.00    +0.000 A 
ATOM     20  C   LIG    1       24.831 -20.894   4.912  0.00  0.00    +0.000 A 
ATOM     21  C   LIG    1       24.755 -20.120   3.757  0.00  0.00    +0.000 A 
ATOM     22  C   LIG    1       23.751 -19.159   3.624  0.00  0.00    +0.004 A 
ENDBRANCH  16  17
BRANCH  16  23
ATOM     23  C   LIG    1       21.158 -17.805   3.001  0.00  0.00    +0.175 C 
BRANCH  23  24
ATOM     24  O   LIG    1       19.834 -18.309   2.869  0.00  0.00    -0.394 OA
ATOM     25  H   LIG    1       19.882 -19.243   2.593  0.00  0.00    +0.209 HD
ENDBRANCH  23  24
ENDBRANCH  16  23
ENDBRANCH  14  16
ENDBRANCH   1  14
TORSDOF 7
ENDMDL
