MODEL 1
REMARK VINA RESULT:      -6.8      0.000      0.000
REMARK  Name = *****
REMARK                            x       y       z     vdW  Elec       q    Type
REMARK                         _______ _______ _______ _____ _____    ______ ____
ROOT
ATOM      1  O   LIG    1       28.223 -21.507   8.243  0.00  0.00    -0.459 OA
ENDROOT
BRANCH   1   2
ATOM      2  C   LIG    1       28.868 -20.712   7.350  0.00  0.00    +0.341 C 
ATOM      3  O   LIG    1       28.650 -20.654   6.155  0.00  0.00    -0.245 OA
BRANCH   2   4
ATOM      4  C   LIG    1       29.907 -19.905   8.028  0.00  0.00    +0.077 A 
ATOM      5  C   LIG    1       31.001 -20.481   8.659  0.00  0.00    +0.125 A 
ATOM      6  N   LIG    1       31.972 -19.773   9.289  0.00  0.00    -0.262 NA
ATOM      7  C   LIG    1       31.842 -18.429   9.289  0.00  0.00    +0.111 A 
ATOM      8  C   LIG    1       30.794 -17.758   8.679  0.00  0.00    +0.020 A 
ATOM      9  C   LIG    1       29.811 -18.509   8.036  0.00  0.00    +0.018 A 
ENDBRANCH   2   4
ENDBRANCH   1   2
BRANCH   1  10
ATOM     10  C   LIG    1       26.833 -21.750   7.967  0.00  0.00    +0.260 C 
BRANCH  10  11
ATOM     11  C   LIG    1       25.964 -20.597   8.466  0.00  0.00    +0.201 C 
BRANCH  11  12
ATOM     12  O   LIG    1       24.594 -20.834   8.136  0.00  0.00    -0.376 OA
BRANCH  12  13
ATOM     13  C   LIG    1       24.419 -20.995   6.726  0.00  0.00    +0.160 C 
BRANCH  13  14
ATOM     14  C   LIG    1       23.104 -20.353   6.279  0.00  0.00    +0.028 C 
BRANCH  14  16
ATOM     15  C   LIG    1       22.244 -18.710   4.546  0.00  0.00    +0.004 C 
ATOM     16  C   LIG    1       23.173 -19.882   4.825  0.00  0.00    -0.001 C 
ENDBRANCH  14  16
ENDBRANCH  13  14
ENDBRANCH  12  13
ENDBRANCH  11  12
ENDBRANCH  10  11
ENDBRANCH   1  10
TORSDOF 8
ENDMDL
MODEL 2
REMARK VINA RESULT:      -6.8      1.587      2.500
REMARK  Name = *****
REMARK                            x       y       z     vdW  Elec       q    Type
REMARK                         _______ _______ _______ _____ _____    ______ ____
ROOT
ATOM      1  O   LIG    1       29.163 -19.594   8.196  0.00  0.00    -0.459 OA
ENDROOT
BRANCH   1   2
ATOM      2  C   LIG    1       30.001 -18.627   7.742  0.00  0.00    +0.341 C 
ATOM      3  O   LIG    1       30.175 -18.318   6.579  0.00  0.00    -0.245 OA
BRANCH   2   4
ATOM      4  C   LIG    1       30.708 -17.979   8.870  0.00  0.00    +0.077 A 
ATOM      5  C   LIG    1       32.073 -17.729   8.845  0.00  0.00    +0.125 A 
ATOM      6  N   LIG    1       32.753 -17.139   9.860  0.00  0.00    -0.262 NA
ATOM      7  C   LIG    1       32.036 -16.782  10.947  0.00  0.00    +0.111 A 
ATOM      8  C   LIG    1       30.669 -16.978  11.064  0.00  0.00    +0.020 A 
ATOM      9  C   LIG    1       29.994 -17.585  10.006  0.00  0.00    +0.018 A 
ENDBRANCH   2   4
ENDBRANCH   1   2
BRANCH   1  10
ATOM     10  C   LIG    1       29.129 -20.802   7.415  0.00  0.00    +0.260 C 
BRANCH  10  11
ATOM     11  C   LIG    1       27.726 -21.406   7.400  0.00  0.00    +0.201 C 
BRANCH  11  12
ATOM     12  O   LIG    1       27.149 -21.345   8.706  0.00  0.00    -0.376 OA
BRANCH  12  13
ATOM     13  C   LIG    1       25.875 -20.698   8.682  0.00  0.00    +0.160 C 
BRANCH  13  14
ATOM     14  C   LIG    1       25.293 -20.726   7.268  0.00  0.00    +0.028 C 
BRANCH  14  16
ATOM     15  C   LIG    1       23.117 -20.367   6.010  0.00  0.00    +0.004 C 
ATOM     16  C   LIG    1       23.770 -20.873   7.287  0.00  0.00    -0.001 C 
ENDBRANCH  14  16
ENDBRANCH  13  14
ENDBRANCH  12  13
ENDBRANCH  11  12
ENDBRANCH  10  11
ENDBRANCH   1  10
TORSDOF 8
ENDMDL
MODEL 3
REMARK VINA RESULT:      -6.8      1.801      2.765
REMARK  Name = *****
REMARK                            x       y       z     vdW  Elec       q    Type
REMARK                         _______ _______ _______ _____ _____    ______ ____
ROOT
ATOM      1  O   LIG    1       29.341 -19.518   8.500  0.00  0.00    -0.459 OA
ENDROOT
BRANCH   1   2
ATOM      2  C   LIG    1       30.146 -18.549   7.994  0.00  0.00    +0.341 C 
ATOM      3  O   LIG    1       30.375 -18.351   6.816  0.00  0.00    -0.245 OA
BRANCH   2   4
ATOM      4  C   LIG    1       30.736 -17.740   9.084  0.00  0.00    +0.077 A 
ATOM      5  C   LIG    1       30.009 -17.363  10.205  0.00  0.00    +0.125 A 
ATOM      6  N   LIG    1       30.517 -16.623  11.223  0.00  0.00    -0.262 NA
ATOM      7  C   LIG    1       31.808 -16.243  11.114  0.00  0.00    +0.111 A 
ATOM      8  C   LIG    1       32.620 -16.578  10.042  0.00  0.00    +0.020 A 
ATOM      9  C   LIG    1       32.074 -17.341   9.011  0.00  0.00    +0.018 A 
ENDBRANCH   2   4
ENDBRANCH   1   2
BRANCH   1  10
ATOM     10  C   LIG    1       29.330 -20.759   7.772  0.00  0.00    +0.260 C 
BRANCH  10  11
ATOM     11  C   LIG    1       27.902 -21.201   7.460  0.00  0.00    +0.201 C 
BRANCH  11  12
ATOM     12  O   LIG    1       27.155 -21.342   8.671  0.00  0.00    -0.376 OA
BRANCH  12  13
ATOM     13  C   LIG    1       25.906 -20.651   8.595  0.00  0.00    +0.160 C 
BRANCH  13  14
ATOM     14  C   LIG    1       25.299 -20.806   7.200  0.00  0.00    +0.028 C 
BRANCH  14  16
ATOM     15  C   LIG    1       23.088 -20.290   6.065  0.00  0.00    +0.004 C 
ATOM     16  C   LIG    1       23.776 -20.935   7.258  0.00  0.00    -0.001 C 
ENDBRANCH  14  16
ENDBRANCH  13  14
ENDBRANCH  12  13
ENDBRANCH  11  12
ENDBRANCH  10  11
ENDBRANCH   1  10
TORSDOF 8
ENDMDL
MODEL 4
REMARK VINA RESULT:      -6.6      2.683      6.550
REMARK  Name = *****
REMARK                            x       y       z     vdW  Elec       q    Type
REMARK                         _______ _______ _______ _____ _____    ______ ____
ROOT
ATOM      1  O   LIG    1       24.322 -20.866   8.123  0.00  0.00    -0.459 OA
ENDROOT
BRANCH   1   2
ATOM      2  C   LIG    1       23.628 -21.449   7.112  0.00  0.00    +0.341 C 
ATOM      3  O   LIG    1       23.059 -22.523   7.159  0.00  0.00    -0.245 OA
BRANCH   2   4
ATOM      4  C   LIG    1       23.656 -20.596   5.902  0.00  0.00    +0.077 A 
ATOM      5  C   LIG    1       24.719 -20.607   5.009  0.00  0.00    +0.125 A 
ATOM      6  N   LIG    1       24.778 -19.840   3.892  0.00  0.00    -0.262 NA
ATOM      7  C   LIG    1       23.728 -19.025   3.657  0.00  0.00    +0.111 A 
ATOM      8  C   LIG    1       22.615 -18.948   4.481  0.00  0.00    +0.020 A 
ATOM      9  C   LIG    1       22.579 -19.749   5.621  0.00  0.00    +0.018 A 
ENDBRANCH   2   4
ENDBRANCH   1   2
BRANCH   1  10
ATOM     10  C   LIG    1       25.589 -21.469   8.435  0.00  0.00    +0.260 C 
BRANCH  10  11
ATOM     11  C   LIG    1       26.744 -20.530   8.095  0.00  0.00    +0.201 C 
BRANCH  11  12
ATOM     12  O   LIG    1       27.993 -21.151   8.407  0.00  0.00    -0.376 OA
BRANCH  12  13
ATOM     13  C   LIG    1       28.882 -21.123   7.289  0.00  0.00    +0.160 C 
BRANCH  13  14
ATOM     14  C   LIG    1       28.463 -20.030   6.305  0.00  0.00    +0.028 C 
BRANCH  14  16
ATOM     15  C   LIG    1       30.821 -19.293   6.887  0.00  0.00    +0.004 C 
ATOM     16  C   LIG    1       29.505 -18.913   6.226  0.00  0.00    -0.001 C 
ENDBRANCH  14  16
ENDBRANCH  13  14
ENDBRANCH  12  13
ENDBRANCH  11  12
ENDBRANCH  10  11
ENDBRANCH   1  10
TORSDOF 8
ENDMDL
MODEL 5
REMARK VINA RESULT:      -6.5      2.540      6.914
REMARK  Name = *****
REMARK                            x       y       z     vdW  Elec       q    Type
REMARK                         _______ _______ _______ _____ _____    ______ ____
ROOT
ATOM      1  O   LIG    1       27.545 -21.159   7.686  0.00  0.00    -0.459 OA
ENDROOT
BRANCH   1   2
ATOM      2  C   LIG    1       26.318 -20.809   8.150  0.00  0.00    +0.341 C 
ATOM      3  O   LIG    1       26.028 -20.583   9.310  0.00  0.00    -0.245 OA
BRANCH   2   4
ATOM      4  C   LIG    1       25.341 -20.741   7.040  0.00  0.00    +0.077 A 
ATOM      5  C   LIG    1       25.732 -20.615   5.714  0.00  0.00    +0.125 A 
ATOM      6  N   LIG    1       24.866 -20.550   4.672  0.00  0.00    -0.262 NA
ATOM      7  C   LIG    1       23.550 -20.613   4.969  0.00  0.00    +0.111 A 
ATOM      8  C   LIG    1       23.059 -20.749   6.259  0.00  0.00    +0.020 A 
ATOM      9  C   LIG    1       23.971 -20.816   7.311  0.00  0.00    +0.018 A 
ENDBRANCH   2   4
ENDBRANCH   1   2
BRANCH   1  10
ATOM     10  C   LIG    1       28.552 -20.135   7.761  0.00  0.00    +0.260 C 
BRANCH  10  11
ATOM     11  C   LIG    1       29.904 -20.723   8.161  0.00  0.00    +0.201 C 
BRANCH  11  12
ATOM     12  O   LIG    1       30.608 -19.808   9.004  0.00  0.00    -0.376 OA
BRANCH  12  13
ATOM     13  C   LIG    1       31.506 -18.992   8.249  0.00  0.00    +0.160 C 
BRANCH  13  14
ATOM     14  C   LIG    1       31.598 -17.595   8.866  0.00  0.00    +0.028 C 
BRANCH  14  16
ATOM     15  C   LIG    1       30.672 -16.999  11.153  0.00  0.00    +0.004 C 
ATOM     16  C   LIG    1       30.353 -17.259   9.689  0.00  0.00    -0.001 C 
ENDBRANCH  14  16
ENDBRANCH  13  14
ENDBRANCH  12  13
ENDBRANCH  11  12
ENDBRANCH  10  11
ENDBRANCH   1  10
TORSDOF 8
ENDMDL
MODEL 6
REMARK VINA RESULT:      -6.5      2.896      7.010
REMARK  Name = *****
REMARK                            x       y       z     vdW  Elec       q    Type
REMARK                         _______ _______ _______ _____ _____    ______ ____
ROOT
ATOM      1  O   LIG    1       26.834 -20.226   7.385  0.00  0.00    -0.459 OA
ENDROOT
BRANCH   1   2
ATOM      2  C   LIG    1       26.016 -20.805   8.301  0.00  0.00    +0.341 C 
ATOM      3  O   LIG    1       25.886 -20.466   9.462  0.00  0.00    -0.245 OA
BRANCH   2   4
ATOM      4  C   LIG    1       25.283 -21.942   7.700  0.00  0.00    +0.077 A 
ATOM      5  C   LIG    1       25.906 -23.140   7.377  0.00  0.00    +0.125 A 
ATOM      6  N   LIG    1       25.266 -24.201   6.825  0.00  0.00    -0.262 NA
ATOM      7  C   LIG    1       23.945 -24.058   6.585  0.00  0.00    +0.111 A 
ATOM      8  C   LIG    1       23.230 -22.908   6.880  0.00  0.00    +0.020 A 
ATOM      9  C   LIG    1       23.911 -21.833   7.449  0.00  0.00    +0.018 A 
ENDBRANCH   2   4
ENDBRANCH   1   2
BRANCH   1  10
ATOM     10  C   LIG    1       28.227 -20.177   7.741  0.00  0.00    +0.260 C 
BRANCH  10  11
ATOM     11  C   LIG    1       29.060 -19.566   6.615  0.00  0.00    +0.201 C 
BRANCH  11  12
ATOM     12  O   LIG    1       29.769 -18.422   7.094  0.00  0.00    -0.376 OA
BRANCH  12  13
ATOM     13  C   LIG    1       30.284 -18.641   8.409  0.00  0.00    +0.160 C 
BRANCH  13  14
ATOM     14  C   LIG    1       30.235 -17.345   9.220  0.00  0.00    +0.028 C 
BRANCH  14  16
ATOM     15  C   LIG    1       31.243 -16.527  11.401  0.00  0.00    +0.004 C 
ATOM     16  C   LIG    1       30.422 -17.608  10.715  0.00  0.00    -0.001 C 
ENDBRANCH  14  16
ENDBRANCH  13  14
ENDBRANCH  12  13
ENDBRANCH  11  12
ENDBRANCH  10  11
ENDBRANCH   1  10
TORSDOF 8
ENDMDL
MODEL 7
REMARK VINA RESULT:      -6.4      1.536      1.997
REMARK  Name = *****
REMARK                            x       y       z     vdW  Elec       q    Type
REMARK                         _______ _______ _______ _____ _____    ______ ____
ROOT
ATOM      1  O   LIG    1       27.120 -22.107   6.901  0.00  0.00    -0.459 OA
ENDROOT
BRANCH   1   2
ATOM      2  C   LIG    1       27.461 -21.256   7.903  0.00  0.00    +0.341 C 
ATOM      3  O   LIG    1       26.819 -21.047   8.915  0.00  0.00    -0.245 OA
BRANCH   2   4
ATOM      4  C   LIG    1       28.745 -20.586   7.601  0.00  0.00    +0.077 A 
ATOM      5  C   LIG    1       29.932 -20.938   8.229  0.00  0.00    +0.125 A 
ATOM      6  N   LIG    1       31.127 -20.346   7.978  0.00  0.00    -0.262 NA
ATOM      7  C   LIG    1       31.134 -19.357   7.059  0.00  0.00    +0.111 A 
ATOM      8  C   LIG    1       30.007 -18.938   6.370  0.00  0.00    +0.020 A 
ATOM      9  C   LIG    1       28.792 -19.566   6.646  0.00  0.00    +0.018 A 
ENDBRANCH   2   4
ENDBRANCH   1   2
BRANCH   1  10
ATOM     10  C   LIG    1       26.094 -23.063   7.222  0.00  0.00    +0.260 C 
BRANCH  10  11
ATOM     11  C   LIG    1       24.898 -22.921   6.282  0.00  0.00    +0.201 C 
BRANCH  11  12
ATOM     12  O   LIG    1       23.860 -22.170   6.916  0.00  0.00    -0.376 OA
BRANCH  12  13
ATOM     13  C   LIG    1       23.802 -20.834   6.412  0.00  0.00    +0.160 C 
BRANCH  13  14
ATOM     14  C   LIG    1       22.563 -20.653   5.534  0.00  0.00    +0.028 C 
BRANCH  14  16
ATOM     15  C   LIG    1       23.597 -19.095   3.817  0.00  0.00    +0.004 C 
ATOM     16  C   LIG    1       22.529 -19.268   4.886  0.00  0.00    -0.001 C 
ENDBRANCH  14  16
ENDBRANCH  13  14
ENDBRANCH  12  13
ENDBRANCH  11  12
ENDBRANCH  10  11
ENDBRANCH   1  10
TORSDOF 8
ENDMDL
MODEL 8
REMARK VINA RESULT:      -6.3      1.977      3.061
REMARK  Name = *****
REMARK                            x       y       z     vdW  Elec       q    Type
REMARK                         _______ _______ _______ _____ _____    ______ ____
ROOT
ATOM      1  O   LIG    1       27.853 -21.100   8.232  0.00  0.00    -0.459 OA
ENDROOT
BRANCH   1   2
ATOM      2  C   LIG    1       28.682 -20.539   7.315  0.00  0.00    +0.341 C 
ATOM      3  O   LIG    1       28.564 -20.607   6.106  0.00  0.00    -0.245 OA
BRANCH   2   4
ATOM      4  C   LIG    1       29.788 -19.819   7.984  0.00  0.00    +0.077 A 
ATOM      5  C   LIG    1       30.870 -20.479   8.551  0.00  0.00    +0.125 A 
ATOM      6  N   LIG    1       31.900 -19.852   9.172  0.00  0.00    -0.262 NA
ATOM      7  C   LIG    1       31.846 -18.505   9.230  0.00  0.00    +0.111 A 
ATOM      8  C   LIG    1       30.816 -17.752   8.686  0.00  0.00    +0.020 A 
ATOM      9  C   LIG    1       29.771 -18.422   8.051  0.00  0.00    +0.018 A 
ENDBRANCH   2   4
ENDBRANCH   1   2
BRANCH   1  10
ATOM     10  C   LIG    1       26.518 -20.567   8.270  0.00  0.00    +0.260 C 
BRANCH  10  11
ATOM     11  C   LIG    1       25.495 -21.616   7.837  0.00  0.00    +0.201 C 
BRANCH  11  12
ATOM     12  O   LIG    1       25.378 -21.631   6.413  0.00  0.00    -0.376 OA
BRANCH  12  13
ATOM     13  C   LIG    1       25.038 -22.933   5.933  0.00  0.00    +0.160 C 
BRANCH  13  14
ATOM     14  C   LIG    1       25.742 -24.006   6.765  0.00  0.00    +0.028 C 
BRANCH  14  16
ATOM     15  C   LIG    1       26.198 -26.481   6.435  0.00  0.00    +0.004 C 
ATOM     16  C   LIG    1       25.140 -25.392   6.525  0.00  0.00    -0.001 C 
ENDBRANCH  14  16
ENDBRANCH  13  14
ENDBRANCH  12  13
ENDBRANCH  11  12
ENDBRANCH  10  11
ENDBRANCH   1  10
TORSDOF 8
ENDMDL
MODEL 9
REMARK VINA RESULT:      -6.2      4.037      5.971
REMARK  Name = *****
REMARK                            x       y       z     vdW  Elec       q    Type
REMARK                         _______ _______ _______ _____ _____    ______ ____
ROOT
ATOM      1  O   LIG    1       23.282 -21.950   7.740  0.00  0.00    -0.459 OA
ENDROOT
BRANCH   1   2
ATOM      2  C   LIG    1       23.704 -20.891   7.002  0.00  0.00    +0.341 C 
ATOM      3  O   LIG    1       23.013 -20.202   6.277  0.00  0.00    -0.245 OA
BRANCH   2   4
ATOM      4  C   LIG    1       25.157 -20.674   7.188  0.00  0.00    +0.077 A 
ATOM      5  C   LIG    1       25.748 -20.639   8.443  0.00  0.00    +0.125 A 
ATOM      6  N   LIG    1       27.074 -20.443   8.650  0.00  0.00    -0.262 NA
ATOM      7  C   LIG    1       27.843 -20.273   7.554  0.00  0.00    +0.111 A 
ATOM      8  C   LIG    1       27.352 -20.302   6.258  0.00  0.00    +0.020 A 
ATOM      9  C   LIG    1       25.985 -20.508   6.073  0.00  0.00    +0.018 A 
ENDBRANCH   2   4
ENDBRANCH   1   2
BRANCH   1  10
ATOM     10  C   LIG    1       22.867 -23.104   6.988  0.00  0.00    +0.260 C 
BRANCH  10  11
ATOM     11  C   LIG    1       24.062 -23.989   6.637  0.00  0.00    +0.201 C 
BRANCH  11  12
ATOM     12  O   LIG    1       23.630 -25.333   6.414  0.00  0.00    -0.376 OA
BRANCH  12  13
ATOM     13  C   LIG    1       24.439 -25.983   5.432  0.00  0.00    +0.160 C 
BRANCH  13  14
ATOM     14  C   LIG    1       24.366 -27.501   5.606  0.00  0.00    +0.028 C 
BRANCH  14  16
ATOM     15  C   LIG    1       24.706 -29.408   7.247  0.00  0.00    +0.004 C 
ATOM     16  C   LIG    1       24.986 -27.947   6.932  0.00  0.00    -0.001 C 
ENDBRANCH  14  16
ENDBRANCH  13  14
ENDBRANCH  12  13
ENDBRANCH  11  12
ENDBRANCH  10  11
ENDBRANCH   1  10
TORSDOF 8
ENDMDL
