MODEL 1
REMARK VINA RESULT:      -5.7      0.000      0.000
REMARK  Name = *****
REMARK                            x       y       z     vdW  Elec       q    Type
REMARK                         _______ _______ _______ _____ _____    ______ ____
ROOT
ATOM      1  C   LIG    1       25.350 -15.209   3.678  0.00  0.00    -0.034 A 
ATOM      2  C   LIG    1       24.065 -15.622   4.062  0.00  0.00    +0.005 A 
ATOM      3  C   LIG    1       23.713 -16.979   4.079  0.00  0.00    +0.012 A 
ATOM      4  C   LIG    1       24.632 -17.955   3.679  0.00  0.00    +0.023 A 
ATOM      5  C   LIG    1       25.925 -17.549   3.313  0.00  0.00    +0.012 A 
ATOM      6  C   LIG    1       26.283 -16.193   3.320  0.00  0.00    +0.005 A 
ENDROOT
BRANCH   1   8
ATOM      7  C   LIG    1       24.565 -12.917   4.344  0.00  0.00    +0.024 C 
ATOM      8  C   LIG    1       25.710 -13.727   3.733  0.00  0.00    +0.124 C 
BRANCH   8   9
ATOM      9  C   LIG    1       27.031 -13.415   4.437  0.00  0.00    +0.312 C 
ATOM     10  O   LIG    1       28.112 -13.298   3.881  0.00  0.00    -0.250 OA
BRANCH   9  11
ATOM     11  O   LIG    1       26.914 -13.327   5.786  0.00  0.00    -0.480 OA
ATOM     12  H   LIG    1       27.755 -13.124   6.238  0.00  0.00    +0.295 HD
ENDBRANCH   9  11
ENDBRANCH   8   9
ENDBRANCH   1   8
BRANCH   4  13
ATOM     13  C   LIG    1       24.332 -19.423   3.732  0.00  0.00    +0.200 C 
ATOM     14  O   LIG    1       24.231 -20.002   2.649  0.00  0.00    -0.286 OA
BRANCH  13  15
ATOM     15  C   LIG    1       24.225 -20.149   4.994  0.00  0.00    +0.059 A 
ATOM     16  S   LIG    1       25.572 -20.858   5.782  0.00  0.00    -0.093 S 
ATOM     17  C   LIG    1       24.604 -21.452   7.061  0.00  0.00    +0.046 A 
ATOM     18  C   LIG    1       23.294 -21.048   6.944  0.00  0.00    +0.008 A 
ATOM     19  C   LIG    1       23.084 -20.271   5.769  0.00  0.00    +0.019 A 
ENDBRANCH  13  15
ENDBRANCH   4  13
TORSDOF 5
ENDMDL
MODEL 2
REMARK VINA RESULT:      -5.7      1.510      1.854
REMARK  Name = *****
REMARK                            x       y       z     vdW  Elec       q    Type
REMARK                         _______ _______ _______ _____ _____    ______ ____
ROOT
ATOM      1  C   LIG    1       25.132 -15.156   3.675  0.00  0.00    -0.034 A 
ATOM      2  C   LIG    1       23.874 -15.632   4.075  0.00  0.00    +0.005 A 
ATOM      3  C   LIG    1       23.591 -17.005   4.099  0.00  0.00    +0.012 A 
ATOM      4  C   LIG    1       24.552 -17.935   3.690  0.00  0.00    +0.023 A 
ATOM      5  C   LIG    1       25.818 -17.464   3.306  0.00  0.00    +0.012 A 
ATOM      6  C   LIG    1       26.108 -16.093   3.306  0.00  0.00    +0.005 A 
ENDROOT
BRANCH   1   8
ATOM      7  C   LIG    1       26.696 -13.328   2.950  0.00  0.00    +0.024 C 
ATOM      8  C   LIG    1       25.418 -13.658   3.723  0.00  0.00    +0.124 C 
BRANCH   8   9
ATOM      9  C   LIG    1       24.262 -12.771   3.262  0.00  0.00    +0.312 C 
ATOM     10  O   LIG    1       23.639 -12.001   3.976  0.00  0.00    -0.250 OA
BRANCH   9  11
ATOM     11  O   LIG    1       23.932 -12.950   1.958  0.00  0.00    -0.480 OA
ATOM     12  H   LIG    1       23.168 -13.543   1.825  0.00  0.00    +0.295 HD
ENDBRANCH   9  11
ENDBRANCH   8   9
ENDBRANCH   1   8
BRANCH   4  13
ATOM     13  C   LIG    1       24.327 -19.415   3.749  0.00  0.00    +0.200 C 
ATOM     14  O   LIG    1       24.325 -20.013   2.671  0.00  0.00    -0.286 OA
BRANCH  13  15
ATOM     15  C   LIG    1       24.179 -20.128   5.013  0.00  0.00    +0.059 A 
ATOM     16  S   LIG    1       25.454 -21.014   5.742  0.00  0.00    -0.093 S 
ATOM     17  C   LIG    1       24.472 -21.483   7.062  0.00  0.00    +0.046 A 
ATOM     18  C   LIG    1       23.223 -20.910   7.002  0.00  0.00    +0.008 A 
ATOM     19  C   LIG    1       23.066 -20.104   5.837  0.00  0.00    +0.019 A 
ENDBRANCH  13  15
ENDBRANCH   4  13
TORSDOF 5
ENDMDL
MODEL 3
REMARK VINA RESULT:      -5.4      2.773      6.720
REMARK  Name = *****
REMARK                            x       y       z     vdW  Elec       q    Type
REMARK                         _______ _______ _______ _____ _____    ______ ____
ROOT
ATOM      1  C   LIG    1       23.667 -18.997   4.027  0.00  0.00    -0.034 A 
ATOM      2  C   LIG    1       22.676 -18.072   4.388  0.00  0.00    +0.005 A 
ATOM      3  C   LIG    1       22.911 -16.691   4.322  0.00  0.00    +0.012 A 
ATOM      4  C   LIG    1       24.159 -16.203   3.922  0.00  0.00    +0.023 A 
ATOM      5  C   LIG    1       25.148 -17.124   3.541  0.00  0.00    +0.012 A 
ATOM      6  C   LIG    1       24.903 -18.504   3.585  0.00  0.00    +0.005 A 
ENDROOT
BRANCH   1   8
ATOM      7  C   LIG    1       24.633 -21.316   3.971  0.00  0.00    +0.024 C 
ATOM      8  C   LIG    1       23.348 -20.488   4.056  0.00  0.00    +0.124 C 
BRANCH   8   9
ATOM      9  C   LIG    1       22.492 -20.937   5.239  0.00  0.00    +0.312 C 
ATOM     10  O   LIG    1       22.793 -20.802   6.415  0.00  0.00    -0.250 OA
BRANCH   9  11
ATOM     11  O   LIG    1       21.351 -21.570   4.868  0.00  0.00    -0.480 OA
ATOM     12  H   LIG    1       21.319 -22.509   5.136  0.00  0.00    +0.295 HD
ENDBRANCH   9  11
ENDBRANCH   8   9
ENDBRANCH   1   8
BRANCH   4  13
ATOM     13  C   LIG    1       24.450 -14.740   3.776  0.00  0.00    +0.200 C 
ATOM     14  O   LIG    1       23.484 -14.008   3.550  0.00  0.00    -0.286 OA
BRANCH  13  15
ATOM     15  C   LIG    1       25.792 -14.193   3.951  0.00  0.00    +0.059 A 
ATOM     16  S   LIG    1       26.901 -14.007   2.658  0.00  0.00    -0.093 S 
ATOM     17  C   LIG    1       28.108 -13.367   3.688  0.00  0.00    +0.046 A 
ATOM     18  C   LIG    1       27.653 -13.213   4.978  0.00  0.00    +0.008 A 
ATOM     19  C   LIG    1       26.308 -13.661   5.120  0.00  0.00    +0.019 A 
ENDBRANCH  13  15
ENDBRANCH   4  13
TORSDOF 5
ENDMDL
MODEL 4
REMARK VINA RESULT:      -5.1      2.718      6.770
REMARK  Name = *****
REMARK                            x       y       z     vdW  Elec       q    Type
REMARK                         _______ _______ _______ _____ _____    ______ ____
ROOT
ATOM      1  C   LIG    1       24.159 -19.085   3.864  0.00  0.00    -0.034 A 
ATOM      2  C   LIG    1       23.380 -17.934   4.059  0.00  0.00    +0.005 A 
ATOM      3  C   LIG    1       23.924 -16.652   3.896  0.00  0.00    +0.012 A 
ATOM      4  C   LIG    1       25.273 -16.491   3.565  0.00  0.00    +0.023 A 
ATOM      5  C   LIG    1       26.052 -17.639   3.350  0.00  0.00    +0.012 A 
ATOM      6  C   LIG    1       25.500 -18.921   3.489  0.00  0.00    +0.005 A 
ENDROOT
BRANCH   1   8
ATOM      7  C   LIG    1       24.577 -21.558   4.024  0.00  0.00    +0.024 C 
ATOM      8  C   LIG    1       23.511 -20.460   3.992  0.00  0.00    +0.124 C 
BRANCH   8   9
ATOM      9  C   LIG    1       22.547 -20.607   5.168  0.00  0.00    +0.312 C 
ATOM     10  O   LIG    1       22.735 -20.163   6.290  0.00  0.00    -0.250 OA
BRANCH   9  11
ATOM     11  O   LIG    1       21.446 -21.343   4.874  0.00  0.00    -0.480 OA
ATOM     12  H   LIG    1       21.598 -22.014   4.181  0.00  0.00    +0.295 HD
ENDBRANCH   9  11
ENDBRANCH   8   9
ENDBRANCH   1   8
BRANCH   4  13
ATOM     13  C   LIG    1       25.895 -15.149   3.320  0.00  0.00    +0.200 C 
ATOM     14  O   LIG    1       27.068 -15.149   2.945  0.00  0.00    -0.286 OA
BRANCH  13  15
ATOM     15  C   LIG    1       25.141 -13.908   3.457  0.00  0.00    +0.059 A 
ATOM     16  S   LIG    1       24.652 -12.958   2.115  0.00  0.00    -0.093 S 
ATOM     17  C   LIG    1       23.905 -11.792   3.119  0.00  0.00    +0.046 A 
ATOM     18  C   LIG    1       23.945 -12.155   4.446  0.00  0.00    +0.008 A 
ATOM     19  C   LIG    1       24.630 -13.390   4.635  0.00  0.00    +0.019 A 
ENDBRANCH  13  15
ENDBRANCH   4  13
TORSDOF 5
ENDMDL
MODEL 5
REMARK VINA RESULT:      -4.9      1.048      1.408
REMARK  Name = *****
REMARK                            x       y       z     vdW  Elec       q    Type
REMARK                         _______ _______ _______ _____ _____    ______ ____
ROOT
ATOM      1  C   LIG    1       25.442 -15.315   3.617  0.00  0.00    -0.034 A 
ATOM      2  C   LIG    1       24.142 -15.679   3.999  0.00  0.00    +0.005 A 
ATOM      3  C   LIG    1       23.748 -17.023   4.046  0.00  0.00    +0.012 A 
ATOM      4  C   LIG    1       24.639 -18.037   3.678  0.00  0.00    +0.023 A 
ATOM      5  C   LIG    1       25.947 -17.679   3.313  0.00  0.00    +0.012 A 
ATOM      6  C   LIG    1       26.347 -16.335   3.290  0.00  0.00    +0.005 A 
ENDROOT
BRANCH   1   8
ATOM      7  C   LIG    1       25.057 -13.051   2.595  0.00  0.00    +0.024 C 
ATOM      8  C   LIG    1       25.847 -13.844   3.639  0.00  0.00    +0.124 C 
BRANCH   8   9
ATOM      9  C   LIG    1       25.755 -13.175   5.010  0.00  0.00    +0.312 C 
ATOM     10  O   LIG    1       24.822 -12.488   5.395  0.00  0.00    -0.250 OA
BRANCH   9  11
ATOM     11  O   LIG    1       26.857 -13.368   5.778  0.00  0.00    -0.480 OA
ATOM     12  H   LIG    1       27.332 -12.543   5.994  0.00  0.00    +0.295 HD
ENDBRANCH   9  11
ENDBRANCH   8   9
ENDBRANCH   1   8
BRANCH   4  13
ATOM     13  C   LIG    1       24.294 -19.493   3.764  0.00  0.00    +0.200 C 
ATOM     14  O   LIG    1       24.129 -20.082   2.694  0.00  0.00    -0.286 OA
BRANCH  13  15
ATOM     15  C   LIG    1       24.215 -20.198   5.039  0.00  0.00    +0.059 A 
ATOM     16  S   LIG    1       22.775 -20.928   5.617  0.00  0.00    -0.093 S 
ATOM     17  C   LIG    1       23.535 -21.462   7.054  0.00  0.00    +0.046 A 
ATOM     18  C   LIG    1       24.880 -21.171   7.062  0.00  0.00    +0.008 A 
ATOM     19  C   LIG    1       25.277 -20.471   5.886  0.00  0.00    +0.019 A 
ENDBRANCH  13  15
ENDBRANCH   4  13
TORSDOF 5
ENDMDL
MODEL 6
REMARK VINA RESULT:      -4.8      2.686      6.766
REMARK  Name = *****
REMARK                            x       y       z     vdW  Elec       q    Type
REMARK                         _______ _______ _______ _____ _____    ______ ____
ROOT
ATOM      1  C   LIG    1       24.159 -18.831   3.980  0.00  0.00    -0.034 A 
ATOM      2  C   LIG    1       25.496 -18.739   3.563  0.00  0.00    +0.005 A 
ATOM      3  C   LIG    1       26.094 -17.496   3.311  0.00  0.00    +0.012 A 
ATOM      4  C   LIG    1       25.356 -16.314   3.439  0.00  0.00    +0.023 A 
ATOM      5  C   LIG    1       24.024 -16.401   3.875  0.00  0.00    +0.012 A 
ATOM      6  C   LIG    1       23.434 -17.643   4.150  0.00  0.00    +0.005 A 
ENDROOT
BRANCH   1   8
ATOM      7  C   LIG    1       24.034 -21.243   3.285  0.00  0.00    +0.024 C 
ATOM      8  C   LIG    1       23.567 -20.200   4.303  0.00  0.00    +0.124 C 
BRANCH   8   9
ATOM      9  C   LIG    1       23.817 -20.685   5.730  0.00  0.00    +0.312 C 
ATOM     10  O   LIG    1       23.069 -20.497   6.677  0.00  0.00    -0.250 OA
BRANCH   9  11
ATOM     11  O   LIG    1       25.006 -21.321   5.882  0.00  0.00    -0.480 OA
ATOM     12  H   LIG    1       24.918 -22.258   6.142  0.00  0.00    +0.295 HD
ENDBRANCH   9  11
ENDBRANCH   8   9
ENDBRANCH   1   8
BRANCH   4  13
ATOM     13  C   LIG    1       25.957 -14.956   3.241  0.00  0.00    +0.200 C 
ATOM     14  O   LIG    1       27.139 -14.924   2.895  0.00  0.00    -0.286 OA
BRANCH  13  15
ATOM     15  C   LIG    1       25.175 -13.732   3.386  0.00  0.00    +0.059 A 
ATOM     16  S   LIG    1       24.635 -12.804   2.050  0.00  0.00    -0.093 S 
ATOM     17  C   LIG    1       23.880 -11.650   3.063  0.00  0.00    +0.046 A 
ATOM     18  C   LIG    1       23.957 -12.004   4.390  0.00  0.00    +0.008 A 
ATOM     19  C   LIG    1       24.676 -13.220   4.572  0.00  0.00    +0.019 A 
ENDBRANCH  13  15
ENDBRANCH   4  13
TORSDOF 5
ENDMDL
MODEL 7
REMARK VINA RESULT:      -4.7      2.569      6.686
REMARK  Name = *****
REMARK                            x       y       z     vdW  Elec       q    Type
REMARK                         _______ _______ _______ _____ _____    ______ ____
ROOT
ATOM      1  C   LIG    1       23.733 -18.482   4.042  0.00  0.00    -0.034 A 
ATOM      2  C   LIG    1       24.987 -18.093   3.548  0.00  0.00    +0.005 A 
ATOM      3  C   LIG    1       25.332 -16.740   3.424  0.00  0.00    +0.012 A 
ATOM      4  C   LIG    1       24.414 -15.740   3.763  0.00  0.00    +0.023 A 
ATOM      5  C   LIG    1       23.165 -16.124   4.276  0.00  0.00    +0.012 A 
ATOM      6  C   LIG    1       22.830 -17.478   4.422  0.00  0.00    +0.005 A 
ENDROOT
BRANCH   1   8
ATOM      7  C   LIG    1       24.146 -20.797   3.157  0.00  0.00    +0.024 C 
ATOM      8  C   LIG    1       23.422 -19.965   4.218  0.00  0.00    +0.124 C 
BRANCH   8   9
ATOM      9  C   LIG    1       23.695 -20.515   5.617  0.00  0.00    +0.312 C 
ATOM     10  O   LIG    1       22.852 -20.672   6.487  0.00  0.00    -0.250 OA
BRANCH   9  11
ATOM     11  O   LIG    1       25.007 -20.774   5.847  0.00  0.00    -0.480 OA
ATOM     12  H   LIG    1       25.473 -21.148   5.075  0.00  0.00    +0.295 HD
ENDBRANCH   9  11
ENDBRANCH   8   9
ENDBRANCH   1   8
BRANCH   4  13
ATOM     13  C   LIG    1       24.746 -14.280   3.707  0.00  0.00    +0.200 C 
ATOM     14  O   LIG    1       23.798 -13.507   3.558  0.00  0.00    -0.286 OA
BRANCH  13  15
ATOM     15  C   LIG    1       26.108 -13.786   3.882  0.00  0.00    +0.059 A 
ATOM     16  S   LIG    1       26.786 -13.437   5.417  0.00  0.00    -0.093 S 
ATOM     17  C   LIG    1       28.275 -12.947   4.731  0.00  0.00    +0.046 A 
ATOM     18  C   LIG    1       28.294 -13.126   3.366  0.00  0.00    +0.008 A 
ATOM     19  C   LIG    1       27.056 -13.639   2.883  0.00  0.00    +0.019 A 
ENDBRANCH  13  15
ENDBRANCH   4  13
TORSDOF 5
ENDMDL
MODEL 8
REMARK VINA RESULT:      -4.4      1.263      1.825
REMARK  Name = *****
REMARK                            x       y       z     vdW  Elec       q    Type
REMARK                         _______ _______ _______ _____ _____    ______ ____
ROOT
ATOM      1  C   LIG    1       24.389 -14.968   3.734  0.00  0.00    -0.034 A 
ATOM      2  C   LIG    1       25.150 -16.106   3.424  0.00  0.00    +0.005 A 
ATOM      3  C   LIG    1       24.651 -17.397   3.648  0.00  0.00    +0.012 A 
ATOM      4  C   LIG    1       23.388 -17.580   4.219  0.00  0.00    +0.023 A 
ATOM      5  C   LIG    1       22.615 -16.446   4.513  0.00  0.00    +0.012 A 
ATOM      6  C   LIG    1       23.105 -15.155   4.266  0.00  0.00    +0.005 A 
ENDROOT
BRANCH   1   8
ATOM      7  C   LIG    1       24.758 -12.642   4.609  0.00  0.00    +0.024 C 
ATOM      8  C   LIG    1       24.946 -13.584   3.417  0.00  0.00    +0.124 C 
BRANCH   8   9
ATOM      9  C   LIG    1       26.397 -13.571   2.940  0.00  0.00    +0.312 C 
ATOM     10  O   LIG    1       26.768 -13.859   1.812  0.00  0.00    -0.250 OA
BRANCH   9  11
ATOM     11  O   LIG    1       27.283 -13.256   3.918  0.00  0.00    -0.480 OA
ATOM     12  H   LIG    1       27.573 -12.324   3.898  0.00  0.00    +0.295 HD
ENDBRANCH   9  11
ENDBRANCH   8   9
ENDBRANCH   1   8
BRANCH   4  13
ATOM     13  C   LIG    1       22.779 -18.934   4.428  0.00  0.00    +0.200 C 
ATOM     14  O   LIG    1       21.733 -19.165   3.818  0.00  0.00    -0.286 OA
BRANCH  13  15
ATOM     15  C   LIG    1       23.415 -19.952   5.257  0.00  0.00    +0.059 A 
ATOM     16  S   LIG    1       25.074 -20.363   5.126  0.00  0.00    -0.093 S 
ATOM     17  C   LIG    1       24.954 -21.545   6.357  0.00  0.00    +0.046 A 
ATOM     18  C   LIG    1       23.700 -21.572   6.923  0.00  0.00    +0.008 A 
ATOM     19  C   LIG    1       22.823 -20.631   6.310  0.00  0.00    +0.019 A 
ENDBRANCH  13  15
ENDBRANCH   4  13
TORSDOF 5
ENDMDL
MODEL 9
REMARK VINA RESULT:      -3.6      2.691      6.594
REMARK  Name = *****
REMARK                            x       y       z     vdW  Elec       q    Type
REMARK                         _______ _______ _______ _____ _____    ______ ____
ROOT
ATOM      1  C   LIG    1       24.618 -18.757   3.936  0.00  0.00    -0.034 A 
ATOM      2  C   LIG    1       25.958 -18.595   3.550  0.00  0.00    +0.005 A 
ATOM      3  C   LIG    1       26.472 -17.333   3.223  0.00  0.00    +0.012 A 
ATOM      4  C   LIG    1       25.648 -16.203   3.243  0.00  0.00    +0.023 A 
ATOM      5  C   LIG    1       24.312 -16.357   3.647  0.00  0.00    +0.012 A 
ATOM      6  C   LIG    1       23.805 -17.616   3.997  0.00  0.00    +0.005 A 
ENDROOT
BRANCH   1   8
ATOM      7  C   LIG    1       25.218 -20.924   5.058  0.00  0.00    +0.024 C 
ATOM      8  C   LIG    1       24.116 -20.138   4.343  0.00  0.00    +0.124 C 
BRANCH   8   9
ATOM      9  C   LIG    1       22.830 -20.134   5.169  0.00  0.00    +0.312 C 
ATOM     10  O   LIG    1       21.703 -20.020   4.713  0.00  0.00    -0.250 OA
BRANCH   9  11
ATOM     11  O   LIG    1       23.049 -20.216   6.505  0.00  0.00    -0.480 OA
ATOM     12  H   LIG    1       23.676 -20.920   6.757  0.00  0.00    +0.295 HD
ENDBRANCH   9  11
ENDBRANCH   8   9
ENDBRANCH   1   8
BRANCH   4  13
ATOM     13  C   LIG    1       26.155 -14.822   2.960  0.00  0.00    +0.200 C 
ATOM     14  O   LIG    1       25.892 -14.357   1.849  0.00  0.00    -0.286 OA
BRANCH  13  15
ATOM     15  C   LIG    1       26.869 -14.036   3.962  0.00  0.00    +0.059 A 
ATOM     16  S   LIG    1       28.340 -13.219   3.635  0.00  0.00    -0.093 S 
ATOM     17  C   LIG    1       28.452 -12.627   5.236  0.00  0.00    +0.046 A 
ATOM     18  C   LIG    1       27.351 -12.967   5.988  0.00  0.00    +0.008 A 
ATOM     19  C   LIG    1       26.425 -13.753   5.243  0.00  0.00    +0.019 A 
ENDBRANCH  13  15
ENDBRANCH   4  13
TORSDOF 5
ENDMDL
