MODEL 1
REMARK VINA RESULT:      -0.6      0.000      0.000
REMARK  Name = *****
REMARK                            x       y       z     vdW  Elec       q    Type
REMARK                         _______ _______ _______ _____ _____    ______ ____
ROOT
ATOM      1  C   LIG    1       26.738 -20.053   7.062  0.00  0.00    +0.105 C 
ATOM      2  N   LIG    1       27.743 -20.061   5.994  0.00  0.00    -0.304 NA
ATOM      3  C   LIG    1       27.957 -18.691   5.508  0.00  0.00    +0.093 C 
ATOM      4  C   LIG    1       27.299 -18.567   4.110  0.00  0.00    +0.045 C 
ATOM      5  C   LIG    1       26.455 -19.862   3.937  0.00  0.00    +0.045 C 
ATOM      6  C   LIG    1       24.996 -19.822   4.353  0.00  0.00    -0.000 A 
ATOM      7  C   LIG    1       24.194 -18.708   4.091  0.00  0.00    +0.132 A 
ATOM      8  O   LIG    1       24.542 -17.792   3.132  0.00  0.00    -0.456 OA
ATOM      9  C   LIG    1       25.483 -16.858   3.466  0.00  0.00    +0.132 A 
ATOM     10  C   LIG    1       25.111 -15.527   3.226  0.00  0.00    +0.048 A 
ATOM     11  C   LIG    1       26.016 -14.482   3.418  0.00  0.00    +0.023 A 
ATOM     12  C   LIG    1       27.309 -14.776   3.829  0.00  0.00    +0.042 A 
ATOM     13 CL   LIG    1       28.451 -13.512   4.057  0.00  0.00    -0.084 Cl
ATOM     14  C   LIG    1       27.687 -16.099   4.046  0.00  0.00    +0.027 A 
ATOM     15  C   LIG    1       22.901 -18.611   4.619  0.00  0.00    +0.046 A 
ATOM     16  C   LIG    1       22.370 -19.645   5.384  0.00  0.00    +0.004 A 
ATOM     17  C   LIG    1       23.098 -20.818   5.541  0.00  0.00    +0.001 A 
ATOM     18  C   LIG    1       24.379 -20.912   5.001  0.00  0.00    +0.007 A 
ATOM     19  C   LIG    1       26.778 -17.171   3.878  0.00  0.00    +0.001 A 
ATOM     20  C   LIG    1       27.328 -20.812   4.794  0.00  0.00    +0.093 C 
ENDROOT
TORSDOF 0
ENDMDL
MODEL 2
REMARK VINA RESULT:      -0.2      3.400      6.705
REMARK  Name = *****
REMARK                            x       y       z     vdW  Elec       q    Type
REMARK                         _______ _______ _______ _____ _____    ______ ____
ROOT
ATOM      1  C   LIG    1       24.711 -12.151   5.657  0.00  0.00    +0.105 C 
ATOM      2  N   LIG    1       23.650 -12.383   4.671  0.00  0.00    -0.304 NA
ATOM      3  C   LIG    1       23.291 -13.807   4.660  0.00  0.00    +0.093 C 
ATOM      4  C   LIG    1       23.854 -14.436   3.359  0.00  0.00    +0.045 C 
ATOM      5  C   LIG    1       24.796 -13.357   2.756  0.00  0.00    +0.045 C 
ATOM      6  C   LIG    1       26.267 -13.409   3.123  0.00  0.00    -0.000 A 
ATOM      7  C   LIG    1       26.953 -14.623   3.213  0.00  0.00    +0.132 A 
ATOM      8  O   LIG    1       26.472 -15.757   2.612  0.00  0.00    -0.456 OA
ATOM      9  C   LIG    1       25.475 -16.435   3.254  0.00  0.00    +0.132 A 
ATOM     10  C   LIG    1       25.714 -17.804   3.448  0.00  0.00    +0.048 A 
ATOM     11  C   LIG    1       24.735 -18.636   3.991  0.00  0.00    +0.023 A 
ATOM     12  C   LIG    1       23.498 -18.097   4.319  0.00  0.00    +0.042 A 
ATOM     13 CL   LIG    1       22.265 -19.101   4.973  0.00  0.00    -0.084 Cl
ATOM     14  C   LIG    1       23.250 -16.743   4.107  0.00  0.00    +0.027 A 
ATOM     15  C   LIG    1       28.261 -14.676   3.709  0.00  0.00    +0.046 A 
ATOM     16  C   LIG    1       28.924 -13.511   4.085  0.00  0.00    +0.004 A 
ATOM     17  C   LIG    1       28.310 -12.283   3.874  0.00  0.00    +0.001 A 
ATOM     18  C   LIG    1       27.013 -12.237   3.367  0.00  0.00    +0.007 A 
ATOM     19  C   LIG    1       24.238 -15.879   3.577  0.00  0.00    +0.001 A 
ATOM     20  C   LIG    1       24.060 -12.100   3.282  0.00  0.00    +0.093 C 
ENDROOT
TORSDOF 0
ENDMDL
MODEL 3
REMARK VINA RESULT:       0.2      1.338      1.678
REMARK  Name = *****
REMARK                            x       y       z     vdW  Elec       q    Type
REMARK                         _______ _______ _______ _____ _____    ______ ____
ROOT
ATOM      1  C   LIG    1       27.288 -19.815   6.059  0.00  0.00    +0.105 C 
ATOM      2  N   LIG    1       27.650 -19.480   4.678  0.00  0.00    -0.304 NA
ATOM      3  C   LIG    1       27.270 -18.091   4.392  0.00  0.00    +0.093 C 
ATOM      4  C   LIG    1       26.032 -18.111   3.460  0.00  0.00    +0.045 C 
ATOM      5  C   LIG    1       25.551 -19.590   3.449  0.00  0.00    +0.045 C 
ATOM      6  C   LIG    1       24.492 -20.002   4.454  0.00  0.00    -0.000 A 
ATOM      7  C   LIG    1       23.414 -19.168   4.761  0.00  0.00    +0.132 A 
ATOM      8  O   LIG    1       23.041 -18.152   3.920  0.00  0.00    -0.456 OA
ATOM      9  C   LIG    1       23.767 -16.995   3.969  0.00  0.00    +0.132 A 
ATOM     10  C   LIG    1       23.013 -15.825   4.146  0.00  0.00    +0.048 A 
ATOM     11  C   LIG    1       23.616 -14.568   4.105  0.00  0.00    +0.023 A 
ATOM     12  C   LIG    1       24.979 -14.481   3.859  0.00  0.00    +0.042 A 
ATOM     13 CL   LIG    1       25.747 -12.944   3.785  0.00  0.00    -0.084 Cl
ATOM     14  C   LIG    1       25.726 -15.639   3.660  0.00  0.00    +0.027 A 
ATOM     15  C   LIG    1       22.534 -19.481   5.804  0.00  0.00    +0.046 A 
ATOM     16  C   LIG    1       22.690 -20.656   6.533  0.00  0.00    +0.004 A 
ATOM     17  C   LIG    1       23.671 -21.564   6.155  0.00  0.00    +0.001 A 
ATOM     18  C   LIG    1       24.534 -21.252   5.107  0.00  0.00    +0.007 A 
ATOM     19  C   LIG    1       25.137 -16.925   3.720  0.00  0.00    +0.001 A 
ATOM     20  C   LIG    1       26.924 -20.272   3.666  0.00  0.00    +0.093 C 
ENDROOT
TORSDOF 0
ENDMDL
MODEL 4
REMARK VINA RESULT:       0.3      2.684      4.230
REMARK  Name = *****
REMARK                            x       y       z     vdW  Elec       q    Type
REMARK                         _______ _______ _______ _____ _____    ______ ____
ROOT
ATOM      1  C   LIG    1       22.143 -20.490   6.222  0.00  0.00    +0.105 C 
ATOM      2  N   LIG    1       22.814 -21.567   5.485  0.00  0.00    -0.304 NA
ATOM      3  C   LIG    1       24.257 -21.525   5.758  0.00  0.00    +0.093 C 
ATOM      4  C   LIG    1       24.971 -20.986   4.492  0.00  0.00    +0.045 C 
ATOM      5  C   LIG    1       23.834 -20.459   3.572  0.00  0.00    +0.045 C 
ATOM      6  C   LIG    1       23.454 -18.993   3.679  0.00  0.00    -0.000 A 
ATOM      7  C   LIG    1       24.423 -17.998   3.834  0.00  0.00    +0.132 A 
ATOM      8  O   LIG    1       25.735 -18.228   3.509  0.00  0.00    -0.456 OA
ATOM      9  C   LIG    1       26.497 -18.913   4.414  0.00  0.00    +0.132 A 
ATOM     10  C   LIG    1       27.702 -18.288   4.772  0.00  0.00    +0.048 A 
ATOM     11  C   LIG    1       28.624 -18.927   5.601  0.00  0.00    +0.023 A 
ATOM     12  C   LIG    1       28.349 -20.210   6.054  0.00  0.00    +0.042 A 
ATOM     13 CL   LIG    1       29.475 -21.029   7.062  0.00  0.00    -0.084 Cl
ATOM     14  C   LIG    1       27.164 -20.841   5.682  0.00  0.00    +0.027 A 
ATOM     15  C   LIG    1       24.059 -16.672   4.094  0.00  0.00    +0.046 A 
ATOM     16  C   LIG    1       22.718 -16.307   4.163  0.00  0.00    +0.004 A 
ATOM     17  C   LIG    1       21.741 -17.252   3.876  0.00  0.00    +0.001 A 
ATOM     18  C   LIG    1       22.112 -18.567   3.604  0.00  0.00    +0.007 A 
ATOM     19  C   LIG    1       26.206 -20.201   4.859  0.00  0.00    +0.001 A 
ATOM     20  C   LIG    1       22.716 -21.432   4.019  0.00  0.00    +0.093 C 
ENDROOT
TORSDOF 0
ENDMDL
MODEL 5
REMARK VINA RESULT:       1.9      3.183      6.137
REMARK  Name = *****
REMARK                            x       y       z     vdW  Elec       q    Type
REMARK                         _______ _______ _______ _____ _____    ______ ____
ROOT
ATOM      1  C   LIG    1       23.718 -13.887   5.939  0.00  0.00    +0.105 C 
ATOM      2  N   LIG    1       22.689 -14.311   4.984  0.00  0.00    -0.304 NA
ATOM      3  C   LIG    1       22.552 -15.773   5.025  0.00  0.00    +0.093 C 
ATOM      4  C   LIG    1       23.181 -16.352   3.732  0.00  0.00    +0.045 C 
ATOM      5  C   LIG    1       23.936 -15.163   3.074  0.00  0.00    +0.045 C 
ATOM      6  C   LIG    1       25.404 -14.977   3.410  0.00  0.00    -0.000 A 
ATOM      7  C   LIG    1       26.270 -16.069   3.522  0.00  0.00    +0.132 A 
ATOM      8  O   LIG    1       25.958 -17.283   2.967  0.00  0.00    -0.456 OA
ATOM      9  C   LIG    1       25.087 -18.083   3.651  0.00  0.00    +0.132 A 
ATOM     10  C   LIG    1       25.536 -19.393   3.881  0.00  0.00    +0.048 A 
ATOM     11  C   LIG    1       24.705 -20.345   4.471  0.00  0.00    +0.023 A 
ATOM     12  C   LIG    1       23.407 -19.991   4.810  0.00  0.00    +0.042 A 
ATOM     13 CL   LIG    1       22.353 -21.148   5.522  0.00  0.00    -0.084 Cl
ATOM     14  C   LIG    1       22.951 -18.698   4.562  0.00  0.00    +0.027 A 
ATOM     15  C   LIG    1       27.578 -15.906   3.991  0.00  0.00    +0.046 A 
ATOM     16  C   LIG    1       28.062 -14.642   4.316  0.00  0.00    +0.004 A 
ATOM     17  C   LIG    1       27.264 -13.529   4.081  0.00  0.00    +0.001 A 
ATOM     18  C   LIG    1       25.966 -13.699   3.602  0.00  0.00    +0.007 A 
ATOM     19  C   LIG    1       23.785 -17.711   3.984  0.00  0.00    +0.001 A 
ATOM     20  C   LIG    1       23.026 -14.016   3.579  0.00  0.00    +0.093 C 
ENDROOT
TORSDOF 0
ENDMDL
