MODEL 1
REMARK VINA RESULT:      -6.2      0.000      0.000
REMARK  Name = *****
REMARK                            x       y       z     vdW  Elec       q    Type
REMARK                         _______ _______ _______ _____ _____    ______ ____
ROOT
ATOM      1  C   LIG    1       26.487 -20.549   6.568  0.00  0.00    +0.079 C 
ATOM      2  C   LIG    1       27.202 -19.506   5.655  0.00  0.00    +0.137 C 
ATOM      3  C   LIG    1       28.641 -20.024   5.449  0.00  0.00    +0.130 C 
ATOM      4  C   LIG    1       28.835 -21.114   6.514  0.00  0.00    +0.062 C 
ATOM      5  C   LIG    1       27.684 -20.897   7.503  0.00  0.00    +0.196 C 
ENDROOT
BRANCH   2   6
ATOM      6  O   LIG    1       26.538 -19.241   4.437  0.00  0.00    -0.391 OA
ATOM      7  H   LIG    1       26.937 -18.432   4.063  0.00  0.00    +0.210 HD
ENDBRANCH   2   6
BRANCH   3   8
ATOM      8  C   LIG    1       29.654 -18.894   5.509  0.00  0.00    +0.310 C 
ATOM      9  O   LIG    1       30.807 -19.058   5.934  0.00  0.00    -0.251 OA
BRANCH   8  10
ATOM     10  O   LIG    1       29.259 -17.697   5.025  0.00  0.00    -0.480 OA
ATOM     11  H   LIG    1       28.429 -17.355   5.440  0.00  0.00    +0.295 HD
ENDBRANCH   8  10
ENDBRANCH   3   8
BRANCH   5  12
ATOM     12  N   LIG    1       28.080 -19.722   8.328  0.00  0.00    -0.110 NA
ATOM     13  C   LIG    1       29.271 -19.639   8.790  0.00  0.00    +0.377 C 
BRANCH  13  14
ATOM     14  N   LIG    1       29.635 -18.602   9.580  0.00  0.00    -0.289 N 
ATOM     15  H   LIG    1       28.862 -18.111  10.012  0.00  0.00    +0.255 HD
ATOM     16  H   LIG    1       30.254 -17.949   9.111  0.00  0.00    +0.255 HD
ENDBRANCH  13  14
BRANCH  13  17
ATOM     17  N   LIG    1       30.333 -20.450   8.594  0.00  0.00    -0.289 N 
ATOM     18  H   LIG    1       31.178 -19.942   8.362  0.00  0.00    +0.255 HD
ATOM     19  H   LIG    1       30.160 -21.163   7.895  0.00  0.00    +0.255 HD
ENDBRANCH  13  17
ENDBRANCH   5  12
BRANCH   1  20
ATOM     20  C   LIG    1       25.783 -21.817   5.875  0.00  0.00    +0.085 C 
BRANCH  20  21
ATOM     21  N   LIG    1       26.025 -23.073   6.645  0.00  0.00    -0.312 N 
ATOM     22  H   LIG    1       26.087 -22.986   7.654  0.00  0.00    +0.149 HD
ATOM     23  C   LIG    1       25.700 -24.326   6.173  0.00  0.00    +0.210 C 
ATOM     24  O   LIG    1       25.259 -24.523   5.028  0.00  0.00    -0.276 OA
ATOM     25  C   LIG    1       25.927 -25.481   7.114  0.00  0.00    +0.109 C 
ENDBRANCH  20  21
BRANCH  20  26
ATOM     26  C   LIG    1       24.233 -21.726   5.523  0.00  0.00    +0.009 C 
BRANCH  26  28
ATOM     27  C   LIG    1       22.438 -23.145   6.871  0.00  0.00    +0.004 C 
ATOM     28  C   LIG    1       23.324 -21.899   6.803  0.00  0.00    +0.002 C 
ENDBRANCH  26  28
BRANCH  26  29
ATOM     29  C   LIG    1       23.731 -20.470   4.757  0.00  0.00    +0.002 C 
ATOM     30  C   LIG    1       22.591 -19.668   5.349  0.00  0.00    +0.004 C 
ENDBRANCH  26  29
ENDBRANCH  20  26
ENDBRANCH   1  20
TORSDOF 11
ENDMDL
MODEL 2
REMARK VINA RESULT:      -6.2      2.259      3.812
REMARK  Name = *****
REMARK                            x       y       z     vdW  Elec       q    Type
REMARK                         _______ _______ _______ _____ _____    ______ ____
ROOT
ATOM      1  C   LIG    1       28.478 -19.902   6.434  0.00  0.00    +0.079 C 
ATOM      2  C   LIG    1       29.368 -21.123   6.821  0.00  0.00    +0.137 C 
ATOM      3  C   LIG    1       29.329 -21.218   8.361  0.00  0.00    +0.130 C 
ATOM      4  C   LIG    1       28.750 -19.877   8.834  0.00  0.00    +0.062 C 
ATOM      5  C   LIG    1       28.858 -18.957   7.613  0.00  0.00    +0.196 C 
ENDROOT
BRANCH   2   6
ATOM      6  O   LIG    1       29.007 -22.335   6.190  0.00  0.00    -0.391 OA
ATOM      7  H   LIG    1       29.837 -22.783   5.934  0.00  0.00    +0.210 HD
ENDBRANCH   2   6
BRANCH   3   8
ATOM      8  C   LIG    1       30.695 -21.555   8.933  0.00  0.00    +0.310 C 
ATOM      9  O   LIG    1       30.834 -22.160  10.006  0.00  0.00    -0.251 OA
BRANCH   8  10
ATOM     10  O   LIG    1       31.768 -21.210   8.190  0.00  0.00    -0.480 OA
ATOM     11  H   LIG    1       32.351 -20.537   8.622  0.00  0.00    +0.295 HD
ENDBRANCH   8  10
ENDBRANCH   3   8
BRANCH   5  12
ATOM     12  N   LIG    1       30.290 -18.555   7.538  0.00  0.00    -0.110 NA
ATOM     13  C   LIG    1       30.794 -17.816   8.454  0.00  0.00    +0.377 C 
BRANCH  13  14
ATOM     14  N   LIG    1       32.080 -17.402   8.379  0.00  0.00    -0.289 N 
ATOM     15  H   LIG    1       32.499 -17.496   7.461  0.00  0.00    +0.255 HD
ATOM     16  H   LIG    1       32.672 -17.827   9.085  0.00  0.00    +0.255 HD
ENDBRANCH  13  14
BRANCH  13  17
ATOM     17  N   LIG    1       30.239 -17.356   9.596  0.00  0.00    -0.289 N 
ATOM     18  H   LIG    1       29.866 -18.096  10.178  0.00  0.00    +0.255 HD
ATOM     19  H   LIG    1       29.525 -16.656   9.433  0.00  0.00    +0.255 HD
ENDBRANCH  13  17
ENDBRANCH   5  12
BRANCH   1  20
ATOM     20  C   LIG    1       26.899 -20.138   6.241  0.00  0.00    +0.085 C 
BRANCH  20  21
ATOM     21  N   LIG    1       26.546 -20.372   4.809  0.00  0.00    -0.312 N 
ATOM     22  H   LIG    1       26.998 -21.155   4.349  0.00  0.00    +0.149 HD
ATOM     23  C   LIG    1       25.366 -19.946   4.240  0.00  0.00    +0.210 C 
ATOM     24  O   LIG    1       24.535 -19.252   4.849  0.00  0.00    -0.276 OA
ATOM     25  C   LIG    1       25.126 -20.344   2.806  0.00  0.00    +0.109 C 
ENDBRANCH  20  21
BRANCH  20  26
ATOM     26  C   LIG    1       26.184 -21.248   7.130  0.00  0.00    +0.009 C 
BRANCH  26  28
ATOM     27  C   LIG    1       23.567 -21.021   7.523  0.00  0.00    +0.004 C 
ATOM     28  C   LIG    1       24.984 -20.653   7.968  0.00  0.00    +0.002 C 
ENDBRANCH  26  28
BRANCH  26  29
ATOM     29  C   LIG    1       25.669 -22.531   6.419  0.00  0.00    +0.002 C 
ATOM     30  C   LIG    1       25.910 -23.872   7.081  0.00  0.00    +0.004 C 
ENDBRANCH  26  29
ENDBRANCH  20  26
ENDBRANCH   1  20
TORSDOF 11
ENDMDL
MODEL 3
REMARK VINA RESULT:      -6.0      3.134      5.651
REMARK  Name = *****
REMARK                            x       y       z     vdW  Elec       q    Type
REMARK                         _______ _______ _______ _____ _____    ______ ____
ROOT
ATOM      1  C   LIG    1       25.848 -20.229   6.163  0.00  0.00    +0.079 C 
ATOM      2  C   LIG    1       24.336 -20.273   6.544  0.00  0.00    +0.137 C 
ATOM      3  C   LIG    1       23.683 -21.310   5.606  0.00  0.00    +0.130 C 
ATOM      4  C   LIG    1       24.713 -21.555   4.493  0.00  0.00    +0.062 C 
ATOM      5  C   LIG    1       25.703 -20.391   4.620  0.00  0.00    +0.196 C 
ENDROOT
BRANCH   2   6
ATOM      6  O   LIG    1       24.083 -20.536   7.908  0.00  0.00    -0.391 OA
ATOM      7  H   LIG    1       23.734 -19.712   8.299  0.00  0.00    +0.210 HD
ENDBRANCH   2   6
BRANCH   3   8
ATOM      8  C   LIG    1       22.323 -20.842   5.117  0.00  0.00    +0.310 C 
ATOM      9  O   LIG    1       22.072 -19.647   4.898  0.00  0.00    -0.251 OA
BRANCH   8  10
ATOM     10  O   LIG    1       21.400 -21.797   4.879  0.00  0.00    -0.480 OA
ATOM     11  H   LIG    1       20.620 -21.476   4.362  0.00  0.00    +0.295 HD
ENDBRANCH   8  10
ENDBRANCH   3   8
BRANCH   5  12
ATOM     12  N   LIG    1       25.017 -19.215   4.019  0.00  0.00    -0.110 NA
ATOM     13  C   LIG    1       25.691 -18.167   3.721  0.00  0.00    +0.377 C 
BRANCH  13  14
ATOM     14  N   LIG    1       25.077 -17.070   3.218  0.00  0.00    -0.289 N 
ATOM     15  H   LIG    1       25.140 -16.977   2.212  0.00  0.00    +0.255 HD
ATOM     16  H   LIG    1       25.372 -16.212   3.673  0.00  0.00    +0.255 HD
ENDBRANCH  13  14
BRANCH  13  17
ATOM     17  N   LIG    1       27.021 -17.944   3.796  0.00  0.00    -0.289 N 
ATOM     18  H   LIG    1       27.514 -18.225   2.958  0.00  0.00    +0.255 HD
ATOM     19  H   LIG    1       27.448 -18.378   4.606  0.00  0.00    +0.255 HD
ENDBRANCH  13  17
ENDBRANCH   5  12
BRANCH   1  20
ATOM     20  C   LIG    1       26.844 -21.281   6.860  0.00  0.00    +0.085 C 
BRANCH  20  21
ATOM     21  N   LIG    1       26.626 -22.668   6.352  0.00  0.00    -0.312 N 
ATOM     22  H   LIG    1       27.298 -23.019   5.678  0.00  0.00    +0.149 HD
ATOM     23  C   LIG    1       25.919 -23.627   7.045  0.00  0.00    +0.210 C 
ATOM     24  O   LIG    1       25.327 -23.391   8.111  0.00  0.00    -0.276 OA
ATOM     25  C   LIG    1       25.870 -25.003   6.432  0.00  0.00    +0.109 C 
ENDBRANCH  20  21
BRANCH  20  26
ATOM     26  C   LIG    1       28.405 -20.973   6.845  0.00  0.00    +0.009 C 
BRANCH  26  28
ATOM     27  C   LIG    1       29.581 -18.839   5.789  0.00  0.00    +0.004 C 
ATOM     28  C   LIG    1       28.704 -19.423   6.899  0.00  0.00    +0.002 C 
ENDBRANCH  26  28
BRANCH  26  29
ATOM     29  C   LIG    1       29.295 -21.661   7.919  0.00  0.00    +0.002 C 
ATOM     30  C   LIG    1       30.526 -20.931   8.415  0.00  0.00    +0.004 C 
ENDBRANCH  26  29
ENDBRANCH  20  26
ENDBRANCH   1  20
TORSDOF 11
ENDMDL
MODEL 4
REMARK VINA RESULT:      -6.0      8.271     11.331
REMARK  Name = *****
REMARK                            x       y       z     vdW  Elec       q    Type
REMARK                         _______ _______ _______ _____ _____    ______ ____
ROOT
ATOM      1  C   LIG    1       26.527 -31.256   8.722  0.00  0.00    +0.079 C 
ATOM      2  C   LIG    1       25.886 -32.170   9.811  0.00  0.00    +0.137 C 
ATOM      3  C   LIG    1       24.930 -31.272  10.625  0.00  0.00    +0.130 C 
ATOM      4  C   LIG    1       25.309 -29.833  10.247  0.00  0.00    +0.062 C 
ATOM      5  C   LIG    1       26.679 -29.957   9.571  0.00  0.00    +0.196 C 
ENDROOT
BRANCH   2   6
ATOM      6  O   LIG    1       25.251 -33.326   9.305  0.00  0.00    -0.391 OA
ATOM      7  H   LIG    1       25.349 -34.025   9.980  0.00  0.00    +0.210 HD
ENDBRANCH   2   6
BRANCH   3   8
ATOM      8  C   LIG    1       25.007 -31.579  12.110  0.00  0.00    +0.310 C 
ATOM      9  O   LIG    1       24.007 -31.566  12.842  0.00  0.00    -0.251 OA
BRANCH   8  10
ATOM     10  O   LIG    1       26.218 -31.920  12.599  0.00  0.00    -0.480 OA
ATOM     11  H   LIG    1       26.188 -32.281  13.520  0.00  0.00    +0.295 HD
ENDBRANCH   8  10
ENDBRANCH   3   8
BRANCH   5  12
ATOM     12  N   LIG    1       27.656 -30.151  10.677  0.00  0.00    -0.110 NA
ATOM     13  C   LIG    1       27.993 -29.158  11.413  0.00  0.00    +0.377 C 
BRANCH  13  14
ATOM     14  N   LIG    1       28.915 -29.305  12.392  0.00  0.00    -0.289 N 
ATOM     15  H   LIG    1       29.303 -30.238  12.468  0.00  0.00    +0.255 HD
ATOM     16  H   LIG    1       28.583 -28.983  13.295  0.00  0.00    +0.255 HD
ENDBRANCH  13  14
BRANCH  13  17
ATOM     17  N   LIG    1       27.536 -27.887  11.411  0.00  0.00    -0.289 N 
ATOM     18  H   LIG    1       26.637 -27.793  10.955  0.00  0.00    +0.255 HD
ATOM     19  H   LIG    1       28.195 -27.233  11.007  0.00  0.00    +0.255 HD
ENDBRANCH  13  17
ENDBRANCH   5  12
BRANCH   1  20
ATOM     20  C   LIG    1       25.746 -31.062   7.330  0.00  0.00    +0.085 C 
BRANCH  20  21
ATOM     21  N   LIG    1       25.631 -29.621   6.956  0.00  0.00    -0.312 N 
ATOM     22  H   LIG    1       26.499 -29.114   6.820  0.00  0.00    +0.149 HD
ATOM     23  C   LIG    1       24.523 -29.085   6.338  0.00  0.00    +0.210 C 
ATOM     24  O   LIG    1       23.489 -29.738   6.120  0.00  0.00    -0.276 OA
ATOM     25  C   LIG    1       24.605 -27.632   5.947  0.00  0.00    +0.109 C 
ENDBRANCH  20  21
BRANCH  20  26
ATOM     26  C   LIG    1       26.248 -31.879   6.059  0.00  0.00    +0.009 C 
BRANCH  26  28
ATOM     27  C   LIG    1       27.990 -33.729   5.288  0.00  0.00    +0.004 C 
ATOM     28  C   LIG    1       27.465 -32.824   6.405  0.00  0.00    +0.002 C 
ENDBRANCH  26  28
BRANCH  26  29
ATOM     29  C   LIG    1       25.204 -32.725   5.277  0.00  0.00    +0.002 C 
ATOM     30  C   LIG    1       23.946 -33.167   5.996  0.00  0.00    +0.004 C 
ENDBRANCH  26  29
ENDBRANCH  20  26
ENDBRANCH   1  20
TORSDOF 11
ENDMDL
MODEL 5
REMARK VINA RESULT:      -6.0      7.592     10.558
REMARK  Name = *****
REMARK                            x       y       z     vdW  Elec       q    Type
REMARK                         _______ _______ _______ _____ _____    ______ ____
ROOT
ATOM      1  C   LIG    1       24.711 -29.373   8.628  0.00  0.00    +0.079 C 
ATOM      2  C   LIG    1       26.092 -29.008   9.253  0.00  0.00    +0.137 C 
ATOM      3  C   LIG    1       26.717 -30.335   9.731  0.00  0.00    +0.130 C 
ATOM      4  C   LIG    1       25.566 -31.352   9.718  0.00  0.00    +0.062 C 
ATOM      5  C   LIG    1       24.297 -30.497   9.624  0.00  0.00    +0.196 C 
ENDROOT
BRANCH   2   6
ATOM      6  O   LIG    1       26.948 -28.279   8.398  0.00  0.00    -0.391 OA
ATOM      7  H   LIG    1       26.636 -27.353   8.400  0.00  0.00    +0.210 HD
ENDBRANCH   2   6
BRANCH   3   8
ATOM      8  C   LIG    1       27.405 -30.175  11.076  0.00  0.00    +0.310 C 
ATOM      9  O   LIG    1       28.529 -29.667  11.190  0.00  0.00    -0.251 OA
BRANCH   8  10
ATOM     10  O   LIG    1       26.710 -30.569  12.165  0.00  0.00    -0.480 OA
ATOM     11  H   LIG    1       27.250 -31.081  12.817  0.00  0.00    +0.295 HD
ENDBRANCH   8  10
ENDBRANCH   3   8
BRANCH   5  12
ATOM     12  N   LIG    1       24.080 -29.950  10.991  0.00  0.00    -0.110 NA
ATOM     13  C   LIG    1       22.898 -29.909  11.483  0.00  0.00    +0.377 C 
BRANCH  13  14
ATOM     14  N   LIG    1       22.676 -29.371  12.705  0.00  0.00    -0.289 N 
ATOM     15  H   LIG    1       21.827 -28.821  12.774  0.00  0.00    +0.255 HD
ATOM     16  H   LIG    1       23.470 -28.844  13.052  0.00  0.00    +0.255 HD
ENDBRANCH  13  14
BRANCH  13  17
ATOM     17  N   LIG    1       21.734 -30.369  10.975  0.00  0.00    -0.289 N 
ATOM     18  H   LIG    1       21.449 -31.252  11.382  0.00  0.00    +0.255 HD
ATOM     19  H   LIG    1       21.749 -30.447   9.965  0.00  0.00    +0.255 HD
ENDBRANCH  13  17
ENDBRANCH   5  12
BRANCH   1  20
ATOM     20  C   LIG    1       24.660 -29.794   7.078  0.00  0.00    +0.085 C 
BRANCH  20  21
ATOM     21  N   LIG    1       25.507 -28.899   6.233  0.00  0.00    -0.312 N 
ATOM     22  H   LIG    1       26.244 -29.342   5.695  0.00  0.00    +0.149 HD
ATOM     23  C   LIG    1       25.084 -27.672   5.771  0.00  0.00    +0.210 C 
ATOM     24  O   LIG    1       23.996 -27.167   6.094  0.00  0.00    -0.276 OA
ATOM     25  C   LIG    1       26.028 -26.935   4.856  0.00  0.00    +0.109 C 
ENDBRANCH  20  21
BRANCH  20  26
ATOM     26  C   LIG    1       24.977 -31.306   6.692  0.00  0.00    +0.009 C 
BRANCH  26  28
ATOM     27  C   LIG    1       23.143 -33.210   6.938  0.00  0.00    +0.004 C 
ATOM     28  C   LIG    1       23.707 -32.049   6.117  0.00  0.00    +0.002 C 
ENDBRANCH  26  28
BRANCH  26  29
ATOM     29  C   LIG    1       26.161 -31.578   5.721  0.00  0.00    +0.002 C 
ATOM     30  C   LIG    1       27.132 -32.691   6.058  0.00  0.00    +0.004 C 
ENDBRANCH  26  29
ENDBRANCH  20  26
ENDBRANCH   1  20
TORSDOF 11
ENDMDL
MODEL 6
REMARK VINA RESULT:      -5.9      9.734     11.653
REMARK  Name = *****
REMARK                            x       y       z     vdW  Elec       q    Type
REMARK                         _______ _______ _______ _____ _____    ______ ____
ROOT
ATOM      1  C   LIG    1       23.443 -30.134   9.904  0.00  0.00    +0.079 C 
ATOM      2  C   LIG    1       22.820 -31.522   9.559  0.00  0.00    +0.137 C 
ATOM      3  C   LIG    1       23.980 -32.405   9.052  0.00  0.00    +0.130 C 
ATOM      4  C   LIG    1       25.135 -31.433   8.769  0.00  0.00    +0.062 C 
ATOM      5  C   LIG    1       24.476 -30.049   8.741  0.00  0.00    +0.196 C 
ENDROOT
BRANCH   2   6
ATOM      6  O   LIG    1       22.100 -32.120  10.616  0.00  0.00    -0.391 OA
ATOM      7  H   LIG    1       21.226 -32.373  10.260  0.00  0.00    +0.210 HD
ENDBRANCH   2   6
BRANCH   3   8
ATOM      8  C   LIG    1       23.559 -33.252   7.865  0.00  0.00    +0.310 C 
ATOM      9  O   LIG    1       22.423 -33.739   7.766  0.00  0.00    -0.251 OA
BRANCH   8  10
ATOM     10  O   LIG    1       24.468 -33.414   6.880  0.00  0.00    -0.480 OA
ATOM     11  H   LIG    1       25.405 -33.384   7.195  0.00  0.00    +0.295 HD
ENDBRANCH   8  10
ENDBRANCH   3   8
BRANCH   5  12
ATOM     12  N   LIG    1       23.792 -29.956   7.422  0.00  0.00    -0.110 NA
ATOM     13  C   LIG    1       24.326 -29.285   6.471  0.00  0.00    +0.377 C 
BRANCH  13  14
ATOM     14  N   LIG    1       23.695 -29.151   5.281  0.00  0.00    -0.289 N 
ATOM     15  H   LIG    1       22.894 -28.531   5.297  0.00  0.00    +0.255 HD
ATOM     16  H   LIG    1       23.446 -30.043   4.865  0.00  0.00    +0.255 HD
ENDBRANCH  13  14
BRANCH  13  17
ATOM     17  N   LIG    1       25.519 -28.655   6.422  0.00  0.00    -0.289 N 
ATOM     18  H   LIG    1       25.993 -28.639   7.317  0.00  0.00    +0.255 HD
ATOM     19  H   LIG    1       25.452 -27.713   6.054  0.00  0.00    +0.255 HD
ENDBRANCH  13  17
ENDBRANCH   5  12
BRANCH   1  20
ATOM     20  C   LIG    1       24.064 -29.919  11.372  0.00  0.00    +0.085 C 
BRANCH  20  21
ATOM     21  N   LIG    1       25.370 -29.197  11.320  0.00  0.00    -0.312 N 
ATOM     22  H   LIG    1       25.331 -28.183  11.321  0.00  0.00    +0.149 HD
ATOM     23  C   LIG    1       26.559 -29.750  11.743  0.00  0.00    +0.210 C 
ATOM     24  O   LIG    1       26.659 -30.930  12.119  0.00  0.00    -0.276 OA
ATOM     25  C   LIG    1       27.770 -28.853  11.707  0.00  0.00    +0.109 C 
ENDBRANCH  20  21
BRANCH  20  26
ATOM     26  C   LIG    1       23.153 -29.244  12.489  0.00  0.00    +0.009 C 
BRANCH  26  28
ATOM     27  C   LIG    1       22.746 -26.756  13.324  0.00  0.00    +0.004 C 
ATOM     28  C   LIG    1       23.744 -27.865  12.982  0.00  0.00    +0.002 C 
ENDBRANCH  26  28
BRANCH  26  29
ATOM     29  C   LIG    1       21.648 -29.022  12.167  0.00  0.00    +0.002 C 
ATOM     30  C   LIG    1       20.620 -29.866  12.892  0.00  0.00    +0.004 C 
ENDBRANCH  26  29
ENDBRANCH  20  26
ENDBRANCH   1  20
TORSDOF 11
ENDMDL
MODEL 7
REMARK VINA RESULT:      -5.9      3.468      5.344
REMARK  Name = *****
REMARK                            x       y       z     vdW  Elec       q    Type
REMARK                         _______ _______ _______ _____ _____    ______ ____
ROOT
ATOM      1  C   LIG    1       24.959 -20.925   5.746  0.00  0.00    +0.079 C 
ATOM      2  C   LIG    1       23.583 -20.242   6.015  0.00  0.00    +0.137 C 
ATOM      3  C   LIG    1       22.590 -20.853   5.004  0.00  0.00    +0.130 C 
ATOM      4  C   LIG    1       23.463 -21.570   3.963  0.00  0.00    +0.062 C 
ATOM      5  C   LIG    1       24.873 -21.015   4.193  0.00  0.00    +0.196 C 
ENDROOT
BRANCH   2   6
ATOM      6  O   LIG    1       23.132 -20.339   7.349  0.00  0.00    -0.391 OA
ATOM      7  H   LIG    1       22.155 -20.356   7.321  0.00  0.00    +0.210 HD
ENDBRANCH   2   6
BRANCH   3   8
ATOM      8  C   LIG    1       21.658 -19.799   4.431  0.00  0.00    +0.310 C 
ATOM      9  O   LIG    1       20.519 -20.071   4.025  0.00  0.00    -0.251 OA
BRANCH   8  10
ATOM     10  O   LIG    1       22.107 -18.526   4.429  0.00  0.00    -0.480 OA
ATOM     11  H   LIG    1       22.471 -18.234   3.557  0.00  0.00    +0.295 HD
ENDBRANCH   8  10
ENDBRANCH   3   8
BRANCH   5  12
ATOM     12  N   LIG    1       24.877 -19.660   3.576  0.00  0.00    -0.110 NA
ATOM     13  C   LIG    1       25.877 -18.880   3.755  0.00  0.00    +0.377 C 
BRANCH  13  14
ATOM     14  N   LIG    1       25.877 -17.627   3.242  0.00  0.00    -0.289 N 
ATOM     15  H   LIG    1       25.032 -17.377   2.742  0.00  0.00    +0.255 HD
ATOM     16  H   LIG    1       26.696 -17.436   2.674  0.00  0.00    +0.255 HD
ENDBRANCH  13  14
BRANCH  13  17
ATOM     17  N   LIG    1       27.046 -19.105   4.394  0.00  0.00    -0.289 N 
ATOM     18  H   LIG    1       26.956 -19.764   5.158  0.00  0.00    +0.255 HD
ATOM     19  H   LIG    1       27.484 -18.254   4.725  0.00  0.00    +0.255 HD
ENDBRANCH  13  17
ENDBRANCH   5  12
BRANCH   1  20
ATOM     20  C   LIG    1       25.279 -22.317   6.485  0.00  0.00    +0.085 C 
BRANCH  20  21
ATOM     21  N   LIG    1       25.442 -23.436   5.509  0.00  0.00    -0.312 N 
ATOM     22  H   LIG    1       26.286 -23.432   4.947  0.00  0.00    +0.149 HD
ATOM     23  C   LIG    1       24.822 -24.658   5.648  0.00  0.00    +0.210 C 
ATOM     24  O   LIG    1       24.004 -24.902   6.550  0.00  0.00    -0.276 OA
ATOM     25  C   LIG    1       25.166 -25.709   4.622  0.00  0.00    +0.109 C 
ENDBRANCH  20  21
BRANCH  20  26
ATOM     26  C   LIG    1       26.486 -22.366   7.522  0.00  0.00    +0.009 C 
BRANCH  26  28
ATOM     27  C   LIG    1       28.978 -21.534   7.904  0.00  0.00    +0.004 C 
ATOM     28  C   LIG    1       27.776 -21.645   6.964  0.00  0.00    +0.002 C 
ENDBRANCH  26  28
BRANCH  26  29
ATOM     29  C   LIG    1       26.233 -21.831   8.960  0.00  0.00    +0.002 C 
ATOM     30  C   LIG    1       25.934 -20.357   9.142  0.00  0.00    +0.004 C 
ENDBRANCH  26  29
ENDBRANCH  20  26
ENDBRANCH   1  20
TORSDOF 11
ENDMDL
MODEL 8
REMARK VINA RESULT:      -5.8      2.916      6.350
REMARK  Name = *****
REMARK                            x       y       z     vdW  Elec       q    Type
REMARK                         _______ _______ _______ _____ _____    ______ ____
ROOT
ATOM      1  C   LIG    1       27.694 -19.964   7.710  0.00  0.00    +0.079 C 
ATOM      2  C   LIG    1       26.370 -20.517   8.322  0.00  0.00    +0.137 C 
ATOM      3  C   LIG    1       26.391 -22.044   8.095  0.00  0.00    +0.130 C 
ATOM      4  C   LIG    1       27.502 -22.283   7.062  0.00  0.00    +0.062 C 
ATOM      5  C   LIG    1       27.782 -20.899   6.467  0.00  0.00    +0.196 C 
ENDROOT
BRANCH   2   6
ATOM      6  O   LIG    1       26.160 -20.170   9.675  0.00  0.00    -0.391 OA
ATOM      7  H   LIG    1       26.348 -20.966  10.208  0.00  0.00    +0.210 HD
ENDBRANCH   2   6
BRANCH   3   8
ATOM      8  C   LIG    1       25.025 -22.566   7.688  0.00  0.00    +0.310 C 
ATOM      9  O   LIG    1       24.872 -23.667   7.140  0.00  0.00    -0.251 OA
BRANCH   8  10
ATOM     10  O   LIG    1       23.962 -21.793   7.997  0.00  0.00    -0.480 OA
ATOM     11  H   LIG    1       23.614 -21.271   7.232  0.00  0.00    +0.295 HD
ENDBRANCH   8  10
ENDBRANCH   3   8
BRANCH   5  12
ATOM     12  N   LIG    1       26.664 -20.637   5.519  0.00  0.00    -0.110 NA
ATOM     13  C   LIG    1       26.693 -19.599   4.769  0.00  0.00    +0.377 C 
BRANCH  13  14
ATOM     14  N   LIG    1       25.663 -19.319   3.936  0.00  0.00    -0.289 N 
ATOM     15  H   LIG    1       25.886 -19.399   2.951  0.00  0.00    +0.255 HD
ATOM     16  H   LIG    1       25.233 -18.421   4.132  0.00  0.00    +0.255 HD
ENDBRANCH  13  14
BRANCH  13  17
ATOM     17  N   LIG    1       27.657 -18.665   4.622  0.00  0.00    -0.289 N 
ATOM     18  H   LIG    1       27.817 -18.414   3.654  0.00  0.00    +0.255 HD
ATOM     19  H   LIG    1       28.533 -18.932   5.055  0.00  0.00    +0.255 HD
ENDBRANCH  13  17
ENDBRANCH   5  12
BRANCH   1  20
ATOM     20  C   LIG    1       29.012 -19.943   8.631  0.00  0.00    +0.085 C 
BRANCH  20  21
ATOM     21  N   LIG    1       30.024 -20.939   8.170  0.00  0.00    -0.312 N 
ATOM     22  H   LIG    1       30.443 -20.777   7.261  0.00  0.00    +0.149 HD
ATOM     23  C   LIG    1       30.751 -21.733   9.029  0.00  0.00    +0.210 C 
ATOM     24  O   LIG    1       30.560 -21.752  10.256  0.00  0.00    -0.276 OA
ATOM     25  C   LIG    1       31.798 -22.621   8.404  0.00  0.00    +0.109 C 
ENDBRANCH  20  21
BRANCH  20  26
ATOM     26  C   LIG    1       29.743 -18.551   8.878  0.00  0.00    +0.009 C 
BRANCH  26  28
ATOM     27  C   LIG    1       30.390 -17.030  10.956  0.00  0.00    +0.004 C 
ATOM     28  C   LIG    1       30.311 -18.431  10.347  0.00  0.00    +0.002 C 
ENDBRANCH  26  28
BRANCH  26  29
ATOM     29  C   LIG    1       30.880 -18.141   7.899  0.00  0.00    +0.002 C 
ATOM     30  C   LIG    1       32.300 -18.081   8.425  0.00  0.00    +0.004 C 
ENDBRANCH  26  29
ENDBRANCH  20  26
ENDBRANCH   1  20
TORSDOF 11
ENDMDL
MODEL 9
REMARK VINA RESULT:      -5.8      8.795     10.815
REMARK  Name = *****
REMARK                            x       y       z     vdW  Elec       q    Type
REMARK                         _______ _______ _______ _____ _____    ______ ____
ROOT
ATOM      1  C   LIG    1       26.224 -29.834   8.991  0.00  0.00    +0.079 C 
ATOM      2  C   LIG    1       25.923 -28.881   7.794  0.00  0.00    +0.137 C 
ATOM      3  C   LIG    1       24.450 -29.124   7.405  0.00  0.00    +0.130 C 
ATOM      4  C   LIG    1       24.057 -30.432   8.109  0.00  0.00    +0.062 C 
ATOM      5  C   LIG    1       25.390 -31.064   8.523  0.00  0.00    +0.196 C 
ENDROOT
BRANCH   2   6
ATOM      6  O   LIG    1       26.203 -27.519   8.045  0.00  0.00    -0.391 OA
ATOM      7  H   LIG    1       25.780 -27.291   8.896  0.00  0.00    +0.210 HD
ENDBRANCH   2   6
BRANCH   3   8
ATOM      8  C   LIG    1       24.266 -29.136   5.898  0.00  0.00    +0.310 C 
ATOM      9  O   LIG    1       25.141 -28.731   5.120  0.00  0.00    -0.251 OA
BRANCH   8  10
ATOM     10  O   LIG    1       23.113 -29.660   5.430  0.00  0.00    -0.480 OA
ATOM     11  H   LIG    1       22.346 -29.547   6.045  0.00  0.00    +0.295 HD
ENDBRANCH   8  10
ENDBRANCH   3   8
BRANCH   5  12
ATOM     12  N   LIG    1       25.958 -31.654   7.279  0.00  0.00    -0.110 NA
ATOM     13  C   LIG    1       26.891 -32.528   7.355  0.00  0.00    +0.377 C 
BRANCH  13  14
ATOM     14  N   LIG    1       27.451 -33.041   6.235  0.00  0.00    -0.289 N 
ATOM     15  H   LIG    1       27.024 -33.898   5.905  0.00  0.00    +0.255 HD
ATOM     16  H   LIG    1       28.457 -33.152   6.315  0.00  0.00    +0.255 HD
ENDBRANCH  13  14
BRANCH  13  17
ATOM     17  N   LIG    1       27.448 -33.105   8.442  0.00  0.00    -0.289 N 
ATOM     18  H   LIG    1       28.109 -32.500   8.913  0.00  0.00    +0.255 HD
ATOM     19  H   LIG    1       27.886 -33.995   8.234  0.00  0.00    +0.255 HD
ENDBRANCH  13  17
ENDBRANCH   5  12
BRANCH   1  20
ATOM     20  C   LIG    1       25.892 -29.322  10.479  0.00  0.00    +0.085 C 
BRANCH  20  21
ATOM     21  N   LIG    1       25.420 -30.436  11.354  0.00  0.00    -0.312 N 
ATOM     22  H   LIG    1       26.128 -30.927  11.891  0.00  0.00    +0.149 HD
ATOM     23  C   LIG    1       24.134 -30.526  11.840  0.00  0.00    +0.210 C 
ATOM     24  O   LIG    1       23.233 -29.733  11.516  0.00  0.00    -0.276 OA
ATOM     25  C   LIG    1       23.847 -31.665  12.784  0.00  0.00    +0.109 C 
ENDBRANCH  20  21
BRANCH  20  26
ATOM     26  C   LIG    1       27.003 -28.495  11.263  0.00  0.00    +0.009 C 
BRANCH  26  28
ATOM     27  C   LIG    1       26.717 -26.278  12.695  0.00  0.00    +0.004 C 
ATOM     28  C   LIG    1       26.414 -27.769  12.536  0.00  0.00    +0.002 C 
ENDBRANCH  26  28
BRANCH  26  29
ATOM     29  C   LIG    1       28.293 -29.243  11.704  0.00  0.00    +0.002 C 
ATOM     30  C   LIG    1       28.505 -29.513  13.180  0.00  0.00    +0.004 C 
ENDBRANCH  26  29
ENDBRANCH  20  26
ENDBRANCH   1  20
TORSDOF 11
ENDMDL
