MODEL 1
REMARK VINA RESULT:      -6.9      0.000      0.000
REMARK  Name = *****
REMARK                            x       y       z     vdW  Elec       q    Type
REMARK                         _______ _______ _______ _____ _____    ______ ____
ROOT
ATOM      1  C   LIG    1       24.794 -21.050   5.906  0.00  0.00    +0.039 C 
ATOM      2  C   LIG    1       24.171 -20.736   7.295  0.00  0.00    +0.018 C 
ENDROOT
BRANCH   1   3
ATOM      3  C   LIG    1       23.863 -20.434   4.756  0.00  0.00    -0.002 C 
ATOM      4  C   LIG    1       24.670 -19.562   3.777  0.00  0.00    +0.008 C 
BRANCH   3   6
ATOM      5  C   LIG    1       22.256 -18.398   4.479  0.00  0.00    +0.004 C 
ATOM      6  C   LIG    1       22.560 -19.714   5.216  0.00  0.00    +0.000 C 
ENDBRANCH   3   6
ENDBRANCH   1   3
BRANCH   1   7
ATOM      7  C   LIG    1       26.211 -20.392   5.865  0.00  0.00    +0.244 C 
BRANCH   7   8
ATOM      8  O   LIG    1       26.700 -20.287   7.216  0.00  0.00    -0.450 OA
BRANCH   8   9
ATOM      9  C   LIG    1       28.043 -20.247   7.361  0.00  0.00    +0.398 C 
ATOM     10  O   LIG    1       28.663 -19.817   8.314  0.00  0.00    -0.227 OA
ATOM     11  N   LIG    1       28.631 -20.689   6.224  0.00  0.00    -0.295 N 
ATOM     12  H   LIG    1       29.624 -20.557   6.109  0.00  0.00    +0.148 HD
ATOM     13  H   LIG    1       28.059 -20.992   5.449  0.00  0.00    +0.148 HD
ENDBRANCH   8   9
ENDBRANCH   7   8
ENDBRANCH   1   7
BRANCH   1  14
ATOM     14  C   LIG    1       24.974 -22.587   5.871  0.00  0.00    +0.244 C 
BRANCH  14  15
ATOM     15  O   LIG    1       24.310 -23.194   6.980  0.00  0.00    -0.450 OA
BRANCH  15  16
ATOM     16  C   LIG    1       23.425 -24.176   6.670  0.00  0.00    +0.398 C 
ATOM     17  O   LIG    1       23.635 -25.339   6.465  0.00  0.00    -0.227 OA
ATOM     18  N   LIG    1       22.202 -23.583   6.592  0.00  0.00    -0.295 N 
ATOM     19  H   LIG    1       21.383 -24.172   6.521  0.00  0.00    +0.148 HD
ATOM     20  H   LIG    1       22.094 -22.589   6.819  0.00  0.00    +0.148 HD
ENDBRANCH  15  16
ENDBRANCH  14  15
ENDBRANCH   1  14
TORSDOF 8
ENDMDL
MODEL 2
REMARK VINA RESULT:      -6.6      1.436      1.453
REMARK  Name = *****
REMARK                            x       y       z     vdW  Elec       q    Type
REMARK                         _______ _______ _______ _____ _____    ______ ____
ROOT
ATOM      1  C   LIG    1       24.259 -21.231   5.946  0.00  0.00    +0.039 C 
ATOM      2  C   LIG    1       23.576 -20.672   7.226  0.00  0.00    +0.018 C 
ENDROOT
BRANCH   1   3
ATOM      3  C   LIG    1       23.565 -20.588   4.652  0.00  0.00    -0.002 C 
ATOM      4  C   LIG    1       24.566 -19.765   3.820  0.00  0.00    +0.008 C 
BRANCH   3   6
ATOM      5  C   LIG    1       22.281 -18.326   4.457  0.00  0.00    +0.004 C 
ATOM      6  C   LIG    1       22.238 -19.804   4.881  0.00  0.00    +0.000 C 
ENDBRANCH   3   6
ENDBRANCH   1   3
BRANCH   1   7
ATOM      7  C   LIG    1       25.768 -20.833   6.004  0.00  0.00    +0.244 C 
BRANCH   7   8
ATOM      8  O   LIG    1       26.046 -20.302   7.314  0.00  0.00    -0.450 OA
BRANCH   8   9
ATOM      9  C   LIG    1       27.245 -20.628   7.847  0.00  0.00    +0.398 C 
ATOM     10  O   LIG    1       27.939 -19.933   8.563  0.00  0.00    -0.227 OA
ATOM     11  N   LIG    1       27.624 -21.844   7.388  0.00  0.00    -0.295 N 
ATOM     12  H   LIG    1       28.570 -22.150   7.554  0.00  0.00    +0.148 HD
ATOM     13  H   LIG    1       27.021 -22.352   6.758  0.00  0.00    +0.148 HD
ENDBRANCH   8   9
ENDBRANCH   7   8
ENDBRANCH   1   7
BRANCH   1  14
ATOM     14  C   LIG    1       24.160 -22.771   6.063  0.00  0.00    +0.244 C 
BRANCH  14  15
ATOM     15  O   LIG    1       25.462 -23.354   6.108  0.00  0.00    -0.450 OA
BRANCH  15  16
ATOM     16  C   LIG    1       25.528 -24.672   5.788  0.00  0.00    +0.398 C 
ATOM     17  O   LIG    1       26.135 -25.548   6.336  0.00  0.00    -0.227 OA
ATOM     18  N   LIG    1       24.779 -24.834   4.663  0.00  0.00    -0.295 N 
ATOM     19  H   LIG    1       24.574 -25.774   4.350  0.00  0.00    +0.148 HD
ATOM     20  H   LIG    1       24.255 -24.044   4.273  0.00  0.00    +0.148 HD
ENDBRANCH  15  16
ENDBRANCH  14  15
ENDBRANCH   1  14
TORSDOF 8
ENDMDL
MODEL 3
REMARK VINA RESULT:      -6.6      1.824      3.717
REMARK  Name = *****
REMARK                            x       y       z     vdW  Elec       q    Type
REMARK                         _______ _______ _______ _____ _____    ______ ____
ROOT
ATOM      1  C   LIG    1       24.726 -20.764   5.216  0.00  0.00    +0.039 C 
ATOM      2  C   LIG    1       26.167 -20.221   5.004  0.00  0.00    +0.018 C 
ENDROOT
BRANCH   1   3
ATOM      3  C   LIG    1       23.701 -19.906   4.331  0.00  0.00    -0.002 C 
ATOM      4  C   LIG    1       24.429 -18.844   3.487  0.00  0.00    +0.008 C 
BRANCH   3   6
ATOM      5  C   LIG    1       22.054 -17.900   4.586  0.00  0.00    +0.004 C 
ATOM      6  C   LIG    1       22.471 -19.300   5.071  0.00  0.00    +0.000 C 
ENDBRANCH   3   6
ENDBRANCH   1   3
BRANCH   1   7
ATOM      7  C   LIG    1       24.714 -22.258   4.762  0.00  0.00    +0.244 C 
BRANCH   7   8
ATOM      8  O   LIG    1       24.659 -23.089   5.937  0.00  0.00    -0.450 OA
BRANCH   8   9
ATOM      9  C   LIG    1       25.234 -24.307   5.834  0.00  0.00    +0.398 C 
ATOM     10  O   LIG    1       26.059 -24.792   6.584  0.00  0.00    -0.227 OA
ATOM     11  N   LIG    1       24.817 -24.905   4.692  0.00  0.00    -0.295 N 
ATOM     12  H   LIG    1       25.288 -25.741   4.384  0.00  0.00    +0.148 HD
ATOM     13  H   LIG    1       24.163 -24.430   4.088  0.00  0.00    +0.148 HD
ENDBRANCH   8   9
ENDBRANCH   7   8
ENDBRANCH   1   7
BRANCH   1  14
ATOM     14  C   LIG    1       24.489 -20.722   6.745  0.00  0.00    +0.244 C 
BRANCH  14  15
ATOM     15  O   LIG    1       25.685 -20.342   7.427  0.00  0.00    -0.450 OA
BRANCH  15  16
ATOM     16  C   LIG    1       26.051 -21.142   8.461  0.00  0.00    +0.398 C 
ATOM     17  O   LIG    1       25.737 -21.068   9.616  0.00  0.00    -0.227 OA
ATOM     18  N   LIG    1       26.907 -22.068   7.948  0.00  0.00    -0.295 N 
ATOM     19  H   LIG    1       27.175 -22.852   8.528  0.00  0.00    +0.148 HD
ATOM     20  H   LIG    1       27.099 -22.094   6.941  0.00  0.00    +0.148 HD
ENDBRANCH  15  16
ENDBRANCH  14  15
ENDBRANCH   1  14
TORSDOF 8
ENDMDL
MODEL 4
REMARK VINA RESULT:      -6.6      1.245      4.721
REMARK  Name = *****
REMARK                            x       y       z     vdW  Elec       q    Type
REMARK                         _______ _______ _______ _____ _____    ______ ____
ROOT
ATOM      1  C   LIG    1       25.060 -21.094   5.655  0.00  0.00    +0.039 C 
ATOM      2  C   LIG    1       25.719 -20.181   4.584  0.00  0.00    +0.018 C 
ENDROOT
BRANCH   1   3
ATOM      3  C   LIG    1       23.721 -20.398   6.194  0.00  0.00    -0.002 C 
ATOM      4  C   LIG    1       23.283 -20.981   7.551  0.00  0.00    +0.008 C 
BRANCH   3   6
ATOM      5  C   LIG    1       22.268 -18.910   4.620  0.00  0.00    +0.004 C 
ATOM      6  C   LIG    1       22.524 -20.312   5.200  0.00  0.00    +0.000 C 
ENDBRANCH   3   6
ENDBRANCH   1   3
BRANCH   1   7
ATOM      7  C   LIG    1       24.723 -22.457   4.971  0.00  0.00    +0.244 C 
BRANCH   7   8
ATOM      8  O   LIG    1       24.953 -23.512   5.924  0.00  0.00    -0.450 OA
BRANCH   8   9
ATOM      9  C   LIG    1       23.969 -24.430   6.046  0.00  0.00    +0.398 C 
ATOM     10  O   LIG    1       23.019 -24.387   6.802  0.00  0.00    -0.227 OA
ATOM     11  N   LIG    1       24.239 -25.486   5.242  0.00  0.00    -0.295 N 
ATOM     12  H   LIG    1       23.693 -26.328   5.349  0.00  0.00    +0.148 HD
ATOM     13  H   LIG    1       25.069 -25.481   4.669  0.00  0.00    +0.148 HD
ENDBRANCH   8   9
ENDBRANCH   7   8
ENDBRANCH   1   7
BRANCH   1  14
ATOM     14  C   LIG    1       26.158 -21.345   6.717  0.00  0.00    +0.244 C 
BRANCH  14  15
ATOM     15  O   LIG    1       27.373 -20.695   6.343  0.00  0.00    -0.450 OA
BRANCH  15  16
ATOM     16  C   LIG    1       28.272 -20.506   7.344  0.00  0.00    +0.398 C 
ATOM     17  O   LIG    1       28.104 -19.997   8.417  0.00  0.00    -0.227 OA
ATOM     18  N   LIG    1       29.462 -20.983   6.889  0.00  0.00    -0.295 N 
ATOM     19  H   LIG    1       30.228 -21.074   7.543  0.00  0.00    +0.148 HD
ATOM     20  H   LIG    1       29.520 -21.441   5.974  0.00  0.00    +0.148 HD
ENDBRANCH  15  16
ENDBRANCH  14  15
ENDBRANCH   1  14
TORSDOF 8
ENDMDL
MODEL 5
REMARK VINA RESULT:      -6.6      2.439      4.929
REMARK  Name = *****
REMARK                            x       y       z     vdW  Elec       q    Type
REMARK                         _______ _______ _______ _____ _____    ______ ____
ROOT
ATOM      1  C   LIG    1       24.708 -21.528   6.782  0.00  0.00    +0.039 C 
ATOM      2  C   LIG    1       23.321 -20.870   7.025  0.00  0.00    +0.018 C 
ENDROOT
BRANCH   1   3
ATOM      3  C   LIG    1       24.665 -23.053   7.273  0.00  0.00    -0.002 C 
ATOM      4  C   LIG    1       26.034 -23.740   7.112  0.00  0.00    +0.008 C 
BRANCH   3   6
ATOM      5  C   LIG    1       23.959 -25.316   6.185  0.00  0.00    +0.004 C 
ATOM      6  C   LIG    1       23.514 -23.941   6.711  0.00  0.00    +0.000 C 
ENDBRANCH   3   6
ENDBRANCH   1   3
BRANCH   1   7
ATOM      7  C   LIG    1       24.998 -21.461   5.248  0.00  0.00    +0.244 C 
BRANCH   7   8
ATOM      8  O   LIG    1       24.024 -20.592   4.640  0.00  0.00    -0.450 OA
BRANCH   8   9
ATOM      9  C   LIG    1       24.512 -19.518   3.981  0.00  0.00    +0.398 C 
ATOM     10  O   LIG    1       23.878 -18.573   3.553  0.00  0.00    -0.227 OA
ATOM     11  N   LIG    1       25.841 -19.682   3.778  0.00  0.00    -0.295 N 
ATOM     12  H   LIG    1       26.316 -19.052   3.151  0.00  0.00    +0.148 HD
ATOM     13  H   LIG    1       26.301 -20.512   4.121  0.00  0.00    +0.148 HD
ENDBRANCH   8   9
ENDBRANCH   7   8
ENDBRANCH   1   7
BRANCH   1  14
ATOM     14  C   LIG    1       25.729 -20.619   7.507  0.00  0.00    +0.244 C 
BRANCH  14  15
ATOM     15  O   LIG    1       26.834 -20.326   6.652  0.00  0.00    -0.450 OA
BRANCH  15  16
ATOM     16  C   LIG    1       28.060 -20.373   7.236  0.00  0.00    +0.398 C 
ATOM     17  O   LIG    1       28.410 -19.906   8.283  0.00  0.00    -0.227 OA
ATOM     18  N   LIG    1       28.872 -21.041   6.373  0.00  0.00    -0.295 N 
ATOM     19  H   LIG    1       29.792 -21.316   6.691  0.00  0.00    +0.148 HD
ATOM     20  H   LIG    1       28.491 -21.446   5.512  0.00  0.00    +0.148 HD
ENDBRANCH  15  16
ENDBRANCH  14  15
ENDBRANCH   1  14
TORSDOF 8
ENDMDL
MODEL 6
REMARK VINA RESULT:      -6.6      1.306      1.324
REMARK  Name = *****
REMARK                            x       y       z     vdW  Elec       q    Type
REMARK                         _______ _______ _______ _____ _____    ______ ____
ROOT
ATOM      1  C   LIG    1       25.392 -21.286   6.531  0.00  0.00    +0.039 C 
ATOM      2  C   LIG    1       24.852 -20.791   7.902  0.00  0.00    +0.018 C 
ENDROOT
BRANCH   1   3
ATOM      3  C   LIG    1       24.356 -20.882   5.376  0.00  0.00    -0.002 C 
ATOM      4  C   LIG    1       25.032 -20.047   4.272  0.00  0.00    +0.008 C 
BRANCH   3   6
ATOM      5  C   LIG    1       22.429 -19.203   4.853  0.00  0.00    +0.004 C 
ATOM      6  C   LIG    1       23.011 -20.239   5.831  0.00  0.00    +0.000 C 
ENDBRANCH   3   6
ENDBRANCH   1   3
BRANCH   1   7
ATOM      7  C   LIG    1       26.770 -20.591   6.288  0.00  0.00    +0.244 C 
BRANCH   7   8
ATOM      8  O   LIG    1       27.798 -21.404   6.886  0.00  0.00    -0.450 OA
BRANCH   8   9
ATOM      9  C   LIG    1       28.658 -20.766   7.710  0.00  0.00    +0.398 C 
ATOM     10  O   LIG    1       28.427 -19.785   8.390  0.00  0.00    -0.227 OA
ATOM     11  N   LIG    1       29.882 -21.336   7.609  0.00  0.00    -0.295 N 
ATOM     12  H   LIG    1       30.670 -20.867   8.027  0.00  0.00    +0.148 HD
ATOM     13  H   LIG    1       30.019 -22.123   6.993  0.00  0.00    +0.148 HD
ENDBRANCH   8   9
ENDBRANCH   7   8
ENDBRANCH   1   7
BRANCH   1  14
ATOM     14  C   LIG    1       25.640 -22.803   6.706  0.00  0.00    +0.244 C 
BRANCH  14  15
ATOM     15  O   LIG    1       24.842 -23.551   5.788  0.00  0.00    -0.450 OA
BRANCH  15  16
ATOM     16  C   LIG    1       23.976 -24.436   6.345  0.00  0.00    +0.398 C 
ATOM     17  O   LIG    1       22.886 -24.234   6.802  0.00  0.00    -0.227 OA
ATOM     18  N   LIG    1       24.599 -25.646   6.329  0.00  0.00    -0.295 N 
ATOM     19  H   LIG    1       24.060 -26.470   6.562  0.00  0.00    +0.148 HD
ATOM     20  H   LIG    1       25.517 -25.750   5.886  0.00  0.00    +0.148 HD
ENDBRANCH  15  16
ENDBRANCH  14  15
ENDBRANCH   1  14
TORSDOF 8
ENDMDL
MODEL 7
REMARK VINA RESULT:      -6.5      3.811      4.854
REMARK  Name = *****
REMARK                            x       y       z     vdW  Elec       q    Type
REMARK                         _______ _______ _______ _____ _____    ______ ____
ROOT
ATOM      1  C   LIG    1       27.243 -21.071   7.080  0.00  0.00    +0.039 C 
ATOM      2  C   LIG    1       26.783 -20.339   8.371  0.00  0.00    +0.018 C 
ENDROOT
BRANCH   1   3
ATOM      3  C   LIG    1       26.046 -21.988   6.535  0.00  0.00    -0.002 C 
ATOM      4  C   LIG    1       25.295 -21.313   5.374  0.00  0.00    +0.008 C 
BRANCH   3   6
ATOM      5  C   LIG    1       23.571 -22.291   7.302  0.00  0.00    +0.004 C 
ATOM      6  C   LIG    1       25.058 -22.558   7.597  0.00  0.00    +0.000 C 
ENDBRANCH   3   6
ENDBRANCH   1   3
BRANCH   1   7
ATOM      7  C   LIG    1       27.610 -19.979   6.025  0.00  0.00    +0.244 C 
BRANCH   7   8
ATOM      8  O   LIG    1       29.044 -19.933   5.901  0.00  0.00    -0.450 OA
BRANCH   8   9
ATOM      9  C   LIG    1       29.602 -18.702   5.896  0.00  0.00    +0.398 C 
ATOM     10  O   LIG    1       30.399 -18.258   6.699  0.00  0.00    -0.227 OA
ATOM     11  N   LIG    1       29.070 -17.972   4.887  0.00  0.00    -0.295 N 
ATOM     12  H   LIG    1       29.253 -16.981   4.858  0.00  0.00    +0.148 HD
ATOM     13  H   LIG    1       28.378 -18.386   4.280  0.00  0.00    +0.148 HD
ENDBRANCH   8   9
ENDBRANCH   7   8
ENDBRANCH   1   7
BRANCH   1  14
ATOM     14  C   LIG    1       28.539 -21.822   7.469  0.00  0.00    +0.244 C 
BRANCH  14  15
ATOM     15  O   LIG    1       29.124 -21.240   8.634  0.00  0.00    -0.450 OA
BRANCH  15  16
ATOM     16  C   LIG    1       30.397 -21.625   8.908  0.00  0.00    +0.398 C 
ATOM     17  O   LIG    1       30.788 -22.382   9.752  0.00  0.00    -0.227 OA
ATOM     18  N   LIG    1       31.200 -20.947   8.042  0.00  0.00    -0.295 N 
ATOM     19  H   LIG    1       32.175 -21.209   7.982  0.00  0.00    +0.148 HD
ATOM     20  H   LIG    1       30.790 -20.345   7.320  0.00  0.00    +0.148 HD
ENDBRANCH  15  16
ENDBRANCH  14  15
ENDBRANCH   1  14
TORSDOF 8
ENDMDL
MODEL 8
REMARK VINA RESULT:      -6.3      2.589      4.651
REMARK  Name = *****
REMARK                            x       y       z     vdW  Elec       q    Type
REMARK                         _______ _______ _______ _____ _____    ______ ____
ROOT
ATOM      1  C   LIG    1       26.507 -21.254   7.034  0.00  0.00    +0.039 C 
ATOM      2  C   LIG    1       26.206 -20.576   8.400  0.00  0.00    +0.018 C 
ENDROOT
BRANCH   1   3
ATOM      3  C   LIG    1       28.032 -20.974   6.627  0.00  0.00    -0.002 C 
ATOM      4  C   LIG    1       28.978 -21.119   7.834  0.00  0.00    +0.008 C 
BRANCH   3   6
ATOM      5  C   LIG    1       29.544 -18.870   6.322  0.00  0.00    +0.004 C 
ATOM      6  C   LIG    1       28.319 -19.664   5.834  0.00  0.00    +0.000 C 
ENDBRANCH   3   6
ENDBRANCH   1   3
BRANCH   1   7
ATOM      7  C   LIG    1       26.266 -22.788   7.205  0.00  0.00    +0.244 C 
BRANCH   7   8
ATOM      8  O   LIG    1       25.500 -23.255   6.079  0.00  0.00    -0.450 OA
BRANCH   8   9
ATOM      9  C   LIG    1       25.456 -24.594   5.902  0.00  0.00    +0.398 C 
ATOM     10  O   LIG    1       25.957 -25.442   6.614  0.00  0.00    -0.227 OA
ATOM     11  N   LIG    1       24.830 -24.872   4.734  0.00  0.00    -0.295 N 
ATOM     12  H   LIG    1       24.871 -25.813   4.374  0.00  0.00    +0.148 HD
ATOM     13  H   LIG    1       24.475 -24.118   4.164  0.00  0.00    +0.148 HD
ENDBRANCH   8   9
ENDBRANCH   7   8
ENDBRANCH   1   7
BRANCH   1  14
ATOM     14  C   LIG    1       25.441 -20.704   6.055  0.00  0.00    +0.244 C 
BRANCH  14  15
ATOM     15  O   LIG    1       24.193 -20.522   6.725  0.00  0.00    -0.450 OA
BRANCH  15  16
ATOM     16  C   LIG    1       23.093 -20.514   5.928  0.00  0.00    +0.398 C 
ATOM     17  O   LIG    1       22.469 -19.575   5.520  0.00  0.00    -0.227 OA
ATOM     18  N   LIG    1       22.782 -21.817   5.688  0.00  0.00    -0.295 N 
ATOM     19  H   LIG    1       22.082 -22.025   4.988  0.00  0.00    +0.148 HD
ATOM     20  H   LIG    1       23.386 -22.566   6.040  0.00  0.00    +0.148 HD
ENDBRANCH  15  16
ENDBRANCH  14  15
ENDBRANCH   1  14
TORSDOF 8
ENDMDL
MODEL 9
REMARK VINA RESULT:      -6.2      2.449      5.129
REMARK  Name = *****
REMARK                            x       y       z     vdW  Elec       q    Type
REMARK                         _______ _______ _______ _____ _____    ______ ____
ROOT
ATOM      1  C   LIG    1       24.943 -22.186   6.833  0.00  0.00    +0.039 C 
ATOM      2  C   LIG    1       23.651 -21.459   7.303  0.00  0.00    +0.018 C 
ENDROOT
BRANCH   1   3
ATOM      3  C   LIG    1       26.148 -21.818   7.823  0.00  0.00    -0.002 C 
ATOM      4  C   LIG    1       25.785 -20.642   8.749  0.00  0.00    +0.008 C 
BRANCH   3   6
ATOM      5  C   LIG    1       28.045 -20.164   7.138  0.00  0.00    +0.004 C 
ATOM      6  C   LIG    1       27.553 -21.621   7.178  0.00  0.00    +0.000 C 
ENDBRANCH   3   6
ENDBRANCH   1   3
BRANCH   1   7
ATOM      7  C   LIG    1       24.659 -23.722   6.872  0.00  0.00    +0.244 C 
BRANCH   7   8
ATOM      8  O   LIG    1       25.747 -24.399   6.214  0.00  0.00    -0.450 OA
BRANCH   8   9
ATOM      9  C   LIG    1       25.414 -25.478   5.471  0.00  0.00    +0.398 C 
ATOM     10  O   LIG    1       26.176 -26.267   4.946  0.00  0.00    -0.227 OA
ATOM     11  N   LIG    1       24.070 -25.515   5.311  0.00  0.00    -0.295 N 
ATOM     12  H   LIG    1       23.680 -26.157   4.639  0.00  0.00    +0.148 HD
ATOM     13  H   LIG    1       23.495 -24.803   5.737  0.00  0.00    +0.148 HD
ENDBRANCH   8   9
ENDBRANCH   7   8
ENDBRANCH   1   7
BRANCH   1  14
ATOM     14  C   LIG    1       25.138 -21.768   5.355  0.00  0.00    +0.244 C 
BRANCH  14  15
ATOM     15  O   LIG    1       24.250 -20.704   5.014  0.00  0.00    -0.450 OA
BRANCH  15  16
ATOM     16  C   LIG    1       24.754 -19.763   4.175  0.00  0.00    +0.398 C 
ATOM     17  O   LIG    1       24.180 -18.870   3.617  0.00  0.00    -0.227 OA
ATOM     18  N   LIG    1       26.079 -20.039   4.038  0.00  0.00    -0.295 N 
ATOM     19  H   LIG    1       26.668 -19.361   3.572  0.00  0.00    +0.148 HD
ATOM     20  H   LIG    1       26.508 -20.797   4.578  0.00  0.00    +0.148 HD
ENDBRANCH  15  16
ENDBRANCH  14  15
ENDBRANCH   1  14
TORSDOF 8
ENDMDL
