MODEL 1
REMARK VINA RESULT:      -2.8      0.000      0.000
REMARK  Name = *****
REMARK                            x       y       z     vdW  Elec       q    Type
REMARK                         _______ _______ _______ _____ _____    ______ ____
ROOT
ATOM      1  C   LIG    1       25.528 -19.161   4.160  0.00  0.00    +0.114 C 
ENDROOT
BRANCH   1   2
ATOM      2  C   LIG    1       26.948 -19.248   4.803  0.00  0.00    +0.061 A 
ATOM      3  N   LIG    1       27.805 -18.209   4.561  0.00  0.00    -0.259 NA
ATOM      4  C   LIG    1       29.016 -18.173   5.163  0.00  0.00    +0.111 A 
ATOM      5  C   LIG    1       29.463 -19.160   6.008  0.00  0.00    +0.020 A 
ATOM      6  C   LIG    1       28.639 -20.264   6.195  0.00  0.00    +0.003 A 
ATOM      7  C   LIG    1       27.377 -20.322   5.583  0.00  0.00    +0.025 A 
ENDBRANCH   1   2
BRANCH   1   8
ATOM      8  C   LIG    1       24.523 -19.966   5.089  0.00  0.00    -0.027 A 
ATOM      9  C   LIG    1       23.140 -20.026   4.812  0.00  0.00    +0.005 A 
ATOM     10  C   LIG    1       22.254 -20.765   5.610  0.00  0.00    +0.000 A 
ATOM     11  C   LIG    1       22.718 -21.435   6.734  0.00  0.00    +0.000 A 
ATOM     12  C   LIG    1       24.069 -21.362   7.060  0.00  0.00    +0.000 A 
ATOM     13  C   LIG    1       24.959 -20.632   6.253  0.00  0.00    +0.005 A 
ENDBRANCH   1   8
BRANCH   1  14
ATOM     14  C   LIG    1       25.533 -19.772   2.706  0.00  0.00    +0.227 C 
ATOM     15  O   LIG    1       26.312 -19.355   1.821  0.00  0.00    -0.275 OA
ATOM     16  N   LIG    1       24.742 -20.823   2.384  0.00  0.00    -0.328 N 
ATOM     17  H   LIG    1       23.945 -21.031   3.003  0.00  0.00    +0.145 HD
ATOM     18  H   LIG    1       24.639 -21.101   1.415  0.00  0.00    +0.145 HD
ENDBRANCH   1  14
BRANCH   1  19
ATOM     19  C   LIG    1       24.948 -17.682   3.953  0.00  0.00    +0.042 C 
BRANCH  19  20
ATOM     20  C   LIG    1       25.815 -16.601   3.259  0.00  0.00    +0.086 C 
BRANCH  20  21
ATOM     21  N   LIG    1       25.725 -15.199   3.791  0.00  0.00    -0.297 NA
BRANCH  21  23
ATOM     22  C   LIG    1       27.677 -13.677   3.071  0.00  0.00    +0.024 C 
ATOM     23  C   LIG    1       27.015 -14.552   4.152  0.00  0.00    +0.051 C 
ATOM     24  C   LIG    1       26.855 -13.625   5.378  0.00  0.00    +0.024 C 
ENDBRANCH  21  23
BRANCH  21  25
ATOM     25  C   LIG    1       24.617 -14.391   3.229  0.00  0.00    +0.051 C 
ATOM     26  C   LIG    1       24.990 -13.265   2.256  0.00  0.00    +0.024 C 
ATOM     27  C   LIG    1       23.618 -13.865   4.285  0.00  0.00    +0.024 C 
ENDBRANCH  21  25
ENDBRANCH  20  21
ENDBRANCH  19  20
ENDBRANCH   1  19
TORSDOF 8
ENDMDL
MODEL 2
REMARK VINA RESULT:      -2.1      0.603      1.564
REMARK  Name = *****
REMARK                            x       y       z     vdW  Elec       q    Type
REMARK                         _______ _______ _______ _____ _____    ______ ____
ROOT
ATOM      1  C   LIG    1       25.506 -19.202   4.132  0.00  0.00    +0.114 C 
ENDROOT
BRANCH   1   2
ATOM      2  C   LIG    1       26.916 -19.292   4.798  0.00  0.00    +0.061 A 
ATOM      3  N   LIG    1       27.783 -18.261   4.560  0.00  0.00    -0.259 NA
ATOM      4  C   LIG    1       28.984 -18.226   5.181  0.00  0.00    +0.111 A 
ATOM      5  C   LIG    1       29.412 -19.208   6.043  0.00  0.00    +0.020 A 
ATOM      6  C   LIG    1       28.578 -20.304   6.227  0.00  0.00    +0.003 A 
ATOM      7  C   LIG    1       27.326 -20.360   5.595  0.00  0.00    +0.025 A 
ENDBRANCH   1   2
BRANCH   1   8
ATOM      8  C   LIG    1       24.484 -19.999   5.048  0.00  0.00    -0.027 A 
ATOM      9  C   LIG    1       23.118 -20.117   4.710  0.00  0.00    +0.005 A 
ATOM     10  C   LIG    1       22.218 -20.848   5.498  0.00  0.00    +0.000 A 
ATOM     11  C   LIG    1       22.648 -21.453   6.672  0.00  0.00    +0.000 A 
ATOM     12  C   LIG    1       23.978 -21.321   7.057  0.00  0.00    +0.000 A 
ATOM     13  C   LIG    1       24.883 -20.599   6.260  0.00  0.00    +0.005 A 
ENDBRANCH   1   8
BRANCH   1  14
ATOM     14  C   LIG    1       25.532 -19.820   2.681  0.00  0.00    +0.227 C 
ATOM     15  O   LIG    1       26.438 -19.543   1.865  0.00  0.00    -0.275 OA
ATOM     16  N   LIG    1       24.611 -20.733   2.291  0.00  0.00    -0.328 N 
ATOM     17  H   LIG    1       23.743 -20.804   2.841  0.00  0.00    +0.145 HD
ATOM     18  H   LIG    1       24.545 -21.001   1.316  0.00  0.00    +0.145 HD
ENDBRANCH   1  14
BRANCH   1  19
ATOM     19  C   LIG    1       24.936 -17.721   3.909  0.00  0.00    +0.042 C 
BRANCH  19  20
ATOM     20  C   LIG    1       25.837 -16.634   3.270  0.00  0.00    +0.086 C 
BRANCH  20  21
ATOM     21  N   LIG    1       25.312 -15.226   3.257  0.00  0.00    -0.297 NA
BRANCH  21  23
ATOM     22  C   LIG    1       24.185 -13.336   4.600  0.00  0.00    +0.024 C 
ATOM     23  C   LIG    1       24.443 -14.841   4.402  0.00  0.00    +0.051 C 
ATOM     24  C   LIG    1       23.040 -15.478   4.282  0.00  0.00    +0.024 C 
ENDBRANCH  21  23
BRANCH  21  25
ATOM     25  C   LIG    1       26.221 -14.229   2.644  0.00  0.00    +0.051 C 
ATOM     26  C   LIG    1       27.451 -13.803   3.458  0.00  0.00    +0.024 C 
ATOM     27  C   LIG    1       25.505 -12.981   2.080  0.00  0.00    +0.024 C 
ENDBRANCH  21  25
ENDBRANCH  20  21
ENDBRANCH  19  20
ENDBRANCH   1  19
TORSDOF 8
ENDMDL
MODEL 3
REMARK VINA RESULT:      -1.3      1.280      2.550
REMARK  Name = *****
REMARK                            x       y       z     vdW  Elec       q    Type
REMARK                         _______ _______ _______ _____ _____    ______ ____
ROOT
ATOM      1  C   LIG    1       25.053 -19.061   3.910  0.00  0.00    +0.114 C 
ENDROOT
BRANCH   1   2
ATOM      2  C   LIG    1       25.923 -19.699   5.039  0.00  0.00    +0.061 A 
ATOM      3  N   LIG    1       25.258 -20.259   6.096  0.00  0.00    -0.259 NA
ATOM      4  C   LIG    1       25.945 -20.912   7.062  0.00  0.00    +0.111 A 
ATOM      5  C   LIG    1       27.314 -21.030   7.060  0.00  0.00    +0.020 A 
ATOM      6  C   LIG    1       28.009 -20.393   6.039  0.00  0.00    +0.003 A 
ATOM      7  C   LIG    1       27.318 -19.711   5.025  0.00  0.00    +0.025 A 
ENDBRANCH   1   2
BRANCH   1   8
ATOM      8  C   LIG    1       23.544 -19.481   4.163  0.00  0.00    -0.027 A 
ATOM      9  C   LIG    1       22.483 -18.558   4.037  0.00  0.00    +0.005 A 
ATOM     10  C   LIG    1       21.145 -18.932   4.225  0.00  0.00    +0.000 A 
ATOM     11  C   LIG    1       20.828 -20.235   4.585  0.00  0.00    +0.000 A 
ATOM     12  C   LIG    1       21.851 -21.161   4.759  0.00  0.00    +0.000 A 
ATOM     13  C   LIG    1       23.192 -20.789   4.558  0.00  0.00    +0.005 A 
ENDBRANCH   1   8
BRANCH   1  14
ATOM     14  C   LIG    1       25.526 -19.559   2.490  0.00  0.00    +0.227 C 
ATOM     15  O   LIG    1       26.520 -19.060   1.917  0.00  0.00    -0.275 OA
ATOM     16  N   LIG    1       24.915 -20.595   1.871  0.00  0.00    -0.328 N 
ATOM     17  H   LIG    1       23.976 -20.866   2.200  0.00  0.00    +0.145 HD
ATOM     18  H   LIG    1       25.123 -20.800   0.901  0.00  0.00    +0.145 HD
ENDBRANCH   1  14
BRANCH   1  19
ATOM     19  C   LIG    1       25.121 -17.464   3.801  0.00  0.00    +0.042 C 
BRANCH  19  20
ATOM     20  C   LIG    1       26.482 -16.761   3.567  0.00  0.00    +0.086 C 
BRANCH  20  21
ATOM     21  N   LIG    1       26.456 -15.284   3.294  0.00  0.00    -0.297 NA
BRANCH  21  23
ATOM     22  C   LIG    1       24.508 -13.957   4.339  0.00  0.00    +0.024 C 
ATOM     23  C   LIG    1       25.110 -14.675   3.116  0.00  0.00    +0.051 C 
ATOM     24  C   LIG    1       25.117 -13.616   1.991  0.00  0.00    +0.024 C 
ENDBRANCH  21  23
BRANCH  21  25
ATOM     25  C   LIG    1       27.544 -14.513   3.942  0.00  0.00    +0.051 C 
ATOM     26  C   LIG    1       27.331 -14.083   5.399  0.00  0.00    +0.024 C 
ATOM     27  C   LIG    1       28.053 -13.315   3.108  0.00  0.00    +0.024 C 
ENDBRANCH  21  25
ENDBRANCH  20  21
ENDBRANCH  19  20
ENDBRANCH   1  19
TORSDOF 8
ENDMDL
