MODEL 1
REMARK VINA RESULT:      -8.9      0.000      0.000
REMARK  Name = *****
REMARK                            x       y       z     vdW  Elec       q    Type
REMARK                         _______ _______ _______ _____ _____    ______ ____
ROOT
ATOM      1  C   LIG    1       24.712 -24.088   5.447  0.00  0.00    +0.218 C 
ATOM      2  N   LIG    1       25.130 -22.996   4.694  0.00  0.00    -0.308 N 
ATOM      3  H   LIG    1       25.516 -23.209   3.780  0.00  0.00    +0.149 HD
ATOM      4  O   LIG    1       23.962 -24.015   6.423  0.00  0.00    -0.275 OA
ENDROOT
BRANCH   1   5
ATOM      5  C   LIG    1       25.285 -25.402   4.929  0.00  0.00    +0.131 C 
BRANCH   5  10
ATOM      6  C   LIG    1       24.258 -28.864   6.387  0.00  0.00    +0.135 A 
ATOM      7  C   LIG    1       24.984 -28.826   7.600  0.00  0.00    +0.100 A 
ATOM      8  C   LIG    1       25.893 -27.780   7.798  0.00  0.00    +0.019 A 
ATOM      9  C   LIG    1       26.084 -26.797   6.824  0.00  0.00    +0.005 A 
ATOM     10  C   LIG    1       25.212 -26.697   5.732  0.00  0.00    -0.035 A 
ATOM     11  C   LIG    1       24.232 -27.697   5.595  0.00  0.00    +0.050 A 
BRANCH   7  12
ATOM     12  C   LIG    1       24.778 -29.706   8.797  0.00  0.00    +0.340 C 
ATOM     13  O   LIG    1       25.650 -30.055   9.529  0.00  0.00    -0.245 OA
BRANCH  12  14
ATOM     14  O   LIG    1       23.504 -30.127   9.014  0.00  0.00    -0.477 OA
ATOM     15  H   LIG    1       23.032 -29.276   9.134  0.00  0.00    +0.295 HD
ENDBRANCH  12  14
ENDBRANCH   7  12
BRANCH   6  16
ATOM     16  O   LIG    1       23.617 -30.021   6.047  0.00  0.00    -0.491 OA
BRANCH  16  18
ATOM     17  C   LIG    1       25.690 -31.150   5.072  0.00  0.00    +0.048 C 
ATOM     18  C   LIG    1       24.328 -31.238   5.762  0.00  0.00    +0.226 C 
ENDBRANCH  16  18
ENDBRANCH   6  16
ENDBRANCH   5  10
ENDBRANCH   1   5
BRANCH   2  19
ATOM     19  C   LIG    1       24.776 -21.572   4.879  0.00  0.00    +0.105 C 
BRANCH  19  20
ATOM     20  C   LIG    1       25.106 -21.021   6.298  0.00  0.00    -0.006 A 
ATOM     21  C   LIG    1       26.338 -20.835   7.015  0.00  0.00    +0.035 A 
ATOM     22  C   LIG    1       26.171 -21.104   8.422  0.00  0.00    +0.023 A 
ATOM     23  C   LIG    1       24.943 -21.211   9.113  0.00  0.00    +0.002 A 
ATOM     24  C   LIG    1       23.765 -21.068   8.430  0.00  0.00    +0.001 A 
ATOM     25  C   LIG    1       23.851 -20.975   7.051  0.00  0.00    +0.007 A 
BRANCH  21  26
ATOM     26  N   LIG    1       27.597 -20.262   6.621  0.00  0.00    -0.330 N 
ATOM     27  C   LIG    1       27.967 -19.586   5.339  0.00  0.00    +0.105 C 
ATOM     28  C   LIG    1       29.168 -18.586   5.493  0.00  0.00    +0.019 C 
ATOM     29  C   LIG    1       30.398 -19.231   6.123  0.00  0.00    +0.003 C 
ATOM     30  C   LIG    1       29.953 -19.670   7.500  0.00  0.00    +0.019 C 
ATOM     31  C   LIG    1       28.808 -20.692   7.423  0.00  0.00    +0.105 C 
ENDBRANCH  21  26
ENDBRANCH  19  20
BRANCH  19  32
ATOM     32  C   LIG    1       23.604 -21.026   4.032  0.00  0.00    +0.030 C 
BRANCH  32  33
ATOM     33  C   LIG    1       23.593 -19.553   3.575  0.00  0.00    -0.015 C 
ATOM     34  C   LIG    1       25.044 -19.035   3.598  0.00  0.00    +0.007 C 
ATOM     35  C   LIG    1       22.684 -18.681   4.444  0.00  0.00    +0.007 C 
ENDBRANCH  32  33
ENDBRANCH  19  32
ENDBRANCH   2  19
TORSDOF 11
ENDMDL
MODEL 2
REMARK VINA RESULT:      -8.5      1.050      2.662
REMARK  Name = *****
REMARK                            x       y       z     vdW  Elec       q    Type
REMARK                         _______ _______ _______ _____ _____    ______ ____
ROOT
ATOM      1  C   LIG    1       24.452 -25.023   5.962  0.00  0.00    +0.218 C 
ATOM      2  N   LIG    1       25.427 -24.034   5.881  0.00  0.00    -0.308 N 
ATOM      3  H   LIG    1       26.150 -24.180   5.183  0.00  0.00    +0.149 HD
ATOM      4  O   LIG    1       23.361 -24.880   6.517  0.00  0.00    -0.275 OA
ENDROOT
BRANCH   1   5
ATOM      5  C   LIG    1       24.880 -26.316   5.278  0.00  0.00    +0.131 C 
BRANCH   5  10
ATOM      6  C   LIG    1       24.085 -29.962   6.392  0.00  0.00    +0.135 A 
ATOM      7  C   LIG    1       24.635 -29.928   7.695  0.00  0.00    +0.100 A 
ATOM      8  C   LIG    1       25.380 -28.805   8.073  0.00  0.00    +0.019 A 
ATOM      9  C   LIG    1       25.581 -27.743   7.189  0.00  0.00    +0.005 A 
ATOM     10  C   LIG    1       24.854 -27.664   5.993  0.00  0.00    -0.035 A 
ATOM     11  C   LIG    1       24.026 -28.753   5.668  0.00  0.00    +0.050 A 
BRANCH   7  12
ATOM     12  C   LIG    1       24.377 -30.907   8.803  0.00  0.00    +0.340 C 
ATOM     13  O   LIG    1       25.178 -31.201   9.634  0.00  0.00    -0.245 OA
BRANCH  12  14
ATOM     14  O   LIG    1       23.148 -31.485   8.812  0.00  0.00    -0.477 OA
ATOM     15  H   LIG    1       23.084 -31.800   9.739  0.00  0.00    +0.295 HD
ENDBRANCH  12  14
ENDBRANCH   7  12
BRANCH   6  16
ATOM     16  O   LIG    1       23.634 -31.156   5.906  0.00  0.00    -0.491 OA
BRANCH  16  18
ATOM     17  C   LIG    1       25.827 -31.863   4.804  0.00  0.00    +0.048 C 
ATOM     18  C   LIG    1       24.527 -32.217   5.528  0.00  0.00    +0.226 C 
ENDBRANCH  16  18
ENDBRANCH   6  16
ENDBRANCH   5  10
ENDBRANCH   1   5
BRANCH   2  19
ATOM     19  C   LIG    1       25.371 -22.653   6.408  0.00  0.00    +0.105 C 
BRANCH  19  20
ATOM     20  C   LIG    1       25.600 -21.557   5.324  0.00  0.00    -0.006 A 
ATOM     21  C   LIG    1       26.342 -20.326   5.317  0.00  0.00    +0.035 A 
ATOM     22  C   LIG    1       25.668 -19.313   4.544  0.00  0.00    +0.023 A 
ATOM     23  C   LIG    1       24.609 -19.522   3.632  0.00  0.00    +0.002 A 
ATOM     24  C   LIG    1       24.127 -20.788   3.431  0.00  0.00    +0.001 A 
ATOM     25  C   LIG    1       24.616 -21.781   4.263  0.00  0.00    +0.007 A 
BRANCH  21  26
ATOM     26  N   LIG    1       27.674 -20.009   5.760  0.00  0.00    -0.330 N 
ATOM     27  C   LIG    1       28.581 -18.908   5.312  0.00  0.00    +0.105 C 
ATOM     28  C   LIG    1       29.646 -18.507   6.394  0.00  0.00    +0.019 C 
ATOM     29  C   LIG    1       30.463 -19.696   6.887  0.00  0.00    +0.003 C 
ATOM     30  C   LIG    1       29.459 -20.632   7.520  0.00  0.00    +0.019 C 
ATOM     31  C   LIG    1       28.411 -21.106   6.501  0.00  0.00    +0.105 C 
ENDBRANCH  21  26
ENDBRANCH  19  20
BRANCH  19  32
ATOM     32  C   LIG    1       25.772 -22.451   7.886  0.00  0.00    +0.030 C 
BRANCH  32  33
ATOM     33  C   LIG    1       25.112 -21.340   8.728  0.00  0.00    -0.015 C 
ATOM     34  C   LIG    1       23.873 -20.836   7.964  0.00  0.00    +0.007 C 
ATOM     35  C   LIG    1       26.076 -20.192   9.034  0.00  0.00    +0.007 C 
ENDBRANCH  32  33
ENDBRANCH  19  32
ENDBRANCH   2  19
TORSDOF 11
ENDMDL
MODEL 3
REMARK VINA RESULT:      -8.5      1.050      2.160
REMARK  Name = *****
REMARK                            x       y       z     vdW  Elec       q    Type
REMARK                         _______ _______ _______ _____ _____    ______ ____
ROOT
ATOM      1  C   LIG    1       24.700 -24.068   5.647  0.00  0.00    +0.218 C 
ATOM      2  N   LIG    1       25.174 -23.050   4.826  0.00  0.00    -0.308 N 
ATOM      3  H   LIG    1       25.579 -23.343   3.943  0.00  0.00    +0.149 HD
ATOM      4  O   LIG    1       23.926 -23.897   6.590  0.00  0.00    -0.275 OA
ENDROOT
BRANCH   1   5
ATOM      5  C   LIG    1       25.243 -25.435   5.246  0.00  0.00    +0.131 C 
BRANCH   5  10
ATOM      6  C   LIG    1       26.180 -28.074   7.952  0.00  0.00    +0.135 A 
ATOM      7  C   LIG    1       25.279 -29.102   7.590  0.00  0.00    +0.100 A 
ATOM      8  C   LIG    1       24.309 -28.825   6.620  0.00  0.00    +0.019 A 
ATOM      9  C   LIG    1       24.226 -27.565   6.023  0.00  0.00    +0.005 A 
ATOM     10  C   LIG    1       25.248 -26.623   6.203  0.00  0.00    -0.035 A 
ATOM     11  C   LIG    1       26.277 -26.951   7.104  0.00  0.00    +0.050 A 
BRANCH   7  12
ATOM     12  C   LIG    1       25.339 -30.539   8.018  0.00  0.00    +0.340 C 
ATOM     13  O   LIG    1       24.390 -31.176   8.354  0.00  0.00    -0.245 OA
BRANCH  12  14
ATOM     14  O   LIG    1       26.573 -31.106   8.028  0.00  0.00    -0.477 OA
ATOM     15  H   LIG    1       26.386 -31.995   7.659  0.00  0.00    +0.295 HD
ENDBRANCH  12  14
ENDBRANCH   7  12
BRANCH   6  16
ATOM     16  O   LIG    1       26.911 -28.221   9.096  0.00  0.00    -0.491 OA
BRANCH  16  18
ATOM     17  C   LIG    1       26.800 -27.627  11.577  0.00  0.00    +0.048 C 
ATOM     18  C   LIG    1       26.297 -28.433  10.378  0.00  0.00    +0.226 C 
ENDBRANCH  16  18
ENDBRANCH   6  16
ENDBRANCH   5  10
ENDBRANCH   1   5
BRANCH   2  19
ATOM     19  C   LIG    1       24.862 -21.605   4.893  0.00  0.00    +0.105 C 
BRANCH  19  20
ATOM     20  C   LIG    1       25.137 -20.966   6.287  0.00  0.00    -0.006 A 
ATOM     21  C   LIG    1       26.338 -20.742   7.042  0.00  0.00    +0.035 A 
ATOM     22  C   LIG    1       26.109 -20.918   8.455  0.00  0.00    +0.023 A 
ATOM     23  C   LIG    1       24.852 -20.974   9.099  0.00  0.00    +0.002 A 
ATOM     24  C   LIG    1       23.706 -20.868   8.358  0.00  0.00    +0.001 A 
ATOM     25  C   LIG    1       23.851 -20.865   6.981  0.00  0.00    +0.007 A 
BRANCH  21  26
ATOM     26  N   LIG    1       27.618 -20.203   6.667  0.00  0.00    -0.330 N 
ATOM     27  C   LIG    1       28.035 -19.572   5.376  0.00  0.00    +0.105 C 
ATOM     28  C   LIG    1       29.250 -18.589   5.535  0.00  0.00    +0.019 C 
ATOM     29  C   LIG    1       30.450 -19.237   6.217  0.00  0.00    +0.003 C 
ATOM     30  C   LIG    1       29.960 -19.626   7.594  0.00  0.00    +0.019 C 
ATOM     31  C   LIG    1       28.799 -20.630   7.514  0.00  0.00    +0.105 C 
ENDBRANCH  21  26
ENDBRANCH  19  20
BRANCH  19  32
ATOM     32  C   LIG    1       23.757 -21.084   3.947  0.00  0.00    +0.030 C 
BRANCH  32  33
ATOM     33  C   LIG    1       23.741 -19.605   3.507  0.00  0.00    -0.015 C 
ATOM     34  C   LIG    1       25.180 -19.063   3.605  0.00  0.00    +0.007 C 
ATOM     35  C   LIG    1       22.777 -18.761   4.343  0.00  0.00    +0.007 C 
ENDBRANCH  32  33
ENDBRANCH  19  32
ENDBRANCH   2  19
TORSDOF 11
ENDMDL
MODEL 4
REMARK VINA RESULT:      -8.4      3.525      9.314
REMARK  Name = *****
REMARK                            x       y       z     vdW  Elec       q    Type
REMARK                         _______ _______ _______ _____ _____    ______ ____
ROOT
ATOM      1  C   LIG    1       25.596 -28.136   7.286  0.00  0.00    +0.218 C 
ATOM      2  N   LIG    1       26.168 -28.767   8.385  0.00  0.00    -0.308 N 
ATOM      3  H   LIG    1       26.806 -28.204   8.938  0.00  0.00    +0.149 HD
ATOM      4  O   LIG    1       24.598 -28.545   6.690  0.00  0.00    -0.275 OA
ENDROOT
BRANCH   1   5
ATOM      5  C   LIG    1       26.343 -26.866   6.894  0.00  0.00    +0.131 C 
BRANCH   5  10
ATOM      6  C   LIG    1       25.429 -23.100   6.508  0.00  0.00    +0.135 A 
ATOM      7  C   LIG    1       24.019 -23.204   6.524  0.00  0.00    +0.100 A 
ATOM      8  C   LIG    1       23.445 -24.480   6.480  0.00  0.00    +0.019 A 
ATOM      9  C   LIG    1       24.242 -25.626   6.418  0.00  0.00    +0.005 A 
ATOM     10  C   LIG    1       25.625 -25.545   6.633  0.00  0.00    -0.035 A 
ATOM     11  C   LIG    1       26.181 -24.262   6.780  0.00  0.00    +0.050 A 
BRANCH   7  12
ATOM     12  C   LIG    1       23.040 -22.089   6.747  0.00  0.00    +0.340 C 
ATOM     13  O   LIG    1       22.917 -21.504   7.777  0.00  0.00    -0.245 OA
BRANCH  12  14
ATOM     14  O   LIG    1       22.250 -21.770   5.689  0.00  0.00    -0.477 OA
ATOM     15  H   LIG    1       22.448 -20.816   5.574  0.00  0.00    +0.295 HD
ENDBRANCH  12  14
ENDBRANCH   7  12
BRANCH   6  16
ATOM     16  O   LIG    1       25.990 -21.885   6.236  0.00  0.00    -0.491 OA
BRANCH  16  18
ATOM     17  C   LIG    1       26.166 -20.701   8.492  0.00  0.00    +0.048 C 
ATOM     18  C   LIG    1       26.806 -21.185   7.190  0.00  0.00    +0.226 C 
ENDBRANCH  16  18
ENDBRANCH   6  16
ENDBRANCH   5  10
ENDBRANCH   1   5
BRANCH   2  19
ATOM     19  C   LIG    1       25.721 -30.005   9.060  0.00  0.00    +0.105 C 
BRANCH  19  20
ATOM     20  C   LIG    1       24.538 -29.789  10.050  0.00  0.00    -0.006 A 
ATOM     21  C   LIG    1       24.475 -29.393  11.430  0.00  0.00    +0.035 A 
ATOM     22  C   LIG    1       23.415 -30.081  12.125  0.00  0.00    +0.023 A 
ATOM     23  C   LIG    1       22.351 -30.796  11.531  0.00  0.00    +0.002 A 
ATOM     24  C   LIG    1       22.274 -30.889  10.167  0.00  0.00    +0.001 A 
ATOM     25  C   LIG    1       23.349 -30.394   9.447  0.00  0.00    +0.007 A 
BRANCH  21  26
ATOM     26  N   LIG    1       25.126 -28.331  12.151  0.00  0.00    -0.330 N 
ATOM     27  C   LIG    1       26.576 -27.963  12.185  0.00  0.00    +0.105 C 
ATOM     28  C   LIG    1       26.821 -26.457  12.554  0.00  0.00    +0.019 C 
ATOM     29  C   LIG    1       26.143 -26.050  13.858  0.00  0.00    +0.003 C 
ATOM     30  C   LIG    1       24.664 -26.254  13.616  0.00  0.00    +0.019 C 
ATOM     31  C   LIG    1       24.344 -27.723  13.297  0.00  0.00    +0.105 C 
ENDBRANCH  21  26
ENDBRANCH  19  20
BRANCH  19  32
ATOM     32  C   LIG    1       26.779 -31.112   9.264  0.00  0.00    +0.030 C 
BRANCH  32  33
ATOM     33  C   LIG    1       26.695 -32.429   8.465  0.00  0.00    -0.015 C 
ATOM     34  C   LIG    1       26.448 -32.074   6.986  0.00  0.00    +0.007 C 
ATOM     35  C   LIG    1       25.605 -33.363   8.996  0.00  0.00    +0.007 C 
ENDBRANCH  32  33
ENDBRANCH  19  32
ENDBRANCH   2  19
TORSDOF 11
ENDMDL
MODEL 5
REMARK VINA RESULT:      -8.4      3.102      9.703
REMARK  Name = *****
REMARK                            x       y       z     vdW  Elec       q    Type
REMARK                         _______ _______ _______ _____ _____    ______ ____
ROOT
ATOM      1  C   LIG    1       25.246 -27.713   6.209  0.00  0.00    +0.218 C 
ATOM      2  N   LIG    1       25.521 -28.870   6.930  0.00  0.00    -0.308 N 
ATOM      3  H   LIG    1       25.828 -28.735   7.888  0.00  0.00    +0.149 HD
ATOM      4  O   LIG    1       24.593 -27.683   5.165  0.00  0.00    -0.275 OA
ENDROOT
BRANCH   1   5
ATOM      5  C   LIG    1       25.843 -26.470   6.860  0.00  0.00    +0.131 C 
BRANCH   5  10
ATOM      6  C   LIG    1       25.413 -22.628   6.397  0.00  0.00    +0.135 A 
ATOM      7  C   LIG    1       24.009 -22.536   6.539  0.00  0.00    +0.100 A 
ATOM      8  C   LIG    1       23.267 -23.722   6.598  0.00  0.00    +0.019 A 
ATOM      9  C   LIG    1       23.893 -24.968   6.515  0.00  0.00    +0.005 A 
ATOM     10  C   LIG    1       25.288 -25.072   6.607  0.00  0.00    -0.035 A 
ATOM     11  C   LIG    1       26.023 -23.874   6.652  0.00  0.00    +0.050 A 
BRANCH   7  12
ATOM     12  C   LIG    1       23.213 -21.291   6.799  0.00  0.00    +0.340 C 
ATOM     13  O   LIG    1       23.199 -20.712   7.840  0.00  0.00    -0.245 OA
BRANCH  12  14
ATOM     14  O   LIG    1       22.461 -20.838   5.763  0.00  0.00    -0.477 OA
ATOM     15  H   LIG    1       22.559 -19.866   5.856  0.00  0.00    +0.295 HD
ENDBRANCH  12  14
ENDBRANCH   7  12
BRANCH   6  16
ATOM     16  O   LIG    1       26.105 -21.510   6.027  0.00  0.00    -0.491 OA
BRANCH  16  18
ATOM     17  C   LIG    1       26.584 -20.532   8.338  0.00  0.00    +0.048 C 
ATOM     18  C   LIG    1       27.030 -20.852   6.909  0.00  0.00    +0.226 C 
ENDBRANCH  16  18
ENDBRANCH   6  16
ENDBRANCH   5  10
ENDBRANCH   1   5
BRANCH   2  19
ATOM     19  C   LIG    1       25.102 -30.256   6.625  0.00  0.00    +0.105 C 
BRANCH  19  20
ATOM     20  C   LIG    1       24.611 -31.053   7.870  0.00  0.00    -0.006 A 
ATOM     21  C   LIG    1       25.119 -31.192   9.208  0.00  0.00    +0.035 A 
ATOM     22  C   LIG    1       24.910 -32.527   9.711  0.00  0.00    +0.023 A 
ATOM     23  C   LIG    1       24.049 -33.503   9.161  0.00  0.00    +0.002 A 
ATOM     24  C   LIG    1       23.328 -33.214   8.034  0.00  0.00    +0.001 A 
ATOM     25  C   LIG    1       23.608 -32.012   7.405  0.00  0.00    +0.007 A 
BRANCH  21  26
ATOM     26  N   LIG    1       25.595 -30.220  10.156  0.00  0.00    -0.330 N 
ATOM     27  C   LIG    1       26.915 -29.517  10.205  0.00  0.00    +0.105 C 
ATOM     28  C   LIG    1       26.853 -28.144  10.964  0.00  0.00    +0.019 C 
ATOM     29  C   LIG    1       26.270 -28.269  12.367  0.00  0.00    +0.003 C 
ATOM     30  C   LIG    1       24.859 -28.774  12.165  0.00  0.00    +0.019 C 
ATOM     31  C   LIG    1       24.845 -30.144  11.469  0.00  0.00    +0.105 C 
ENDBRANCH  21  26
ENDBRANCH  19  20
BRANCH  19  32
ATOM     32  C   LIG    1       25.779 -30.943   5.418  0.00  0.00    +0.030 C 
BRANCH  32  33
ATOM     33  C   LIG    1       26.125 -32.445   5.468  0.00  0.00    -0.015 C 
ATOM     34  C   LIG    1       27.355 -32.620   6.380  0.00  0.00    +0.007 C 
ATOM     35  C   LIG    1       26.384 -33.029   4.078  0.00  0.00    +0.007 C 
ENDBRANCH  32  33
ENDBRANCH  19  32
ENDBRANCH   2  19
TORSDOF 11
ENDMDL
MODEL 6
REMARK VINA RESULT:      -8.3      3.683     10.433
REMARK  Name = *****
REMARK                            x       y       z     vdW  Elec       q    Type
REMARK                         _______ _______ _______ _____ _____    ______ ____
ROOT
ATOM      1  C   LIG    1       24.915 -28.199   6.733  0.00  0.00    +0.218 C 
ATOM      2  N   LIG    1       25.010 -28.927   7.914  0.00  0.00    -0.308 N 
ATOM      3  H   LIG    1       25.446 -28.449   8.697  0.00  0.00    +0.149 HD
ATOM      4  O   LIG    1       24.170 -28.490   5.795  0.00  0.00    -0.275 OA
ENDROOT
BRANCH   1   5
ATOM      5  C   LIG    1       25.839 -26.986   6.724  0.00  0.00    +0.131 C 
BRANCH   5  10
ATOM      6  C   LIG    1       25.467 -23.112   6.596  0.00  0.00    +0.135 A 
ATOM      7  C   LIG    1       24.057 -23.016   6.627  0.00  0.00    +0.100 A 
ATOM      8  C   LIG    1       23.308 -24.193   6.510  0.00  0.00    +0.019 A 
ATOM      9  C   LIG    1       23.933 -25.433   6.361  0.00  0.00    +0.005 A 
ATOM     10  C   LIG    1       25.314 -25.563   6.561  0.00  0.00    -0.035 A 
ATOM     11  C   LIG    1       26.048 -24.384   6.782  0.00  0.00    +0.050 A 
BRANCH   7  12
ATOM     12  C   LIG    1       23.248 -21.791   6.937  0.00  0.00    +0.340 C 
ATOM     13  O   LIG    1       23.130 -21.327   8.028  0.00  0.00    -0.245 OA
BRANCH  12  14
ATOM     14  O   LIG    1       22.610 -21.217   5.884  0.00  0.00    -0.477 OA
ATOM     15  H   LIG    1       21.742 -21.672   5.905  0.00  0.00    +0.295 HD
ENDBRANCH  12  14
ENDBRANCH   7  12
BRANCH   6  16
ATOM     16  O   LIG    1       26.193 -21.973   6.395  0.00  0.00    -0.491 OA
BRANCH  16  18
ATOM     17  C   LIG    1       26.433 -20.521   8.483  0.00  0.00    +0.048 C 
ATOM     18  C   LIG    1       27.049 -21.418   7.408  0.00  0.00    +0.226 C 
ENDBRANCH  16  18
ENDBRANCH   6  16
ENDBRANCH   5  10
ENDBRANCH   1   5
BRANCH   2  19
ATOM     19  C   LIG    1       24.267 -30.148   8.296  0.00  0.00    +0.105 C 
BRANCH  19  20
ATOM     20  C   LIG    1       23.896 -30.212   9.807  0.00  0.00    -0.006 A 
ATOM     21  C   LIG    1       22.653 -30.397  10.505  0.00  0.00    +0.035 A 
ATOM     22  C   LIG    1       22.609 -29.612  11.713  0.00  0.00    +0.023 A 
ATOM     23  C   LIG    1       23.709 -28.993  12.351  0.00  0.00    +0.002 A 
ATOM     24  C   LIG    1       24.960 -29.106  11.806  0.00  0.00    +0.001 A 
ATOM     25  C   LIG    1       25.045 -29.704  10.559  0.00  0.00    +0.007 A 
BRANCH  21  26
ATOM     26  N   LIG    1       21.582 -31.338  10.317  0.00  0.00    -0.330 N 
ATOM     27  C   LIG    1       21.602 -32.668   9.634  0.00  0.00    +0.105 C 
ATOM     28  C   LIG    1       20.477 -33.639  10.140  0.00  0.00    +0.019 C 
ATOM     29  C   LIG    1       19.084 -33.024  10.056  0.00  0.00    +0.003 C 
ATOM     30  C   LIG    1       19.128 -31.818  10.966  0.00  0.00    +0.019 C 
ATOM     31  C   LIG    1       20.178 -30.798  10.498  0.00  0.00    +0.105 C 
ENDBRANCH  21  26
ENDBRANCH  19  20
BRANCH  19  32
ATOM     32  C   LIG    1       24.525 -31.417   7.453  0.00  0.00    +0.030 C 
BRANCH  32  33
ATOM     33  C   LIG    1       25.944 -31.737   6.939  0.00  0.00    -0.015 C 
ATOM     34  C   LIG    1       25.927 -31.638   5.402  0.00  0.00    +0.007 C 
ATOM     35  C   LIG    1       26.431 -33.113   7.397  0.00  0.00    +0.007 C 
ENDBRANCH  32  33
ENDBRANCH  19  32
ENDBRANCH   2  19
TORSDOF 11
ENDMDL
MODEL 7
REMARK VINA RESULT:      -8.3      1.450      3.257
REMARK  Name = *****
REMARK                            x       y       z     vdW  Elec       q    Type
REMARK                         _______ _______ _______ _____ _____    ______ ____
ROOT
ATOM      1  C   LIG    1       24.528 -25.073   5.905  0.00  0.00    +0.218 C 
ATOM      2  N   LIG    1       25.454 -24.040   5.809  0.00  0.00    -0.308 N 
ATOM      3  H   LIG    1       26.158 -24.141   5.085  0.00  0.00    +0.149 HD
ATOM      4  O   LIG    1       23.452 -24.990   6.500  0.00  0.00    -0.275 OA
ENDROOT
BRANCH   1   5
ATOM      5  C   LIG    1       24.989 -26.333   5.182  0.00  0.00    +0.131 C 
BRANCH   5  10
ATOM      6  C   LIG    1       25.106 -29.293   7.710  0.00  0.00    +0.135 A 
ATOM      7  C   LIG    1       25.271 -30.364   6.801  0.00  0.00    +0.100 A 
ATOM      8  C   LIG    1       25.159 -30.097   5.432  0.00  0.00    +0.019 A 
ATOM      9  C   LIG    1       24.887 -28.808   4.969  0.00  0.00    +0.005 A 
ATOM     10  C   LIG    1       24.952 -27.710   5.838  0.00  0.00    -0.035 A 
ATOM     11  C   LIG    1       25.169 -27.979   7.201  0.00  0.00    +0.050 A 
BRANCH   7  12
ATOM     12  C   LIG    1       25.720 -31.758   7.129  0.00  0.00    +0.340 C 
ATOM     13  O   LIG    1       24.983 -32.644   7.428  0.00  0.00    -0.245 OA
BRANCH  12  14
ATOM     14  O   LIG    1       27.060 -31.976   7.089  0.00  0.00    -0.477 OA
ATOM     15  H   LIG    1       27.100 -32.950   6.979  0.00  0.00    +0.295 HD
ENDBRANCH  12  14
ENDBRANCH   7  12
BRANCH   6  16
ATOM     16  O   LIG    1       24.902 -29.584   9.029  0.00  0.00    -0.491 OA
BRANCH  16  18
ATOM     17  C   LIG    1       27.217 -29.974  10.035  0.00  0.00    +0.048 C 
ATOM     18  C   LIG    1       25.865 -29.258  10.045  0.00  0.00    +0.226 C 
ENDBRANCH  16  18
ENDBRANCH   6  16
ENDBRANCH   5  10
ENDBRANCH   1   5
BRANCH   2  19
ATOM     19  C   LIG    1       25.355 -22.673   6.365  0.00  0.00    +0.105 C 
BRANCH  19  20
ATOM     20  C   LIG    1       25.581 -21.548   5.310  0.00  0.00    -0.006 A 
ATOM     21  C   LIG    1       26.324 -20.318   5.333  0.00  0.00    +0.035 A 
ATOM     22  C   LIG    1       25.647 -19.284   4.591  0.00  0.00    +0.023 A 
ATOM     23  C   LIG    1       24.585 -19.468   3.676  0.00  0.00    +0.002 A 
ATOM     24  C   LIG    1       24.102 -20.728   3.444  0.00  0.00    +0.001 A 
ATOM     25  C   LIG    1       24.594 -21.743   4.247  0.00  0.00    +0.007 A 
BRANCH  21  26
ATOM     26  N   LIG    1       27.657 -20.013   5.780  0.00  0.00    -0.330 N 
ATOM     27  C   LIG    1       28.581 -18.928   5.326  0.00  0.00    +0.105 C 
ATOM     28  C   LIG    1       29.645 -18.530   6.410  0.00  0.00    +0.019 C 
ATOM     29  C   LIG    1       30.445 -19.724   6.919  0.00  0.00    +0.003 C 
ATOM     30  C   LIG    1       29.425 -20.641   7.556  0.00  0.00    +0.019 C 
ATOM     31  C   LIG    1       28.376 -21.111   6.536  0.00  0.00    +0.105 C 
ENDBRANCH  21  26
ENDBRANCH  19  20
BRANCH  19  32
ATOM     32  C   LIG    1       25.721 -22.494   7.855  0.00  0.00    +0.030 C 
BRANCH  32  33
ATOM     33  C   LIG    1       25.045 -21.393   8.698  0.00  0.00    -0.015 C 
ATOM     34  C   LIG    1       23.812 -20.890   7.923  0.00  0.00    +0.007 C 
ATOM     35  C   LIG    1       25.999 -20.241   9.022  0.00  0.00    +0.007 C 
ENDBRANCH  32  33
ENDBRANCH  19  32
ENDBRANCH   2  19
TORSDOF 11
ENDMDL
MODEL 8
REMARK VINA RESULT:      -8.1      3.239      9.984
REMARK  Name = *****
REMARK                            x       y       z     vdW  Elec       q    Type
REMARK                         _______ _______ _______ _____ _____    ______ ____
ROOT
ATOM      1  C   LIG    1       24.957 -27.269   5.953  0.00  0.00    +0.218 C 
ATOM      2  N   LIG    1       24.244 -28.286   6.578  0.00  0.00    -0.308 N 
ATOM      3  H   LIG    1       23.233 -28.191   6.568  0.00  0.00    +0.149 HD
ATOM      4  O   LIG    1       26.136 -27.357   5.606  0.00  0.00    -0.275 OA
ENDROOT
BRANCH   1   5
ATOM      5  C   LIG    1       24.111 -26.019   5.733  0.00  0.00    +0.131 C 
BRANCH   5  10
ATOM      6  C   LIG    1       23.982 -22.362   7.065  0.00  0.00    +0.135 A 
ATOM      7  C   LIG    1       25.294 -22.261   7.584  0.00  0.00    +0.100 A 
ATOM      8  C   LIG    1       26.079 -23.418   7.636  0.00  0.00    +0.019 A 
ATOM      9  C   LIG    1       25.583 -24.646   7.191  0.00  0.00    +0.005 A 
ATOM     10  C   LIG    1       24.384 -24.711   6.469  0.00  0.00    -0.035 A 
ATOM     11  C   LIG    1       23.649 -23.520   6.331  0.00  0.00    +0.050 A 
BRANCH   7  12
ATOM     12  C   LIG    1       26.019 -20.999   7.949  0.00  0.00    +0.340 C 
ATOM     13  O   LIG    1       26.607 -20.317   7.169  0.00  0.00    -0.245 OA
BRANCH  12  14
ATOM     14  O   LIG    1       25.997 -20.659   9.264  0.00  0.00    -0.477 OA
ATOM     15  H   LIG    1       26.925 -20.833   9.529  0.00  0.00    +0.295 HD
ENDBRANCH  12  14
ENDBRANCH   7  12
BRANCH   6  16
ATOM     16  O   LIG    1       23.110 -21.335   7.293  0.00  0.00    -0.491 OA
BRANCH  16  18
ATOM     17  C   LIG    1       22.358 -20.447   5.020  0.00  0.00    +0.048 C 
ATOM     18  C   LIG    1       22.986 -20.219   6.396  0.00  0.00    +0.226 C 
ENDBRANCH  16  18
ENDBRANCH   6  16
ENDBRANCH   5  10
ENDBRANCH   1   5
BRANCH   2  19
ATOM     19  C   LIG    1       24.716 -29.640   6.941  0.00  0.00    +0.105 C 
BRANCH  19  20
ATOM     20  C   LIG    1       25.007 -29.817   8.462  0.00  0.00    -0.006 A 
ATOM     21  C   LIG    1       24.172 -30.131   9.589  0.00  0.00    +0.035 A 
ATOM     22  C   LIG    1       24.600 -29.422  10.770  0.00  0.00    +0.023 A 
ATOM     23  C   LIG    1       25.838 -28.765  10.949  0.00  0.00    +0.002 A 
ATOM     24  C   LIG    1       26.755 -28.756   9.933  0.00  0.00    +0.001 A 
ATOM     25  C   LIG    1       26.342 -29.273   8.716  0.00  0.00    +0.007 A 
BRANCH  21  26
ATOM     26  N   LIG    1       23.158 -31.133   9.779  0.00  0.00    -0.330 N 
ATOM     27  C   LIG    1       22.996 -32.454   9.097  0.00  0.00    +0.105 C 
ATOM     28  C   LIG    1       22.190 -33.496   9.952  0.00  0.00    +0.019 C 
ATOM     29  C   LIG    1       20.833 -32.966  10.404  0.00  0.00    +0.003 C 
ATOM     30  C   LIG    1       21.145 -31.766  11.270  0.00  0.00    +0.019 C 
ATOM     31  C   LIG    1       21.894 -30.681  10.480  0.00  0.00    +0.105 C 
ENDBRANCH  21  26
ENDBRANCH  19  20
BRANCH  19  32
ATOM     32  C   LIG    1       25.480 -30.429   5.855  0.00  0.00    +0.030 C 
BRANCH  32  33
ATOM     33  C   LIG    1       25.193 -31.929   5.634  0.00  0.00    -0.015 C 
ATOM     34  C   LIG    1       25.746 -32.320   4.250  0.00  0.00    +0.007 C 
ATOM     35  C   LIG    1       23.703 -32.258   5.744  0.00  0.00    +0.007 C 
ENDBRANCH  32  33
ENDBRANCH  19  32
ENDBRANCH   2  19
TORSDOF 11
ENDMDL
MODEL 9
REMARK VINA RESULT:      -8.1      3.685     10.004
REMARK  Name = *****
REMARK                            x       y       z     vdW  Elec       q    Type
REMARK                         _______ _______ _______ _____ _____    ______ ____
ROOT
ATOM      1  C   LIG    1       25.366 -28.216   7.230  0.00  0.00    +0.218 C 
ATOM      2  N   LIG    1       26.084 -28.644   8.341  0.00  0.00    -0.308 N 
ATOM      3  H   LIG    1       26.806 -28.013   8.674  0.00  0.00    +0.149 HD
ATOM      4  O   LIG    1       24.285 -28.688   6.875  0.00  0.00    -0.275 OA
ENDROOT
BRANCH   1   5
ATOM      5  C   LIG    1       26.067 -27.081   6.490  0.00  0.00    +0.131 C 
BRANCH   5  10
ATOM      6  C   LIG    1       25.508 -23.230   6.626  0.00  0.00    +0.135 A 
ATOM      7  C   LIG    1       24.095 -23.203   6.604  0.00  0.00    +0.100 A 
ATOM      8  C   LIG    1       23.410 -24.401   6.371  0.00  0.00    +0.019 A 
ATOM      9  C   LIG    1       24.101 -25.597   6.160  0.00  0.00    +0.005 A 
ATOM     10  C   LIG    1       25.479 -25.676   6.407  0.00  0.00    -0.035 A 
ATOM     11  C   LIG    1       26.144 -24.484   6.743  0.00  0.00    +0.050 A 
BRANCH   7  12
ATOM     12  C   LIG    1       23.214 -22.043   6.967  0.00  0.00    +0.340 C 
ATOM     13  O   LIG    1       23.135 -21.582   8.062  0.00  0.00    -0.245 OA
BRANCH  12  14
ATOM     14  O   LIG    1       22.462 -21.529   5.960  0.00  0.00    -0.477 OA
ATOM     15  H   LIG    1       21.788 -22.231   5.836  0.00  0.00    +0.295 HD
ENDBRANCH  12  14
ENDBRANCH   7  12
BRANCH   6  16
ATOM     16  O   LIG    1       26.184 -22.046   6.538  0.00  0.00    -0.491 OA
BRANCH  16  18
ATOM     17  C   LIG    1       26.491 -20.476   8.529  0.00  0.00    +0.048 C 
ATOM     18  C   LIG    1       27.028 -21.563   7.596  0.00  0.00    +0.226 C 
ENDBRANCH  16  18
ENDBRANCH   6  16
ENDBRANCH   5  10
ENDBRANCH   1   5
BRANCH   2  19
ATOM     19  C   LIG    1       25.723 -29.705   9.306  0.00  0.00    +0.105 C 
BRANCH  19  20
ATOM     20  C   LIG    1       25.796 -29.252  10.795  0.00  0.00    -0.006 A 
ATOM     21  C   LIG    1       24.899 -29.395  11.909  0.00  0.00    +0.035 A 
ATOM     22  C   LIG    1       24.927 -28.230  12.757  0.00  0.00    +0.023 A 
ATOM     23  C   LIG    1       25.905 -27.209  12.745  0.00  0.00    +0.002 A 
ATOM     24  C   LIG    1       26.942 -27.274  11.854  0.00  0.00    +0.001 A 
ATOM     25  C   LIG    1       26.883 -28.277  10.901  0.00  0.00    +0.007 A 
BRANCH  21  26
ATOM     26  N   LIG    1       24.163 -30.527  12.405  0.00  0.00    -0.330 N 
ATOM     27  C   LIG    1       22.887 -30.557  13.185  0.00  0.00    +0.105 C 
ATOM     28  C   LIG    1       22.095 -31.902  13.020  0.00  0.00    +0.019 C 
ATOM     29  C   LIG    1       22.939 -33.130  13.344  0.00  0.00    +0.003 C 
ATOM     30  C   LIG    1       24.070 -33.108  12.341  0.00  0.00    +0.019 C 
ATOM     31  C   LIG    1       24.921 -31.836  12.480  0.00  0.00    +0.105 C 
ENDBRANCH  21  26
ENDBRANCH  19  20
BRANCH  19  32
ATOM     32  C   LIG    1       25.982 -31.165   8.872  0.00  0.00    +0.030 C 
BRANCH  32  33
ATOM     33  C   LIG    1       24.805 -32.090   8.503  0.00  0.00    -0.015 C 
ATOM     34  C   LIG    1       24.813 -32.284   6.974  0.00  0.00    +0.007 C 
ATOM     35  C   LIG    1       23.460 -31.539   8.981  0.00  0.00    +0.007 C 
ENDBRANCH  32  33
ENDBRANCH  19  32
ENDBRANCH   2  19
TORSDOF 11
ENDMDL
