MODEL 1
REMARK VINA RESULT:      -4.1      0.000      0.000
REMARK  Name = *****
REMARK                            x       y       z     vdW  Elec       q    Type
REMARK                         _______ _______ _______ _____ _____    ______ ____
ROOT
ATOM      1  C   LIG    1       25.848 -20.506   5.688  0.00  0.00    +0.098 C 
ATOM      2  C   LIG    1       26.728 -20.539   6.699  0.00  0.00    +0.098 C 
ENDROOT
BRANCH   1   3
ATOM      3  C   LIG    1       24.404 -20.585   5.971  0.00  0.00    +0.332 C 
ATOM      4  O   LIG    1       23.917 -20.905   7.042  0.00  0.00    -0.246 OA
BRANCH   3   6
ATOM      5  C   LIG    1       22.524 -19.513   5.086  0.00  0.00    +0.280 C 
ATOM      6  O   LIG    1       23.734 -20.234   4.846  0.00  0.00    -0.465 OA
ENDBRANCH   3   6
ENDBRANCH   1   3
BRANCH   2   7
ATOM      7  C   LIG    1       28.168 -20.409   6.413  0.00  0.00    +0.332 C 
ATOM      8  O   LIG    1       29.049 -21.097   6.890  0.00  0.00    -0.246 OA
BRANCH   7   9
ATOM      9  O   LIG    1       28.314 -19.404   5.508  0.00  0.00    -0.465 OA
ATOM     10  C   LIG    1       29.428 -18.546   5.760  0.00  0.00    +0.280 C 
ENDBRANCH   7   9
ENDBRANCH   2   7
TORSDOF 4
ENDMDL
MODEL 2
REMARK VINA RESULT:      -4.0      6.715      7.409
REMARK  Name = *****
REMARK                            x       y       z     vdW  Elec       q    Type
REMARK                         _______ _______ _______ _____ _____    ______ ____
ROOT
ATOM      1  C   LIG    1       25.023 -13.606   4.232  0.00  0.00    +0.098 C 
ATOM      2  C   LIG    1       25.968 -13.909   3.333  0.00  0.00    +0.098 C 
ENDROOT
BRANCH   1   3
ATOM      3  C   LIG    1       24.136 -12.451   4.001  0.00  0.00    +0.332 C 
ATOM      4  O   LIG    1       23.809 -11.637   4.848  0.00  0.00    -0.246 OA
BRANCH   3   6
ATOM      5  C   LIG    1       24.391 -11.447   1.904  0.00  0.00    +0.280 C 
ATOM      6  O   LIG    1       23.766 -12.458   2.696  0.00  0.00    -0.465 OA
ENDBRANCH   3   6
ENDBRANCH   1   3
BRANCH   2   7
ATOM      7  C   LIG    1       26.819 -15.094   3.545  0.00  0.00    +0.332 C 
ATOM      8  O   LIG    1       26.535 -16.234   3.232  0.00  0.00    -0.246 OA
BRANCH   7   9
ATOM      9  O   LIG    1       27.973 -14.668   4.124  0.00  0.00    -0.465 OA
ATOM     10  C   LIG    1       28.431 -13.400   3.654  0.00  0.00    +0.280 C 
ENDBRANCH   7   9
ENDBRANCH   2   7
TORSDOF 4
ENDMDL
MODEL 3
REMARK VINA RESULT:      -4.0      0.781      4.568
REMARK  Name = *****
REMARK                            x       y       z     vdW  Elec       q    Type
REMARK                         _______ _______ _______ _____ _____    ______ ____
ROOT
ATOM      1  C   LIG    1       26.802 -20.689   6.720  0.00  0.00    +0.098 C 
ATOM      2  C   LIG    1       25.926 -20.459   5.732  0.00  0.00    +0.098 C 
ENDROOT
BRANCH   1   3
ATOM      3  C   LIG    1       28.240 -20.457   6.492  0.00  0.00    +0.332 C 
ATOM      4  O   LIG    1       29.144 -21.063   7.042  0.00  0.00    -0.246 OA
BRANCH   3   6
ATOM      5  C   LIG    1       29.475 -18.598   5.794  0.00  0.00    +0.280 C 
ATOM      6  O   LIG    1       28.367 -19.471   5.569  0.00  0.00    -0.465 OA
ENDBRANCH   3   6
ENDBRANCH   1   3
BRANCH   2   7
ATOM      7  C   LIG    1       24.485 -20.644   5.982  0.00  0.00    +0.332 C 
ATOM      8  O   LIG    1       23.996 -21.097   6.998  0.00  0.00    -0.246 OA
BRANCH   7   9
ATOM      9  O   LIG    1       23.821 -20.193   4.884  0.00  0.00    -0.465 OA
ATOM     10  C   LIG    1       24.615 -20.146   3.697  0.00  0.00    +0.280 C 
ENDBRANCH   7   9
ENDBRANCH   2   7
TORSDOF 4
ENDMDL
MODEL 4
REMARK VINA RESULT:      -3.9      1.403      4.899
REMARK  Name = *****
REMARK                            x       y       z     vdW  Elec       q    Type
REMARK                         _______ _______ _______ _____ _____    ______ ____
ROOT
ATOM      1  C   LIG    1       25.416 -20.448   5.416  0.00  0.00    +0.098 C 
ATOM      2  C   LIG    1       24.217 -20.770   5.921  0.00  0.00    +0.098 C 
ENDROOT
BRANCH   1   3
ATOM      3  C   LIG    1       26.635 -20.715   6.200  0.00  0.00    +0.332 C 
ATOM      4  O   LIG    1       26.741 -21.572   7.062  0.00  0.00    -0.246 OA
BRANCH   3   6
ATOM      5  C   LIG    1       28.894 -20.124   6.327  0.00  0.00    +0.280 C 
ATOM      6  O   LIG    1       27.599 -19.856   5.786  0.00  0.00    -0.465 OA
ENDBRANCH   3   6
ENDBRANCH   1   3
BRANCH   2   7
ATOM      7  C   LIG    1       23.005 -20.547   5.112  0.00  0.00    +0.332 C 
ATOM      8  O   LIG    1       21.979 -21.195   5.182  0.00  0.00    -0.246 OA
BRANCH   7   9
ATOM      9  O   LIG    1       23.244 -19.478   4.306  0.00  0.00    -0.465 OA
ATOM     10  C   LIG    1       22.307 -18.411   4.456  0.00  0.00    +0.280 C 
ENDBRANCH   7   9
ENDBRANCH   2   7
TORSDOF 4
ENDMDL
MODEL 5
REMARK VINA RESULT:      -3.9      6.703      8.361
REMARK  Name = *****
REMARK                            x       y       z     vdW  Elec       q    Type
REMARK                         _______ _______ _______ _____ _____    ______ ____
ROOT
ATOM      1  C   LIG    1       26.113 -13.796   3.460  0.00  0.00    +0.098 C 
ATOM      2  C   LIG    1       25.159 -13.570   4.373  0.00  0.00    +0.098 C 
ENDROOT
BRANCH   1   3
ATOM      3  C   LIG    1       27.054 -14.914   3.647  0.00  0.00    +0.332 C 
ATOM      4  O   LIG    1       26.851 -16.067   3.302  0.00  0.00    -0.246 OA
BRANCH   3   6
ATOM      5  C   LIG    1       28.664 -13.218   3.685  0.00  0.00    +0.280 C 
ATOM      6  O   LIG    1       28.168 -14.432   4.252  0.00  0.00    -0.465 OA
ENDBRANCH   3   6
ENDBRANCH   1   3
BRANCH   2   7
ATOM      7  C   LIG    1       24.189 -12.481   4.157  0.00  0.00    +0.332 C 
ATOM      8  O   LIG    1       23.837 -11.670   4.991  0.00  0.00    -0.246 OA
BRANCH   7   9
ATOM      9  O   LIG    1       23.792 -12.543   2.857  0.00  0.00    -0.465 OA
ATOM     10  C   LIG    1       24.235 -11.447   2.056  0.00  0.00    +0.280 C 
ENDBRANCH   7   9
ENDBRANCH   2   7
TORSDOF 4
ENDMDL
MODEL 6
REMARK VINA RESULT:      -3.8      4.298      5.140
REMARK  Name = *****
REMARK                            x       y       z     vdW  Elec       q    Type
REMARK                         _______ _______ _______ _____ _____    ______ ____
ROOT
ATOM      1  C   LIG    1       26.148 -17.353   3.318  0.00  0.00    +0.098 C 
ATOM      2  C   LIG    1       25.722 -16.084   3.375  0.00  0.00    +0.098 C 
ENDROOT
BRANCH   1   3
ATOM      3  C   LIG    1       25.231 -18.449   3.677  0.00  0.00    +0.332 C 
ATOM      4  O   LIG    1       24.023 -18.437   3.509  0.00  0.00    -0.246 OA
BRANCH   3   6
ATOM      5  C   LIG    1       25.189 -20.506   4.790  0.00  0.00    +0.280 C 
ATOM      6  O   LIG    1       25.966 -19.457   4.211  0.00  0.00    -0.465 OA
ENDBRANCH   3   6
ENDBRANCH   1   3
BRANCH   2   7
ATOM      7  C   LIG    1       26.628 -14.995   2.966  0.00  0.00    +0.332 C 
ATOM      8  O   LIG    1       26.557 -14.369   1.926  0.00  0.00    -0.246 OA
BRANCH   7   9
ATOM      9  O   LIG    1       27.524 -14.812   3.972  0.00  0.00    -0.465 OA
ATOM     10  C   LIG    1       28.227 -13.570   3.912  0.00  0.00    +0.280 C 
ENDBRANCH   7   9
ENDBRANCH   2   7
TORSDOF 4
ENDMDL
MODEL 7
REMARK VINA RESULT:      -3.8      4.326      6.149
REMARK  Name = *****
REMARK                            x       y       z     vdW  Elec       q    Type
REMARK                         _______ _______ _______ _____ _____    ______ ____
ROOT
ATOM      1  C   LIG    1       25.733 -16.062   3.339  0.00  0.00    +0.098 C 
ATOM      2  C   LIG    1       26.169 -17.329   3.306  0.00  0.00    +0.098 C 
ENDROOT
BRANCH   1   3
ATOM      3  C   LIG    1       26.640 -14.966   2.953  0.00  0.00    +0.332 C 
ATOM      4  O   LIG    1       26.596 -14.358   1.897  0.00  0.00    -0.246 OA
BRANCH   3   6
ATOM      5  C   LIG    1       28.250 -13.541   3.874  0.00  0.00    +0.280 C 
ATOM      6  O   LIG    1       27.509 -14.758   3.974  0.00  0.00    -0.465 OA
ENDBRANCH   3   6
ENDBRANCH   1   3
BRANCH   2   7
ATOM      7  C   LIG    1       25.242 -18.424   3.644  0.00  0.00    +0.332 C 
ATOM      8  O   LIG    1       24.036 -18.402   3.494  0.00  0.00    -0.246 OA
BRANCH   7   9
ATOM      9  O   LIG    1       25.989 -19.456   4.122  0.00  0.00    -0.465 OA
ATOM     10  C   LIG    1       25.236 -20.452   4.814  0.00  0.00    +0.280 C 
ENDBRANCH   7   9
ENDBRANCH   2   7
TORSDOF 4
ENDMDL
MODEL 8
REMARK VINA RESULT:      -3.7      4.332      6.280
REMARK  Name = *****
REMARK                            x       y       z     vdW  Elec       q    Type
REMARK                         _______ _______ _______ _____ _____    ______ ____
ROOT
ATOM      1  C   LIG    1       25.723 -16.081   3.374  0.00  0.00    +0.098 C 
ATOM      2  C   LIG    1       26.180 -17.336   3.268  0.00  0.00    +0.098 C 
ENDROOT
BRANCH   1   3
ATOM      3  C   LIG    1       26.595 -14.951   3.007  0.00  0.00    +0.332 C 
ATOM      4  O   LIG    1       26.551 -14.346   1.949  0.00  0.00    -0.246 OA
BRANCH   3   6
ATOM      5  C   LIG    1       28.280 -13.573   3.865  0.00  0.00    +0.280 C 
ATOM      6  O   LIG    1       27.433 -14.710   4.046  0.00  0.00    -0.465 OA
ENDBRANCH   3   6
ENDBRANCH   1   3
BRANCH   2   7
ATOM      7  C   LIG    1       25.286 -18.464   3.588  0.00  0.00    +0.332 C 
ATOM      8  O   LIG    1       25.636 -19.614   3.766  0.00  0.00    -0.246 OA
BRANCH   7   9
ATOM      9  O   LIG    1       24.021 -17.971   3.669  0.00  0.00    -0.465 OA
ATOM     10  C   LIG    1       23.048 -18.923   4.099  0.00  0.00    +0.280 C 
ENDBRANCH   7   9
ENDBRANCH   2   7
TORSDOF 4
ENDMDL
MODEL 9
REMARK VINA RESULT:      -3.7      4.462      5.962
REMARK  Name = *****
REMARK                            x       y       z     vdW  Elec       q    Type
REMARK                         _______ _______ _______ _____ _____    ______ ____
ROOT
ATOM      1  C   LIG    1       25.741 -16.202   3.414  0.00  0.00    +0.098 C 
ATOM      2  C   LIG    1       26.054 -17.505   3.392  0.00  0.00    +0.098 C 
ENDROOT
BRANCH   1   3
ATOM      3  C   LIG    1       26.799 -15.193   3.227  0.00  0.00    +0.332 C 
ATOM      4  O   LIG    1       27.760 -15.041   3.963  0.00  0.00    -0.246 OA
BRANCH   3   6
ATOM      5  C   LIG    1       25.624 -13.388   2.315  0.00  0.00    +0.280 C 
ATOM      6  O   LIG    1       26.515 -14.486   2.106  0.00  0.00    -0.465 OA
ENDBRANCH   3   6
ENDBRANCH   1   3
BRANCH   2   7
ATOM      7  C   LIG    1       24.984 -18.510   3.528  0.00  0.00    +0.332 C 
ATOM      8  O   LIG    1       23.793 -18.275   3.570  0.00  0.00    -0.246 OA
BRANCH   7   9
ATOM      9  O   LIG    1       25.579 -19.733   3.571  0.00  0.00    -0.465 OA
ATOM     10  C   LIG    1       24.892 -20.690   4.378  0.00  0.00    +0.280 C 
ENDBRANCH   7   9
ENDBRANCH   2   7
TORSDOF 4
ENDMDL
