MODEL 1
REMARK VINA RESULT:      -8.6      0.000      0.000
REMARK  Name = *****
REMARK                            x       y       z     vdW  Elec       q    Type
REMARK                         _______ _______ _______ _____ _____    ______ ____
ROOT
ATOM      1  C   LIG    1       25.127 -31.930   8.622  0.00  0.00    +0.065 C 
ATOM      2  C   LIG    1       25.320 -30.459   8.991  0.00  0.00    +0.096 C 
ATOM      3  C   LIG    1       25.137 -29.517   7.803  0.00  0.00    +0.065 C 
ATOM      4  C   LIG    1       24.480 -29.946   6.690  0.00  0.00    +0.016 C 
ATOM      5  C   LIG    1       24.272 -29.124   5.440  0.00  0.00    +0.061 C 
ATOM      6  N   LIG    1       24.013 -31.257   6.636  0.00  0.00    -0.321 N 
ATOM      7  H   LIG    1       23.649 -31.566   5.736  0.00  0.00    +0.152 HD
ATOM      8  C   LIG    1       24.454 -32.261   7.492  0.00  0.00    +0.016 C 
ATOM      9  C   LIG    1       24.180 -33.674   7.041  0.00  0.00    +0.061 C 
ENDROOT
BRANCH   2  10
ATOM     10  C   LIG    1       24.448 -30.047  10.192  0.00  0.00    -0.029 A 
ATOM     11  C   LIG    1       23.069 -30.316  10.191  0.00  0.00    +0.088 A 
ATOM     12  C   LIG    1       22.288 -29.954  11.299  0.00  0.00    +0.273 A 
ATOM     13  C   LIG    1       22.835 -29.325  12.416  0.00  0.00    +0.084 A 
ATOM     14  C   LIG    1       24.199 -29.046  12.419  0.00  0.00    +0.007 A 
ATOM     15  C   LIG    1       24.996 -29.403  11.321  0.00  0.00    +0.005 A 
BRANCH  12  16
ATOM     16  N   LIG    1       20.865 -30.235  11.280  0.00  0.00    +0.080 N 
ATOM     17  O   LIG    1       20.392 -30.674  10.223  0.00  0.00    -0.576 OA
ATOM     18  O   LIG    1       20.234 -30.022  12.323  0.00  0.00    +0.041 OA
ENDBRANCH  12  16
ENDBRANCH   2  10
BRANCH   1  19
ATOM     19  C   LIG    1       25.792 -32.952   9.478  0.00  0.00    +0.337 C 
ATOM     20  O   LIG    1       26.987 -33.211   9.467  0.00  0.00    -0.245 OA
BRANCH  19  22
ATOM     21  C   LIG    1       25.063 -33.309  11.712  0.00  0.00    +0.280 C 
ATOM     22  O   LIG    1       24.881 -33.518  10.308  0.00  0.00    -0.465 OA
ENDBRANCH  19  22
ENDBRANCH   1  19
BRANCH   3  23
ATOM     23  C   LIG    1       25.760 -28.173   7.900  0.00  0.00    +0.338 C 
ATOM     24  O   LIG    1       26.608 -27.864   8.731  0.00  0.00    -0.245 OA
BRANCH  23  25
ATOM     25  O   LIG    1       25.243 -27.325   6.973  0.00  0.00    -0.457 OA
BRANCH  25  26
ATOM     26  C   LIG    1       26.145 -26.384   6.357  0.00  0.00    +0.192 C 
ATOM     27  C   LIG    1       25.898 -24.975   6.913  0.00  0.00    +0.129 C 
ATOM     28  N   LIG    1       25.226 -24.184   5.863  0.00  0.00    -0.294 NA
ATOM     29  C   LIG    1       24.846 -25.110   4.793  0.00  0.00    +0.088 C 
ATOM     30  C   LIG    1       25.828 -26.263   4.876  0.00  0.00    +0.061 C 
BRANCH  28  31
ATOM     31  C   LIG    1       24.082 -23.409   6.371  0.00  0.00    +0.119 C 
BRANCH  31  32
ATOM     32  C   LIG    1       23.918 -22.046   5.720  0.00  0.00    -0.033 A 
ATOM     33  C   LIG    1       22.701 -21.353   5.821  0.00  0.00    +0.005 A 
ATOM     34  C   LIG    1       22.530 -20.107   5.212  0.00  0.00    +0.000 A 
ATOM     35  C   LIG    1       23.576 -19.534   4.495  0.00  0.00    +0.000 A 
ATOM     36  C   LIG    1       24.794 -20.204   4.391  0.00  0.00    +0.000 A 
ATOM     37  C   LIG    1       24.966 -21.454   4.998  0.00  0.00    +0.005 A 
ENDBRANCH  31  32
ENDBRANCH  28  31
ENDBRANCH  25  26
ENDBRANCH  23  25
ENDBRANCH   3  23
TORSDOF 9
ENDMDL
MODEL 2
REMARK VINA RESULT:      -8.6      1.955      2.802
REMARK  Name = *****
REMARK                            x       y       z     vdW  Elec       q    Type
REMARK                         _______ _______ _______ _____ _____    ______ ____
ROOT
ATOM      1  C   LIG    1       26.174 -31.495   8.970  0.00  0.00    +0.065 C 
ATOM      2  C   LIG    1       24.982 -30.670   8.486  0.00  0.00    +0.096 C 
ATOM      3  C   LIG    1       24.891 -30.590   6.964  0.00  0.00    +0.065 C 
ATOM      4  C   LIG    1       25.558 -31.494   6.195  0.00  0.00    +0.016 C 
ATOM      5  C   LIG    1       25.578 -31.495   4.684  0.00  0.00    +0.061 C 
ATOM      6  N   LIG    1       26.347 -32.463   6.809  0.00  0.00    -0.321 N 
ATOM      7  H   LIG    1       26.927 -33.028   6.191  0.00  0.00    +0.152 HD
ATOM      8  C   LIG    1       26.773 -32.375   8.131  0.00  0.00    +0.016 C 
ATOM      9  C   LIG    1       27.937 -33.259   8.504  0.00  0.00    +0.061 C 
ENDROOT
BRANCH   2  10
ATOM     10  C   LIG    1       23.659 -31.142   9.118  0.00  0.00    -0.029 A 
ATOM     11  C   LIG    1       23.009 -30.346  10.076  0.00  0.00    +0.088 A 
ATOM     12  C   LIG    1       21.794 -30.775  10.631  0.00  0.00    +0.273 A 
ATOM     13  C   LIG    1       21.199 -31.981  10.264  0.00  0.00    +0.084 A 
ATOM     14  C   LIG    1       21.843 -32.780   9.322  0.00  0.00    +0.007 A 
ATOM     15  C   LIG    1       23.058 -32.365   8.756  0.00  0.00    +0.005 A 
BRANCH  12  16
ATOM     16  N   LIG    1       21.138 -29.944  11.622  0.00  0.00    +0.080 N 
ATOM     17  O   LIG    1       19.999 -30.279  11.973  0.00  0.00    -0.576 OA
ATOM     18  O   LIG    1       21.769 -28.967  12.046  0.00  0.00    +0.041 OA
ENDBRANCH  12  16
ENDBRANCH   2  10
BRANCH   1  19
ATOM     19  C   LIG    1       26.704 -31.211  10.334  0.00  0.00    +0.337 C 
ATOM     20  O   LIG    1       26.300 -31.725  11.368  0.00  0.00    -0.245 OA
BRANCH  19  22
ATOM     21  C   LIG    1       27.864 -29.383  11.312  0.00  0.00    +0.280 C 
ATOM     22  O   LIG    1       27.736 -30.335  10.252  0.00  0.00    -0.465 OA
ENDBRANCH  19  22
ENDBRANCH   1  19
BRANCH   3  23
ATOM     23  C   LIG    1       24.116 -29.461   6.388  0.00  0.00    +0.338 C 
ATOM     24  O   LIG    1       23.258 -29.587   5.520  0.00  0.00    -0.245 OA
BRANCH  23  25
ATOM     25  O   LIG    1       24.507 -28.276   6.922  0.00  0.00    -0.457 OA
BRANCH  25  26
ATOM     26  C   LIG    1       25.662 -27.635   6.343  0.00  0.00    +0.192 C 
ATOM     27  C   LIG    1       25.928 -26.295   7.042  0.00  0.00    +0.129 C 
ATOM     28  N   LIG    1       25.542 -25.214   6.114  0.00  0.00    -0.294 NA
ATOM     29  C   LIG    1       24.840 -25.834   4.987  0.00  0.00    +0.088 C 
ATOM     30  C   LIG    1       25.368 -27.253   4.902  0.00  0.00    +0.061 C 
BRANCH  28  31
ATOM     31  C   LIG    1       24.747 -24.157   6.762  0.00  0.00    +0.119 C 
BRANCH  31  32
ATOM     32  C   LIG    1       25.457 -22.817   6.856  0.00  0.00    -0.033 A 
ATOM     33  C   LIG    1       25.270 -21.843   5.861  0.00  0.00    +0.005 A 
ATOM     34  C   LIG    1       25.930 -20.614   5.924  0.00  0.00    +0.000 A 
ATOM     35  C   LIG    1       26.785 -20.338   6.987  0.00  0.00    +0.000 A 
ATOM     36  C   LIG    1       26.975 -21.289   7.989  0.00  0.00    +0.000 A 
ATOM     37  C   LIG    1       26.317 -22.523   7.924  0.00  0.00    +0.005 A 
ENDBRANCH  31  32
ENDBRANCH  28  31
ENDBRANCH  25  26
ENDBRANCH  23  25
ENDBRANCH   3  23
TORSDOF 9
ENDMDL
MODEL 3
REMARK VINA RESULT:      -8.5      2.385      4.472
REMARK  Name = *****
REMARK                            x       y       z     vdW  Elec       q    Type
REMARK                         _______ _______ _______ _____ _____    ______ ____
ROOT
ATOM      1  C   LIG    1       23.418 -29.729  12.073  0.00  0.00    +0.065 C 
ATOM      2  C   LIG    1       22.892 -30.209  10.720  0.00  0.00    +0.096 C 
ATOM      3  C   LIG    1       23.992 -30.749   9.810  0.00  0.00    +0.065 C 
ATOM      4  C   LIG    1       25.192 -31.118  10.339  0.00  0.00    +0.016 C 
ATOM      5  C   LIG    1       26.368 -31.627   9.538  0.00  0.00    +0.061 C 
ATOM      6  N   LIG    1       25.412 -30.964  11.704  0.00  0.00    -0.321 N 
ATOM      7  H   LIG    1       26.365 -31.129  12.027  0.00  0.00    +0.152 HD
ATOM      8  C   LIG    1       24.626 -30.155  12.518  0.00  0.00    +0.016 C 
ATOM      9  C   LIG    1       25.234 -29.770  13.844  0.00  0.00    +0.061 C 
ENDROOT
BRANCH   2  10
ATOM     10  C   LIG    1       21.730 -31.209  10.875  0.00  0.00    -0.029 A 
ATOM     11  C   LIG    1       20.413 -30.814  10.588  0.00  0.00    +0.088 A 
ATOM     12  C   LIG    1       19.366 -31.738  10.712  0.00  0.00    +0.273 A 
ATOM     13  C   LIG    1       19.584 -33.053  11.119  0.00  0.00    +0.084 A 
ATOM     14  C   LIG    1       20.886 -33.449  11.415  0.00  0.00    +0.007 A 
ATOM     15  C   LIG    1       21.946 -32.538  11.294  0.00  0.00    +0.005 A 
BRANCH  12  16
ATOM     16  N   LIG    1       18.011 -31.312  10.417  0.00  0.00    +0.080 N 
ATOM     17  O   LIG    1       17.782 -30.923   9.264  0.00  0.00    -0.576 OA
ATOM     18  O   LIG    1       17.185 -31.377  11.336  0.00  0.00    +0.041 OA
ENDBRANCH  12  16
ENDBRANCH   2  10
BRANCH   1  19
ATOM     19  C   LIG    1       22.615 -28.711  12.806  0.00  0.00    +0.337 C 
ATOM     20  O   LIG    1       21.569 -28.932  13.400  0.00  0.00    -0.245 OA
BRANCH  19  22
ATOM     21  C   LIG    1       22.554 -26.393  13.327  0.00  0.00    +0.280 C 
ATOM     22  O   LIG    1       23.243 -27.509  12.758  0.00  0.00    -0.465 OA
ENDBRANCH  19  22
ENDBRANCH   1  19
BRANCH   3  23
ATOM     23  C   LIG    1       23.714 -30.779   8.351  0.00  0.00    +0.338 C 
ATOM     24  O   LIG    1       23.477 -31.801   7.716  0.00  0.00    -0.245 OA
BRANCH  23  25
ATOM     25  O   LIG    1       23.790 -29.535   7.812  0.00  0.00    -0.457 OA
BRANCH  25  26
ATOM     26  C   LIG    1       25.056 -29.128   7.256  0.00  0.00    +0.192 C 
ATOM     27  C   LIG    1       25.127 -27.597   7.169  0.00  0.00    +0.129 C 
ATOM     28  N   LIG    1       25.000 -27.217   5.749  0.00  0.00    -0.294 NA
ATOM     29  C   LIG    1       24.622 -28.421   5.005  0.00  0.00    +0.088 C 
ATOM     30  C   LIG    1       25.155 -29.590   5.812  0.00  0.00    +0.061 C 
BRANCH  28  31
ATOM     31  C   LIG    1       24.062 -26.103   5.533  0.00  0.00    +0.119 C 
BRANCH  31  32
ATOM     32  C   LIG    1       24.455 -24.815   6.238  0.00  0.00    -0.033 A 
ATOM     33  C   LIG    1       23.472 -23.892   6.630  0.00  0.00    +0.005 A 
ATOM     34  C   LIG    1       23.820 -22.697   7.263  0.00  0.00    +0.000 A 
ATOM     35  C   LIG    1       25.157 -22.407   7.515  0.00  0.00    +0.000 A 
ATOM     36  C   LIG    1       26.146 -23.315   7.141  0.00  0.00    +0.000 A 
ATOM     37  C   LIG    1       25.799 -24.513   6.505  0.00  0.00    +0.005 A 
ENDBRANCH  31  32
ENDBRANCH  28  31
ENDBRANCH  25  26
ENDBRANCH  23  25
ENDBRANCH   3  23
TORSDOF 9
ENDMDL
MODEL 4
REMARK VINA RESULT:      -8.3      1.484      2.008
REMARK  Name = *****
REMARK                            x       y       z     vdW  Elec       q    Type
REMARK                         _______ _______ _______ _____ _____    ______ ____
ROOT
ATOM      1  C   LIG    1       25.146 -31.909   8.638  0.00  0.00    +0.065 C 
ATOM      2  C   LIG    1       25.344 -30.436   8.998  0.00  0.00    +0.096 C 
ATOM      3  C   LIG    1       25.147 -29.500   7.808  0.00  0.00    +0.065 C 
ATOM      4  C   LIG    1       24.478 -29.935   6.704  0.00  0.00    +0.016 C 
ATOM      5  C   LIG    1       24.256 -29.119   5.452  0.00  0.00    +0.061 C 
ATOM      6  N   LIG    1       24.010 -31.245   6.662  0.00  0.00    -0.321 N 
ATOM      7  H   LIG    1       23.636 -31.560   5.767  0.00  0.00    +0.152 HD
ATOM      8  C   LIG    1       24.461 -32.245   7.518  0.00  0.00    +0.016 C 
ATOM      9  C   LIG    1       24.182 -33.661   7.077  0.00  0.00    +0.061 C 
ENDROOT
BRANCH   2  10
ATOM     10  C   LIG    1       24.485 -30.017  10.207  0.00  0.00    -0.029 A 
ATOM     11  C   LIG    1       25.083 -29.399  11.318  0.00  0.00    +0.088 A 
ATOM     12  C   LIG    1       24.289 -29.003  12.405  0.00  0.00    +0.273 A 
ATOM     13  C   LIG    1       22.910 -29.205  12.427  0.00  0.00    +0.084 A 
ATOM     14  C   LIG    1       22.314 -29.827  11.333  0.00  0.00    +0.007 A 
ATOM     15  C   LIG    1       23.091 -30.227  10.236  0.00  0.00    +0.005 A 
BRANCH  12  16
ATOM     16  N   LIG    1       24.922 -28.370  13.546  0.00  0.00    +0.080 N 
ATOM     17  O   LIG    1       26.154 -28.464  13.631  0.00  0.00    -0.576 OA
ATOM     18  O   LIG    1       24.185 -27.779  14.346  0.00  0.00    +0.041 OA
ENDBRANCH  12  16
ENDBRANCH   2  10
BRANCH   1  19
ATOM     19  C   LIG    1       25.821 -32.926   9.492  0.00  0.00    +0.337 C 
ATOM     20  O   LIG    1       27.018 -33.179   9.475  0.00  0.00    -0.245 OA
BRANCH  19  22
ATOM     21  C   LIG    1       25.101 -33.277  11.730  0.00  0.00    +0.280 C 
ATOM     22  O   LIG    1       24.918 -33.496  10.328  0.00  0.00    -0.465 OA
ENDBRANCH  19  22
ENDBRANCH   1  19
BRANCH   3  23
ATOM     23  C   LIG    1       25.771 -28.155   7.891  0.00  0.00    +0.338 C 
ATOM     24  O   LIG    1       26.631 -27.843   8.708  0.00  0.00    -0.245 OA
BRANCH  23  25
ATOM     25  O   LIG    1       25.240 -27.311   6.968  0.00  0.00    -0.457 OA
BRANCH  25  26
ATOM     26  C   LIG    1       26.131 -26.365   6.343  0.00  0.00    +0.192 C 
ATOM     27  C   LIG    1       25.887 -24.958   6.906  0.00  0.00    +0.129 C 
ATOM     28  N   LIG    1       25.199 -24.167   5.868  0.00  0.00    -0.294 NA
ATOM     29  C   LIG    1       24.808 -25.091   4.800  0.00  0.00    +0.088 C 
ATOM     30  C   LIG    1       25.794 -26.241   4.867  0.00  0.00    +0.061 C 
BRANCH  28  31
ATOM     31  C   LIG    1       24.059 -23.397   6.393  0.00  0.00    +0.119 C 
BRANCH  31  32
ATOM     32  C   LIG    1       23.862 -22.047   5.724  0.00  0.00    -0.033 A 
ATOM     33  C   LIG    1       24.681 -21.661   4.649  0.00  0.00    +0.005 A 
ATOM     34  C   LIG    1       24.524 -20.416   4.037  0.00  0.00    +0.000 A 
ATOM     35  C   LIG    1       23.543 -19.538   4.487  0.00  0.00    +0.000 A 
ATOM     36  C   LIG    1       22.716 -19.907   5.546  0.00  0.00    +0.000 A 
ATOM     37  C   LIG    1       22.874 -21.154   6.164  0.00  0.00    +0.005 A 
ENDBRANCH  31  32
ENDBRANCH  28  31
ENDBRANCH  25  26
ENDBRANCH  23  25
ENDBRANCH   3  23
TORSDOF 9
ENDMDL
MODEL 5
REMARK VINA RESULT:      -8.1      2.637      3.554
REMARK  Name = *****
REMARK                            x       y       z     vdW  Elec       q    Type
REMARK                         _______ _______ _______ _____ _____    ______ ____
ROOT
ATOM      1  C   LIG    1       24.904 -31.322  12.058  0.00  0.00    +0.065 C 
ATOM      2  C   LIG    1       25.329 -29.978  11.467  0.00  0.00    +0.096 C 
ATOM      3  C   LIG    1       25.186 -29.923   9.947  0.00  0.00    +0.065 C 
ATOM      4  C   LIG    1       24.391 -30.823   9.306  0.00  0.00    +0.016 C 
ATOM      5  C   LIG    1       24.202 -30.895   7.808  0.00  0.00    +0.061 C 
ATOM      6  N   LIG    1       23.743 -31.809  10.045  0.00  0.00    -0.321 N 
ATOM      7  H   LIG    1       23.269 -32.534   9.507  0.00  0.00    +0.152 HD
ATOM      8  C   LIG    1       24.106 -32.153  11.343  0.00  0.00    +0.016 C 
ATOM      9  C   LIG    1       23.602 -33.488  11.832  0.00  0.00    +0.061 C 
ENDROOT
BRANCH   2  10
ATOM     10  C   LIG    1       24.620 -28.795  12.154  0.00  0.00    -0.029 A 
ATOM     11  C   LIG    1       25.368 -27.710  12.643  0.00  0.00    +0.088 A 
ATOM     12  C   LIG    1       24.711 -26.629  13.249  0.00  0.00    +0.273 A 
ATOM     13  C   LIG    1       23.325 -26.590  13.391  0.00  0.00    +0.084 A 
ATOM     14  C   LIG    1       22.579 -27.667  12.917  0.00  0.00    +0.007 A 
ATOM     15  C   LIG    1       23.219 -28.756  12.306  0.00  0.00    +0.005 A 
BRANCH  12  16
ATOM     16  N   LIG    1       25.497 -25.519  13.753  0.00  0.00    +0.080 N 
ATOM     17  O   LIG    1       26.263 -24.964  12.954  0.00  0.00    -0.576 OA
ATOM     18  O   LIG    1       25.339 -25.207  14.940  0.00  0.00    +0.041 OA
ENDBRANCH  12  16
ENDBRANCH   2  10
BRANCH   1  19
ATOM     19  C   LIG    1       25.486 -31.715  13.371  0.00  0.00    +0.337 C 
ATOM     20  O   LIG    1       26.660 -31.994  13.568  0.00  0.00    -0.245 OA
BRANCH  19  22
ATOM     21  C   LIG    1       24.609 -30.603  15.280  0.00  0.00    +0.280 C 
ATOM     22  O   LIG    1       24.527 -31.669  14.330  0.00  0.00    -0.465 OA
ENDBRANCH  19  22
ENDBRANCH   1  19
BRANCH   3  23
ATOM     23  C   LIG    1       25.996 -28.909   9.225  0.00  0.00    +0.338 C 
ATOM     24  O   LIG    1       27.155 -28.623   9.509  0.00  0.00    -0.245 OA
BRANCH  23  25
ATOM     25  O   LIG    1       25.275 -28.320   8.236  0.00  0.00    -0.457 OA
BRANCH  25  26
ATOM     26  C   LIG    1       26.005 -27.608   7.216  0.00  0.00    +0.192 C 
ATOM     27  C   LIG    1       25.697 -26.106   7.298  0.00  0.00    +0.129 C 
ATOM     28  N   LIG    1       24.832 -25.757   6.153  0.00  0.00    -0.294 NA
ATOM     29  C   LIG    1       24.413 -27.012   5.522  0.00  0.00    +0.088 C 
ATOM     30  C   LIG    1       25.501 -28.019   5.843  0.00  0.00    +0.061 C 
BRANCH  28  31
ATOM     31  C   LIG    1       23.691 -24.908   6.533  0.00  0.00    +0.119 C 
BRANCH  31  32
ATOM     32  C   LIG    1       23.981 -23.418   6.476  0.00  0.00    -0.033 A 
ATOM     33  C   LIG    1       23.170 -22.510   7.177  0.00  0.00    +0.005 A 
ATOM     34  C   LIG    1       23.413 -21.136   7.119  0.00  0.00    +0.000 A 
ATOM     35  C   LIG    1       24.475 -20.649   6.363  0.00  0.00    +0.000 A 
ATOM     36  C   LIG    1       25.296 -21.535   5.669  0.00  0.00    +0.000 A 
ATOM     37  C   LIG    1       25.051 -22.913   5.723  0.00  0.00    +0.005 A 
ENDBRANCH  31  32
ENDBRANCH  28  31
ENDBRANCH  25  26
ENDBRANCH  23  25
ENDBRANCH   3  23
TORSDOF 9
ENDMDL
MODEL 6
REMARK VINA RESULT:      -8.0      2.023      2.898
REMARK  Name = *****
REMARK                            x       y       z     vdW  Elec       q    Type
REMARK                         _______ _______ _______ _____ _____    ______ ____
ROOT
ATOM      1  C   LIG    1       24.756 -31.575  11.900  0.00  0.00    +0.065 C 
ATOM      2  C   LIG    1       25.204 -30.220  11.350  0.00  0.00    +0.096 C 
ATOM      3  C   LIG    1       25.083 -30.124   9.831  0.00  0.00    +0.065 C 
ATOM      4  C   LIG    1       24.287 -30.998   9.155  0.00  0.00    +0.016 C 
ATOM      5  C   LIG    1       24.118 -31.028   7.654  0.00  0.00    +0.061 C 
ATOM      6  N   LIG    1       23.617 -31.995   9.859  0.00  0.00    -0.321 N 
ATOM      7  H   LIG    1       23.143 -32.700   9.296  0.00  0.00    +0.152 HD
ATOM      8  C   LIG    1       23.958 -32.377  11.152  0.00  0.00    +0.016 C 
ATOM      9  C   LIG    1       23.433 -33.719  11.600  0.00  0.00    +0.061 C 
ENDROOT
BRANCH   2  10
ATOM     10  C   LIG    1       24.499 -29.048  12.059  0.00  0.00    -0.029 A 
ATOM     11  C   LIG    1       23.097 -29.008  12.135  0.00  0.00    +0.088 A 
ATOM     12  C   LIG    1       22.466 -27.946  12.800  0.00  0.00    +0.273 A 
ATOM     13  C   LIG    1       23.187 -26.912  13.395  0.00  0.00    +0.084 A 
ATOM     14  C   LIG    1       24.577 -26.941  13.314  0.00  0.00    +0.007 A 
ATOM     15  C   LIG    1       25.225 -27.996  12.654  0.00  0.00    +0.005 A 
BRANCH  12  16
ATOM     16  N   LIG    1       21.017 -27.918  12.867  0.00  0.00    +0.080 N 
ATOM     17  O   LIG    1       20.439 -29.001  13.024  0.00  0.00    -0.576 OA
ATOM     18  O   LIG    1       20.469 -26.813  12.768  0.00  0.00    +0.041 OA
ENDBRANCH  12  16
ENDBRANCH   2  10
BRANCH   1  19
ATOM     19  C   LIG    1       25.315 -32.008  13.210  0.00  0.00    +0.337 C 
ATOM     20  O   LIG    1       26.351 -32.641  13.361  0.00  0.00    -0.245 OA
BRANCH  19  22
ATOM     21  C   LIG    1       25.180 -30.872  15.294  0.00  0.00    +0.280 C 
ATOM     22  O   LIG    1       24.528 -31.553  14.218  0.00  0.00    -0.465 OA
ENDBRANCH  19  22
ENDBRANCH   1  19
BRANCH   3  23
ATOM     23  C   LIG    1       25.915 -29.100   9.147  0.00  0.00    +0.338 C 
ATOM     24  O   LIG    1       27.073 -28.836   9.453  0.00  0.00    -0.245 OA
BRANCH  23  25
ATOM     25  O   LIG    1       25.213 -28.476   8.165  0.00  0.00    -0.457 OA
BRANCH  25  26
ATOM     26  C   LIG    1       25.967 -27.797   7.140  0.00  0.00    +0.192 C 
ATOM     27  C   LIG    1       25.761 -26.280   7.252  0.00  0.00    +0.129 C 
ATOM     28  N   LIG    1       24.897 -25.856   6.133  0.00  0.00    -0.294 NA
ATOM     29  C   LIG    1       24.383 -27.069   5.492  0.00  0.00    +0.088 C 
ATOM     30  C   LIG    1       25.408 -28.151   5.773  0.00  0.00    +0.061 C 
BRANCH  28  31
ATOM     31  C   LIG    1       23.823 -24.940   6.551  0.00  0.00    +0.119 C 
BRANCH  31  32
ATOM     32  C   LIG    1       24.274 -23.502   6.744  0.00  0.00    -0.033 A 
ATOM     33  C   LIG    1       25.635 -23.167   6.650  0.00  0.00    +0.005 A 
ATOM     34  C   LIG    1       26.067 -21.853   6.843  0.00  0.00    +0.000 A 
ATOM     35  C   LIG    1       25.143 -20.852   7.130  0.00  0.00    +0.000 A 
ATOM     36  C   LIG    1       23.788 -21.165   7.219  0.00  0.00    +0.000 A 
ATOM     37  C   LIG    1       23.354 -22.482   7.028  0.00  0.00    +0.005 A 
ENDBRANCH  31  32
ENDBRANCH  28  31
ENDBRANCH  25  26
ENDBRANCH  23  25
ENDBRANCH   3  23
TORSDOF 9
ENDMDL
MODEL 7
REMARK VINA RESULT:      -7.8      2.404      4.955
REMARK  Name = *****
REMARK                            x       y       z     vdW  Elec       q    Type
REMARK                         _______ _______ _______ _____ _____    ______ ____
ROOT
ATOM      1  C   LIG    1       23.862 -31.294   9.203  0.00  0.00    +0.065 C 
ATOM      2  C   LIG    1       23.977 -30.727   7.787  0.00  0.00    +0.096 C 
ATOM      3  C   LIG    1       24.842 -29.470   7.717  0.00  0.00    +0.065 C 
ATOM      4  C   LIG    1       25.706 -29.182   8.729  0.00  0.00    +0.016 C 
ATOM      5  C   LIG    1       26.582 -27.952   8.793  0.00  0.00    +0.061 C 
ATOM      6  N   LIG    1       25.765 -30.024   9.837  0.00  0.00    -0.321 N 
ATOM      7  H   LIG    1       26.327 -29.695  10.621  0.00  0.00    +0.152 HD
ATOM      8  C   LIG    1       24.775 -30.951  10.145  0.00  0.00    +0.016 C 
ATOM      9  C   LIG    1       24.778 -31.467  11.562  0.00  0.00    +0.061 C 
ENDROOT
BRANCH   2  10
ATOM     10  C   LIG    1       24.430 -31.794   6.773  0.00  0.00    -0.029 A 
ATOM     11  C   LIG    1       25.793 -32.102   6.632  0.00  0.00    +0.088 A 
ATOM     12  C   LIG    1       26.193 -33.090   5.720  0.00  0.00    +0.273 A 
ATOM     13  C   LIG    1       25.277 -33.786   4.934  0.00  0.00    +0.084 A 
ATOM     14  C   LIG    1       23.925 -33.478   5.062  0.00  0.00    +0.007 A 
ATOM     15  C   LIG    1       23.506 -32.495   5.971  0.00  0.00    +0.005 A 
BRANCH  12  16
ATOM     16  N   LIG    1       27.605 -33.393   5.583  0.00  0.00    +0.080 N 
ATOM     17  O   LIG    1       27.985 -33.824   4.486  0.00  0.00    -0.576 OA
ATOM     18  O   LIG    1       28.325 -33.191   6.569  0.00  0.00    +0.041 OA
ENDBRANCH  12  16
ENDBRANCH   2  10
BRANCH   1  19
ATOM     19  C   LIG    1       22.668 -32.126   9.519  0.00  0.00    +0.337 C 
ATOM     20  O   LIG    1       22.649 -33.349   9.549  0.00  0.00    -0.245 OA
BRANCH  19  22
ATOM     21  C   LIG    1       20.825 -31.687  10.954  0.00  0.00    +0.280 C 
ATOM     22  O   LIG    1       21.615 -31.324   9.818  0.00  0.00    -0.465 OA
ENDBRANCH  19  22
ENDBRANCH   1  19
BRANCH   3  23
ATOM     23  C   LIG    1       24.639 -28.570   6.553  0.00  0.00    +0.338 C 
ATOM     24  O   LIG    1       24.185 -28.932   5.473  0.00  0.00    -0.245 OA
BRANCH  23  25
ATOM     25  O   LIG    1       25.054 -27.307   6.833  0.00  0.00    -0.457 OA
BRANCH  25  26
ATOM     26  C   LIG    1       25.100 -26.366   5.740  0.00  0.00    +0.192 C 
ATOM     27  C   LIG    1       26.142 -25.276   6.028  0.00  0.00    +0.129 C 
ATOM     28  N   LIG    1       25.418 -24.031   6.351  0.00  0.00    -0.294 NA
ATOM     29  C   LIG    1       24.001 -24.374   6.503  0.00  0.00    +0.088 C 
ATOM     30  C   LIG    1       23.784 -25.613   5.656  0.00  0.00    +0.061 C 
BRANCH  28  31
ATOM     31  C   LIG    1       25.961 -23.340   7.533  0.00  0.00    +0.119 C 
BRANCH  31  32
ATOM     32  C   LIG    1       26.758 -22.089   7.208  0.00  0.00    -0.033 A 
ATOM     33  C   LIG    1       26.326 -21.215   6.196  0.00  0.00    +0.005 A 
ATOM     34  C   LIG    1       27.058 -20.070   5.874  0.00  0.00    +0.000 A 
ATOM     35  C   LIG    1       28.233 -19.779   6.560  0.00  0.00    +0.000 A 
ATOM     36  C   LIG    1       28.673 -20.630   7.573  0.00  0.00    +0.000 A 
ATOM     37  C   LIG    1       27.941 -21.780   7.895  0.00  0.00    +0.005 A 
ENDBRANCH  31  32
ENDBRANCH  28  31
ENDBRANCH  25  26
ENDBRANCH  23  25
ENDBRANCH   3  23
TORSDOF 9
ENDMDL
MODEL 8
REMARK VINA RESULT:      -7.3      2.597      3.471
REMARK  Name = *****
REMARK                            x       y       z     vdW  Elec       q    Type
REMARK                         _______ _______ _______ _____ _____    ______ ____
ROOT
ATOM      1  C   LIG    1       25.675 -31.163   7.162  0.00  0.00    +0.065 C 
ATOM      2  C   LIG    1       25.933 -29.723   7.607  0.00  0.00    +0.096 C 
ATOM      3  C   LIG    1       25.320 -28.689   6.665  0.00  0.00    +0.065 C 
ATOM      4  C   LIG    1       24.336 -29.057   5.799  0.00  0.00    +0.016 C 
ATOM      5  C   LIG    1       23.683 -28.138   4.794  0.00  0.00    +0.061 C 
ATOM      6  N   LIG    1       23.924 -30.386   5.760  0.00  0.00    -0.321 N 
ATOM      7  H   LIG    1       23.283 -30.635   5.007  0.00  0.00    +0.152 HD
ATOM      8  C   LIG    1       24.666 -31.433   6.297  0.00  0.00    +0.016 C 
ATOM      9  C   LIG    1       24.302 -32.813   5.810  0.00  0.00    +0.061 C 
ENDROOT
BRANCH   2  10
ATOM     10  C   LIG    1       25.514 -29.488   9.071  0.00  0.00    -0.029 A 
ATOM     11  C   LIG    1       26.389 -28.845   9.962  0.00  0.00    +0.088 A 
ATOM     12  C   LIG    1       25.990 -28.617  11.288  0.00  0.00    +0.273 A 
ATOM     13  C   LIG    1       24.741 -29.012  11.763  0.00  0.00    +0.084 A 
ATOM     14  C   LIG    1       23.873 -29.659  10.887  0.00  0.00    +0.007 A 
ATOM     15  C   LIG    1       24.254 -29.893   9.557  0.00  0.00    +0.005 A 
BRANCH  12  16
ATOM     16  N   LIG    1       26.907 -27.956  12.196  0.00  0.00    +0.080 N 
ATOM     17  O   LIG    1       27.803 -28.649  12.696  0.00  0.00    -0.576 OA
ATOM     18  O   LIG    1       26.729 -26.748  12.399  0.00  0.00    +0.041 OA
ENDBRANCH  12  16
ENDBRANCH   2  10
BRANCH   1  19
ATOM     19  C   LIG    1       26.628 -32.211   7.623  0.00  0.00    +0.337 C 
ATOM     20  O   LIG    1       27.522 -32.698   6.944  0.00  0.00    -0.245 OA
BRANCH  19  22
ATOM     21  C   LIG    1       25.469 -33.574   9.187  0.00  0.00    +0.280 C 
ATOM     22  O   LIG    1       26.388 -32.510   8.924  0.00  0.00    -0.465 OA
ENDBRANCH  19  22
ENDBRANCH   1  19
BRANCH   3  23
ATOM     23  C   LIG    1       25.893 -27.319   6.696  0.00  0.00    +0.338 C 
ATOM     24  O   LIG    1       27.081 -27.065   6.533  0.00  0.00    -0.245 OA
BRANCH  23  25
ATOM     25  O   LIG    1       24.934 -26.394   6.963  0.00  0.00    -0.457 OA
BRANCH  25  26
ATOM     26  C   LIG    1       24.712 -25.365   5.977  0.00  0.00    +0.192 C 
ATOM     27  C   LIG    1       25.804 -24.292   6.080  0.00  0.00    +0.129 C 
ATOM     28  N   LIG    1       25.200 -23.085   6.678  0.00  0.00    -0.294 NA
ATOM     29  C   LIG    1       23.864 -23.455   7.156  0.00  0.00    +0.088 C 
ATOM     30  C   LIG    1       23.425 -24.622   6.291  0.00  0.00    +0.061 C 
BRANCH  28  31
ATOM     31  C   LIG    1       26.032 -22.490   7.737  0.00  0.00    +0.119 C 
BRANCH  31  32
ATOM     32  C   LIG    1       27.075 -21.510   7.227  0.00  0.00    -0.033 A 
ATOM     33  C   LIG    1       28.361 -21.484   7.793  0.00  0.00    +0.005 A 
ATOM     34  C   LIG    1       29.324 -20.576   7.347  0.00  0.00    +0.000 A 
ATOM     35  C   LIG    1       29.018 -19.682   6.326  0.00  0.00    +0.000 A 
ATOM     36  C   LIG    1       27.751 -19.699   5.747  0.00  0.00    +0.000 A 
ATOM     37  C   LIG    1       26.783 -20.606   6.194  0.00  0.00    +0.005 A 
ENDBRANCH  31  32
ENDBRANCH  28  31
ENDBRANCH  25  26
ENDBRANCH  23  25
ENDBRANCH   3  23
TORSDOF 9
ENDMDL
MODEL 9
REMARK VINA RESULT:      -7.3      3.561      7.404
REMARK  Name = *****
REMARK                            x       y       z     vdW  Elec       q    Type
REMARK                         _______ _______ _______ _____ _____    ______ ____
ROOT
ATOM      1  C   LIG    1       25.402 -31.959   6.816  0.00  0.00    +0.065 C 
ATOM      2  C   LIG    1       24.522 -31.011   7.632  0.00  0.00    +0.096 C 
ATOM      3  C   LIG    1       24.285 -31.499   9.059  0.00  0.00    +0.065 C 
ATOM      4  C   LIG    1       25.109 -32.436   9.604  0.00  0.00    +0.016 C 
ATOM      5  C   LIG    1       24.953 -33.025  10.987  0.00  0.00    +0.061 C 
ATOM      6  N   LIG    1       26.142 -32.965   8.835  0.00  0.00    -0.321 N 
ATOM      7  H   LIG    1       26.644 -33.754   9.241  0.00  0.00    +0.152 HD
ATOM      8  C   LIG    1       26.195 -32.859   7.449  0.00  0.00    +0.016 C 
ATOM      9  C   LIG    1       27.122 -33.823   6.752  0.00  0.00    +0.061 C 
ENDROOT
BRANCH   2  10
ATOM     10  C   LIG    1       25.048 -29.563   7.598  0.00  0.00    -0.029 A 
ATOM     11  C   LIG    1       24.545 -28.650   6.656  0.00  0.00    +0.088 A 
ATOM     12  C   LIG    1       25.016 -27.329   6.647  0.00  0.00    +0.273 A 
ATOM     13  C   LIG    1       25.979 -26.880   7.549  0.00  0.00    +0.084 A 
ATOM     14  C   LIG    1       26.489 -27.783   8.479  0.00  0.00    +0.007 A 
ATOM     15  C   LIG    1       26.028 -29.108   8.504  0.00  0.00    +0.005 A 
BRANCH  12  16
ATOM     16  N   LIG    1       24.490 -26.400   5.665  0.00  0.00    +0.080 N 
ATOM     17  O   LIG    1       23.537 -25.690   6.015  0.00  0.00    -0.576 OA
ATOM     18  O   LIG    1       25.037 -26.381   4.555  0.00  0.00    +0.041 OA
ENDBRANCH  12  16
ENDBRANCH   2  10
BRANCH   1  19
ATOM     19  C   LIG    1       25.266 -31.925   5.333  0.00  0.00    +0.337 C 
ATOM     20  O   LIG    1       25.908 -31.203   4.582  0.00  0.00    -0.245 OA
BRANCH  19  22
ATOM     21  C   LIG    1       24.669 -33.598   3.755  0.00  0.00    +0.280 C 
ATOM     22  O   LIG    1       24.358 -32.850   4.934  0.00  0.00    -0.465 OA
ENDBRANCH  19  22
ENDBRANCH   1  19
BRANCH   3  23
ATOM     23  C   LIG    1       23.097 -30.963   9.771  0.00  0.00    +0.338 C 
ATOM     24  O   LIG    1       21.959 -31.403   9.643  0.00  0.00    -0.245 OA
BRANCH  23  25
ATOM     25  O   LIG    1       23.431 -29.903  10.553  0.00  0.00    -0.457 OA
BRANCH  25  26
ATOM     26  C   LIG    1       23.368 -30.086  11.982  0.00  0.00    +0.192 C 
ATOM     27  C   LIG    1       22.082 -29.458  12.538  0.00  0.00    +0.129 C 
ATOM     28  N   LIG    1       22.454 -28.226  13.261  0.00  0.00    -0.294 NA
ATOM     29  C   LIG    1       23.865 -27.956  12.969  0.00  0.00    +0.088 C 
ATOM     30  C   LIG    1       24.486 -29.303  12.649  0.00  0.00    +0.061 C 
BRANCH  28  31
ATOM     31  C   LIG    1       21.583 -27.084  12.938  0.00  0.00    +0.119 C 
BRANCH  31  32
ATOM     32  C   LIG    1       20.270 -27.071  13.701  0.00  0.00    -0.033 A 
ATOM     33  C   LIG    1       19.256 -26.163  13.354  0.00  0.00    +0.005 A 
ATOM     34  C   LIG    1       18.051 -26.127  14.058  0.00  0.00    +0.000 A 
ATOM     35  C   LIG    1       17.839 -27.001  15.120  0.00  0.00    +0.000 A 
ATOM     36  C   LIG    1       18.830 -27.915  15.473  0.00  0.00    +0.000 A 
ATOM     37  C   LIG    1       20.040 -27.950  14.770  0.00  0.00    +0.005 A 
ENDBRANCH  31  32
ENDBRANCH  28  31
ENDBRANCH  25  26
ENDBRANCH  23  25
ENDBRANCH   3  23
TORSDOF 9
ENDMDL
