MODEL 1
REMARK VINA RESULT:     -10.2      0.000      0.000
REMARK  Name = *****
REMARK                            x       y       z     vdW  Elec       q    Type
REMARK                         _______ _______ _______ _____ _____    ______ ____
ROOT
ATOM      1  N   LIG    1       27.804 -21.469   8.012  0.00  0.00    -0.302 NA
ATOM      2  C   LIG    1       27.447 -22.443   6.971  0.00  0.00    +0.086 C 
ATOM      3  C   LIG    1       26.191 -23.205   7.418  0.00  0.00    +0.041 C 
ATOM      4  C   LIG    1       24.980 -22.308   7.731  0.00  0.00    +0.095 C 
ATOM      5  C   LIG    1       25.429 -21.085   8.552  0.00  0.00    +0.041 C 
ATOM      6  C   LIG    1       26.741 -20.447   8.089  0.00  0.00    +0.086 C 
ENDROOT
BRANCH   4   7
ATOM      7  N   LIG    1       24.149 -22.028   6.550  0.00  0.00    -0.289 N 
ATOM      8  C   LIG    1       24.470 -21.058   5.563  0.00  0.00    +0.070 A 
ATOM      9  C   LIG    1       23.322 -20.824   4.803  0.00  0.00    +0.067 A 
ATOM     10  C   LIG    1       23.251 -19.896   3.787  0.00  0.00    +0.028 A 
ATOM     11  C   LIG    1       24.419 -19.194   3.497  0.00  0.00    +0.002 A 
ATOM     12  C   LIG    1       25.602 -19.437   4.227  0.00  0.00    +0.002 A 
ATOM     13  N   LIG    1       22.317 -21.644   5.274  0.00  0.00    -0.306 N 
ATOM     14  H   LIG    1       21.362 -21.684   4.958  0.00  0.00    +0.170 HD
ATOM     15  C   LIG    1       25.633 -20.369   5.280  0.00  0.00    +0.028 A 
ATOM     16  C   LIG    1       22.793 -22.395   6.357  0.00  0.00    +0.328 C 
ATOM     17  O   LIG    1       22.107 -23.170   6.979  0.00  0.00    -0.246 OA
ENDBRANCH   4   7
BRANCH   1  18
ATOM     18  C   LIG    1       29.121 -20.826   7.848  0.00  0.00    +0.085 C 
BRANCH  18  19
ATOM     19  C   LIG    1       29.302 -19.950   6.594  0.00  0.00    +0.023 C 
BRANCH  19  20
ATOM     20  C   LIG    1       29.903 -18.566   6.848  0.00  0.00    +0.081 C 
BRANCH  20  22
ATOM     21  O   LIG    1       32.162 -19.246   7.337  0.00  0.00    -0.292 OA
ATOM     22  C   LIG    1       31.191 -18.567   7.664  0.00  0.00    +0.163 C 
BRANCH  22  23
ATOM     23  C   LIG    1       31.255 -17.776   8.932  0.00  0.00    +0.018 A 
ATOM     24  C   LIG    1       30.261 -17.952   9.910  0.00  0.00    +0.014 A 
ATOM     25  C   LIG    1       30.339 -17.262  11.125  0.00  0.00    +0.039 A 
ATOM     26  C   LIG    1       31.411 -16.409  11.362  0.00  0.00    +0.123 A 
ATOM     27  F   LIG    1       31.508 -15.772  12.536  0.00  0.00    -0.205 F 
ATOM     28  C   LIG    1       32.394 -16.216  10.401  0.00  0.00    +0.039 A 
ATOM     29  C   LIG    1       32.315 -16.899   9.185  0.00  0.00    +0.014 A 
ENDBRANCH  22  23
ENDBRANCH  20  22
ENDBRANCH  19  20
ENDBRANCH  18  19
ENDBRANCH   1  18
TORSDOF 6
ENDMDL
MODEL 2
REMARK VINA RESULT:      -9.6      5.000      8.563
REMARK  Name = *****
REMARK                            x       y       z     vdW  Elec       q    Type
REMARK                         _______ _______ _______ _____ _____    ______ ____
ROOT
ATOM      1  N   LIG    1       24.299 -24.819   6.769  0.00  0.00    -0.302 NA
ATOM      2  C   LIG    1       23.448 -23.716   6.302  0.00  0.00    +0.086 C 
ATOM      3  C   LIG    1       23.571 -22.546   7.288  0.00  0.00    +0.041 C 
ATOM      4  C   LIG    1       25.010 -22.041   7.499  0.00  0.00    +0.095 C 
ATOM      5  C   LIG    1       25.970 -23.235   7.652  0.00  0.00    +0.041 C 
ATOM      6  C   LIG    1       25.711 -24.394   6.686  0.00  0.00    +0.086 C 
ENDROOT
BRANCH   4   7
ATOM      7  N   LIG    1       25.406 -21.008   6.530  0.00  0.00    -0.289 N 
ATOM      8  C   LIG    1       24.497 -20.330   5.673  0.00  0.00    +0.070 A 
ATOM      9  C   LIG    1       25.241 -19.695   4.676  0.00  0.00    +0.067 A 
ATOM     10  C   LIG    1       24.680 -18.987   3.636  0.00  0.00    +0.028 A 
ATOM     11  C   LIG    1       23.291 -18.880   3.627  0.00  0.00    +0.002 A 
ATOM     12  C   LIG    1       22.519 -19.483   4.642  0.00  0.00    +0.002 A 
ATOM     13  N   LIG    1       26.579 -19.937   4.914  0.00  0.00    -0.306 N 
ATOM     14  H   LIG    1       27.362 -19.646   4.352  0.00  0.00    +0.170 HD
ATOM     15  C   LIG    1       23.120 -20.227   5.674  0.00  0.00    +0.028 A 
ATOM     16  C   LIG    1       26.715 -20.750   6.046  0.00  0.00    +0.328 C 
ATOM     17  O   LIG    1       27.780 -21.143   6.457  0.00  0.00    -0.246 OA
ENDBRANCH   4   7
BRANCH   1  18
ATOM     18  C   LIG    1       24.109 -26.103   6.068  0.00  0.00    +0.085 C 
BRANCH  18  19
ATOM     19  C   LIG    1       25.282 -26.582   5.192  0.00  0.00    +0.023 C 
BRANCH  19  20
ATOM     20  C   LIG    1       25.670 -28.051   5.373  0.00  0.00    +0.081 C 
BRANCH  20  22
ATOM     21  O   LIG    1       23.691 -29.334   5.864  0.00  0.00    -0.292 OA
ATOM     22  C   LIG    1       24.743 -28.852   6.279  0.00  0.00    +0.163 C 
BRANCH  22  23
ATOM     23  C   LIG    1       25.084 -29.000   7.728  0.00  0.00    +0.018 A 
ATOM     24  C   LIG    1       24.332 -29.874   8.531  0.00  0.00    +0.014 A 
ATOM     25  C   LIG    1       24.674 -30.066   9.875  0.00  0.00    +0.039 A 
ATOM     26  C   LIG    1       25.769 -29.395  10.407  0.00  0.00    +0.123 A 
ATOM     27  F   LIG    1       26.121 -29.601  11.682  0.00  0.00    -0.205 F 
ATOM     28  C   LIG    1       26.515 -28.520   9.629  0.00  0.00    +0.039 A 
ATOM     29  C   LIG    1       26.171 -28.321   8.289  0.00  0.00    +0.014 A 
ENDBRANCH  22  23
ENDBRANCH  20  22
ENDBRANCH  19  20
ENDBRANCH  18  19
ENDBRANCH   1  18
TORSDOF 6
ENDMDL
MODEL 3
REMARK VINA RESULT:      -9.6      1.969      3.183
REMARK  Name = *****
REMARK                            x       y       z     vdW  Elec       q    Type
REMARK                         _______ _______ _______ _____ _____    ______ ____
ROOT
ATOM      1  N   LIG    1       27.179 -20.677   8.010  0.00  0.00    -0.302 NA
ATOM      2  C   LIG    1       27.290 -22.142   8.056  0.00  0.00    +0.086 C 
ATOM      3  C   LIG    1       25.911 -22.731   8.383  0.00  0.00    +0.041 C 
ATOM      4  C   LIG    1       24.795 -22.323   7.404  0.00  0.00    +0.095 C 
ATOM      5  C   LIG    1       24.895 -20.819   7.089  0.00  0.00    +0.041 C 
ATOM      6  C   LIG    1       26.320 -20.303   6.869  0.00  0.00    +0.086 C 
ENDROOT
BRANCH   4   7
ATOM      7  N   LIG    1       24.686 -23.223   6.247  0.00  0.00    -0.289 N 
ATOM      8  C   LIG    1       25.110 -24.580   6.250  0.00  0.00    +0.070 A 
ATOM      9  C   LIG    1       25.178 -25.011   4.924  0.00  0.00    +0.067 A 
ATOM     10  C   LIG    1       25.609 -26.264   4.548  0.00  0.00    +0.028 A 
ATOM     11  C   LIG    1       25.952 -27.144   5.572  0.00  0.00    +0.002 A 
ATOM     12  C   LIG    1       25.859 -26.744   6.922  0.00  0.00    +0.002 A 
ATOM     13  N   LIG    1       24.778 -23.971   4.110  0.00  0.00    -0.306 N 
ATOM     14  H   LIG    1       24.753 -23.957   3.103  0.00  0.00    +0.170 HD
ATOM     15  C   LIG    1       25.445 -25.445   7.273  0.00  0.00    +0.028 A 
ATOM     16  C   LIG    1       24.475 -22.851   4.894  0.00  0.00    +0.328 C 
ATOM     17  O   LIG    1       24.131 -21.790   4.431  0.00  0.00    -0.246 OA
ENDBRANCH   4   7
BRANCH   1  18
ATOM     18  C   LIG    1       28.460 -19.949   7.946  0.00  0.00    +0.085 C 
BRANCH  18  19
ATOM     19  C   LIG    1       28.890 -19.444   6.557  0.00  0.00    +0.023 C 
BRANCH  19  20
ATOM     20  C   LIG    1       30.021 -18.414   6.560  0.00  0.00    +0.081 C 
BRANCH  20  22
ATOM     21  O   LIG    1       31.931 -19.623   7.393  0.00  0.00    -0.292 OA
ATOM     22  C   LIG    1       31.141 -18.695   7.555  0.00  0.00    +0.163 C 
BRANCH  22  23
ATOM     23  C   LIG    1       31.243 -17.867   8.796  0.00  0.00    +0.018 A 
ATOM     24  C   LIG    1       30.268 -17.999   9.800  0.00  0.00    +0.014 A 
ATOM     25  C   LIG    1       30.382 -17.274  10.992  0.00  0.00    +0.039 A 
ATOM     26  C   LIG    1       31.470 -16.429  11.180  0.00  0.00    +0.123 A 
ATOM     27  F   LIG    1       31.601 -15.759  12.332  0.00  0.00    -0.205 F 
ATOM     28  C   LIG    1       32.435 -16.281  10.193  0.00  0.00    +0.039 A 
ATOM     29  C   LIG    1       32.321 -16.998   9.000  0.00  0.00    +0.014 A 
ENDBRANCH  22  23
ENDBRANCH  20  22
ENDBRANCH  19  20
ENDBRANCH  18  19
ENDBRANCH   1  18
TORSDOF 6
ENDMDL
MODEL 4
REMARK VINA RESULT:      -9.6      4.779      8.837
REMARK  Name = *****
REMARK                            x       y       z     vdW  Elec       q    Type
REMARK                         _______ _______ _______ _____ _____    ______ ____
ROOT
ATOM      1  N   LIG    1       24.446 -23.862   6.699  0.00  0.00    -0.302 NA
ATOM      2  C   LIG    1       24.231 -22.746   5.768  0.00  0.00    +0.086 C 
ATOM      3  C   LIG    1       24.381 -21.426   6.536  0.00  0.00    +0.041 C 
ATOM      4  C   LIG    1       25.734 -21.255   7.250  0.00  0.00    +0.095 C 
ATOM      5  C   LIG    1       26.125 -22.565   7.958  0.00  0.00    +0.041 C 
ATOM      6  C   LIG    1       25.852 -23.837   7.150  0.00  0.00    +0.086 C 
ENDROOT
BRANCH   4   7
ATOM      7  N   LIG    1       26.764 -20.646   6.395  0.00  0.00    -0.289 N 
ATOM      8  C   LIG    1       28.103 -20.407   6.808  0.00  0.00    +0.070 A 
ATOM      9  C   LIG    1       28.682 -19.526   5.893  0.00  0.00    +0.067 A 
ATOM     10  C   LIG    1       29.962 -19.030   6.014  0.00  0.00    +0.028 A 
ATOM     11  C   LIG    1       30.711 -19.481   7.099  0.00  0.00    +0.002 A 
ATOM     12  C   LIG    1       30.159 -20.399   8.018  0.00  0.00    +0.002 A 
ATOM     13  N   LIG    1       27.752 -19.244   4.915  0.00  0.00    -0.306 N 
ATOM     14  H   LIG    1       27.855 -18.613   4.136  0.00  0.00    +0.170 HD
ATOM     15  C   LIG    1       28.838 -20.863   7.885  0.00  0.00    +0.028 A 
ATOM     16  C   LIG    1       26.555 -19.914   5.198  0.00  0.00    +0.328 C 
ATOM     17  O   LIG    1       25.561 -19.813   4.519  0.00  0.00    -0.246 OA
ENDBRANCH   4   7
BRANCH   1  18
ATOM     18  C   LIG    1       24.100 -25.197   6.176  0.00  0.00    +0.085 C 
BRANCH  18  19
ATOM     19  C   LIG    1       25.018 -25.756   5.073  0.00  0.00    +0.023 C 
BRANCH  19  20
ATOM     20  C   LIG    1       25.808 -27.009   5.458  0.00  0.00    +0.081 C 
BRANCH  20  22
ATOM     21  O   LIG    1       24.045 -28.647   5.329  0.00  0.00    -0.292 OA
ATOM     22  C   LIG    1       24.963 -28.161   5.988  0.00  0.00    +0.163 C 
BRANCH  22  23
ATOM     23  C   LIG    1       25.207 -28.673   7.373  0.00  0.00    +0.018 A 
ATOM     24  C   LIG    1       26.232 -28.106   8.150  0.00  0.00    +0.014 A 
ATOM     25  C   LIG    1       26.436 -28.534   9.467  0.00  0.00    +0.039 A 
ATOM     26  C   LIG    1       25.612 -29.516  10.004  0.00  0.00    +0.123 A 
ATOM     27  F   LIG    1       25.781 -29.905  11.274  0.00  0.00    -0.205 F 
ATOM     28  C   LIG    1       24.603 -30.093   9.245  0.00  0.00    +0.039 A 
ATOM     29  C   LIG    1       24.401 -29.672   7.928  0.00  0.00    +0.014 A 
ENDBRANCH  22  23
ENDBRANCH  20  22
ENDBRANCH  19  20
ENDBRANCH  18  19
ENDBRANCH   1  18
TORSDOF 6
ENDMDL
MODEL 5
REMARK VINA RESULT:      -9.4      5.956      9.678
REMARK  Name = *****
REMARK                            x       y       z     vdW  Elec       q    Type
REMARK                         _______ _______ _______ _____ _____    ______ ____
ROOT
ATOM      1  N   LIG    1       24.291 -24.826   6.774  0.00  0.00    -0.302 NA
ATOM      2  C   LIG    1       23.446 -23.732   6.278  0.00  0.00    +0.086 C 
ATOM      3  C   LIG    1       23.534 -22.556   7.260  0.00  0.00    +0.041 C 
ATOM      4  C   LIG    1       24.962 -22.040   7.509  0.00  0.00    +0.095 C 
ATOM      5  C   LIG    1       25.926 -23.226   7.695  0.00  0.00    +0.041 C 
ATOM      6  C   LIG    1       25.702 -24.392   6.729  0.00  0.00    +0.086 C 
ENDROOT
BRANCH   4   7
ATOM      7  N   LIG    1       25.379 -21.009   6.546  0.00  0.00    -0.289 N 
ATOM      8  C   LIG    1       24.486 -20.320   5.681  0.00  0.00    +0.070 A 
ATOM      9  C   LIG    1       25.246 -19.691   4.693  0.00  0.00    +0.067 A 
ATOM     10  C   LIG    1       24.702 -18.975   3.649  0.00  0.00    +0.028 A 
ATOM     11  C   LIG    1       23.315 -18.854   3.626  0.00  0.00    +0.002 A 
ATOM     12  C   LIG    1       22.526 -19.451   4.633  0.00  0.00    +0.002 A 
ATOM     13  N   LIG    1       26.578 -19.947   4.944  0.00  0.00    -0.306 N 
ATOM     14  H   LIG    1       27.370 -19.663   4.391  0.00  0.00    +0.170 HD
ATOM     15  C   LIG    1       23.110 -20.203   5.669  0.00  0.00    +0.028 A 
ATOM     16  C   LIG    1       26.695 -20.763   6.076  0.00  0.00    +0.328 C 
ATOM     17  O   LIG    1       27.752 -21.168   6.497  0.00  0.00    -0.246 OA
ENDBRANCH   4   7
BRANCH   1  18
ATOM     18  C   LIG    1       24.130 -26.115   6.075  0.00  0.00    +0.085 C 
BRANCH  18  19
ATOM     19  C   LIG    1       25.173 -27.202   6.397  0.00  0.00    +0.023 C 
BRANCH  19  20
ATOM     20  C   LIG    1       25.194 -28.389   5.431  0.00  0.00    +0.081 C 
BRANCH  20  22
ATOM     21  O   LIG    1       23.338 -29.850   5.904  0.00  0.00    -0.292 OA
ATOM     22  C   LIG    1       24.551 -29.662   5.967  0.00  0.00    +0.163 C 
BRANCH  22  23
ATOM     23  C   LIG    1       25.406 -30.682   6.652  0.00  0.00    +0.018 A 
ATOM     24  C   LIG    1       26.060 -31.663   5.888  0.00  0.00    +0.014 A 
ATOM     25  C   LIG    1       26.908 -32.589   6.507  0.00  0.00    +0.039 A 
ATOM     26  C   LIG    1       27.107 -32.524   7.882  0.00  0.00    +0.123 A 
ATOM     27  F   LIG    1       27.944 -33.385   8.474  0.00  0.00    -0.205 F 
ATOM     28  C   LIG    1       26.459 -31.566   8.651  0.00  0.00    +0.039 A 
ATOM     29  C   LIG    1       25.607 -30.646   8.036  0.00  0.00    +0.014 A 
ENDBRANCH  22  23
ENDBRANCH  20  22
ENDBRANCH  19  20
ENDBRANCH  18  19
ENDBRANCH   1  18
TORSDOF 6
ENDMDL
MODEL 6
REMARK VINA RESULT:      -9.3      4.834      7.393
REMARK  Name = *****
REMARK                            x       y       z     vdW  Elec       q    Type
REMARK                         _______ _______ _______ _____ _____    ______ ____
ROOT
ATOM      1  N   LIG    1       25.102 -24.859   5.621  0.00  0.00    -0.302 NA
ATOM      2  C   LIG    1       24.049 -25.855   5.377  0.00  0.00    +0.086 C 
ATOM      3  C   LIG    1       24.707 -27.181   4.973  0.00  0.00    +0.041 C 
ATOM      4  C   LIG    1       25.716 -27.729   5.998  0.00  0.00    +0.095 C 
ATOM      5  C   LIG    1       26.614 -26.591   6.514  0.00  0.00    +0.041 C 
ATOM      6  C   LIG    1       25.883 -25.277   6.803  0.00  0.00    +0.086 C 
ENDROOT
BRANCH   4   7
ATOM      7  N   LIG    1       25.091 -28.580   7.023  0.00  0.00    -0.289 N 
ATOM      8  C   LIG    1       25.625 -28.779   8.326  0.00  0.00    +0.070 A 
ATOM      9  C   LIG    1       24.982 -29.884   8.887  0.00  0.00    +0.067 A 
ATOM     10  C   LIG    1       25.290 -30.401  10.127  0.00  0.00    +0.028 A 
ATOM     11  C   LIG    1       26.274 -29.738  10.856  0.00  0.00    +0.002 A 
ATOM     12  C   LIG    1       26.914 -28.598  10.325  0.00  0.00    +0.002 A 
ATOM     13  N   LIG    1       24.049 -30.348   7.982  0.00  0.00    -0.306 N 
ATOM     14  H   LIG    1       23.452 -31.153   8.078  0.00  0.00    +0.170 HD
ATOM     15  C   LIG    1       26.600 -28.113   9.042  0.00  0.00    +0.028 A 
ATOM     16  C   LIG    1       24.096 -29.569   6.819  0.00  0.00    +0.328 C 
ATOM     17  O   LIG    1       23.406 -29.781   5.851  0.00  0.00    -0.246 OA
ENDBRANCH   4   7
BRANCH   1  18
ATOM     18  C   LIG    1       24.632 -23.471   5.783  0.00  0.00    +0.085 C 
BRANCH  18  19
ATOM     19  C   LIG    1       24.467 -22.970   7.230  0.00  0.00    +0.023 C 
BRANCH  19  20
ATOM     20  C   LIG    1       24.600 -21.457   7.413  0.00  0.00    +0.081 C 
BRANCH  20  22
ATOM     21  O   LIG    1       25.795 -21.054   9.466  0.00  0.00    -0.292 OA
ATOM     22  C   LIG    1       25.803 -21.014   8.237  0.00  0.00    +0.163 C 
BRANCH  22  23
ATOM     23  C   LIG    1       27.001 -20.451   7.540  0.00  0.00    +0.018 A 
ATOM     24  C   LIG    1       26.968 -20.265   6.147  0.00  0.00    +0.014 A 
ATOM     25  C   LIG    1       28.059 -19.685   5.488  0.00  0.00    +0.039 A 
ATOM     26  C   LIG    1       29.170 -19.286   6.222  0.00  0.00    +0.123 A 
ATOM     27  F   LIG    1       30.202 -18.701   5.601  0.00  0.00    -0.205 F 
ATOM     28  C   LIG    1       29.221 -19.474   7.597  0.00  0.00    +0.039 A 
ATOM     29  C   LIG    1       28.137 -20.058   8.255  0.00  0.00    +0.014 A 
ENDBRANCH  22  23
ENDBRANCH  20  22
ENDBRANCH  19  20
ENDBRANCH  18  19
ENDBRANCH   1  18
TORSDOF 6
ENDMDL
MODEL 7
REMARK VINA RESULT:      -9.3      6.034      9.019
REMARK  Name = *****
REMARK                            x       y       z     vdW  Elec       q    Type
REMARK                         _______ _______ _______ _____ _____    ______ ____
ROOT
ATOM      1  N   LIG    1       25.216 -25.727   5.252  0.00  0.00    -0.302 NA
ATOM      2  C   LIG    1       24.055 -26.446   5.794  0.00  0.00    +0.086 C 
ATOM      3  C   LIG    1       24.043 -27.869   5.218  0.00  0.00    +0.041 C 
ATOM      4  C   LIG    1       25.328 -28.674   5.486  0.00  0.00    +0.095 C 
ATOM      5  C   LIG    1       26.564 -27.792   5.238  0.00  0.00    +0.041 C 
ATOM      6  C   LIG    1       26.446 -26.359   5.766  0.00  0.00    +0.086 C 
ENDROOT
BRANCH   4   7
ATOM      7  N   LIG    1       25.295 -29.403   6.764  0.00  0.00    -0.289 N 
ATOM      8  C   LIG    1       24.613 -30.635   6.961  0.00  0.00    +0.070 A 
ATOM      9  C   LIG    1       24.505 -30.848   8.337  0.00  0.00    +0.067 A 
ATOM     10  C   LIG    1       23.849 -31.923   8.895  0.00  0.00    +0.028 A 
ATOM     11  C   LIG    1       23.307 -32.855   8.012  0.00  0.00    +0.002 A 
ATOM     12  C   LIG    1       23.434 -32.680   6.618  0.00  0.00    +0.002 A 
ATOM     13  N   LIG    1       25.126 -29.803   8.988  0.00  0.00    -0.306 N 
ATOM     14  H   LIG    1       25.186 -29.649   9.981  0.00  0.00    +0.170 HD
ATOM     15  C   LIG    1       24.083 -31.554   6.078  0.00  0.00    +0.028 A 
ATOM     16  C   LIG    1       25.619 -28.890   8.046  0.00  0.00    +0.328 C 
ATOM     17  O   LIG    1       26.178 -27.863   8.347  0.00  0.00    -0.246 OA
ENDBRANCH   4   7
BRANCH   1  18
ATOM     18  C   LIG    1       25.238 -24.276   5.515  0.00  0.00    +0.085 C 
BRANCH  18  19
ATOM     19  C   LIG    1       24.797 -23.830   6.922  0.00  0.00    +0.023 C 
BRANCH  19  20
ATOM     20  C   LIG    1       25.788 -22.927   7.658  0.00  0.00    +0.081 C 
BRANCH  20  22
ATOM     21  O   LIG    1       25.446 -20.861   8.849  0.00  0.00    -0.292 OA
ATOM     22  C   LIG    1       25.355 -21.471   7.786  0.00  0.00    +0.163 C 
BRANCH  22  23
ATOM     23  C   LIG    1       24.739 -20.784   6.609  0.00  0.00    +0.018 A 
ATOM     24  C   LIG    1       25.530 -20.494   5.483  0.00  0.00    +0.014 A 
ATOM     25  C   LIG    1       24.955 -19.904   4.352  0.00  0.00    +0.039 A 
ATOM     26  C   LIG    1       23.595 -19.615   4.345  0.00  0.00    +0.123 A 
ATOM     27  F   LIG    1       23.033 -19.082   3.252  0.00  0.00    -0.205 F 
ATOM     28  C   LIG    1       22.803 -19.886   5.453  0.00  0.00    +0.039 A 
ATOM     29  C   LIG    1       23.376 -20.469   6.586  0.00  0.00    +0.014 A 
ENDBRANCH  22  23
ENDBRANCH  20  22
ENDBRANCH  19  20
ENDBRANCH  18  19
ENDBRANCH   1  18
TORSDOF 6
ENDMDL
MODEL 8
REMARK VINA RESULT:      -9.2      5.489      8.633
REMARK  Name = *****
REMARK                            x       y       z     vdW  Elec       q    Type
REMARK                         _______ _______ _______ _____ _____    ______ ____
ROOT
ATOM      1  N   LIG    1       25.318 -25.566   5.378  0.00  0.00    -0.302 NA
ATOM      2  C   LIG    1       24.080 -26.357   5.410  0.00  0.00    +0.086 C 
ATOM      3  C   LIG    1       24.398 -27.791   4.964  0.00  0.00    +0.041 C 
ATOM      4  C   LIG    1       25.485 -28.490   5.799  0.00  0.00    +0.095 C 
ATOM      5  C   LIG    1       26.656 -27.524   6.055  0.00  0.00    +0.041 C 
ATOM      6  C   LIG    1       26.241 -26.092   6.403  0.00  0.00    +0.086 C 
ENDROOT
BRANCH   4   7
ATOM      7  N   LIG    1       24.948 -29.187   6.978  0.00  0.00    -0.289 N 
ATOM      8  C   LIG    1       25.519 -29.110   8.277  0.00  0.00    +0.070 A 
ATOM      9  C   LIG    1       24.975 -30.142   9.045  0.00  0.00    +0.067 A 
ATOM     10  C   LIG    1       25.345 -30.404  10.346  0.00  0.00    +0.028 A 
ATOM     11  C   LIG    1       26.288 -29.551  10.915  0.00  0.00    +0.002 A 
ATOM     12  C   LIG    1       26.827 -28.480  10.170  0.00  0.00    +0.002 A 
ATOM     13  N   LIG    1       24.065 -30.827   8.267  0.00  0.00    -0.306 N 
ATOM     14  H   LIG    1       23.534 -31.644   8.523  0.00  0.00    +0.170 HD
ATOM     15  C   LIG    1       26.452 -28.257   8.832  0.00  0.00    +0.028 A 
ATOM     16  C   LIG    1       24.030 -30.268   6.983  0.00  0.00    +0.328 C 
ATOM     17  O   LIG    1       23.341 -30.700   6.090  0.00  0.00    -0.246 OA
ENDBRANCH   4   7
BRANCH   1  18
ATOM     18  C   LIG    1       25.142 -24.111   5.546  0.00  0.00    +0.085 C 
BRANCH  18  19
ATOM     19  C   LIG    1       24.609 -23.641   6.912  0.00  0.00    +0.023 C 
BRANCH  19  20
ATOM     20  C   LIG    1       25.554 -22.733   7.701  0.00  0.00    +0.081 C 
BRANCH  20  22
ATOM     21  O   LIG    1       25.310 -20.542   8.673  0.00  0.00    -0.292 OA
ATOM     22  C   LIG    1       25.189 -21.253   7.678  0.00  0.00    +0.163 C 
BRANCH  22  23
ATOM     23  C   LIG    1       24.602 -20.663   6.434  0.00  0.00    +0.018 A 
ATOM     24  C   LIG    1       23.237 -20.330   6.402  0.00  0.00    +0.014 A 
ATOM     25  C   LIG    1       22.687 -19.724   5.266  0.00  0.00    +0.039 A 
ATOM     26  C   LIG    1       23.502 -19.446   4.174  0.00  0.00    +0.123 A 
ATOM     27  F   LIG    1       22.987 -18.836   3.099  0.00  0.00    -0.205 F 
ATOM     28  C   LIG    1       24.849 -19.780   4.188  0.00  0.00    +0.039 A 
ATOM     29  C   LIG    1       25.399 -20.390   5.317  0.00  0.00    +0.014 A 
ENDBRANCH  22  23
ENDBRANCH  20  22
ENDBRANCH  19  20
ENDBRANCH  18  19
ENDBRANCH   1  18
TORSDOF 6
ENDMDL
MODEL 9
REMARK VINA RESULT:      -9.1      5.894      9.866
REMARK  Name = *****
REMARK                            x       y       z     vdW  Elec       q    Type
REMARK                         _______ _______ _______ _____ _____    ______ ____
ROOT
ATOM      1  N   LIG    1       24.408 -24.425   6.617  0.00  0.00    -0.302 NA
ATOM      2  C   LIG    1       24.015 -23.266   5.803  0.00  0.00    +0.086 C 
ATOM      3  C   LIG    1       24.168 -21.995   6.650  0.00  0.00    +0.041 C 
ATOM      4  C   LIG    1       25.580 -21.777   7.222  0.00  0.00    +0.095 C 
ATOM      5  C   LIG    1       26.133 -23.101   7.779  0.00  0.00    +0.041 C 
ATOM      6  C   LIG    1       25.851 -24.330   6.910  0.00  0.00    +0.086 C 
ENDROOT
BRANCH   4   7
ATOM      7  N   LIG    1       26.464 -21.037   6.308  0.00  0.00    -0.289 N 
ATOM      8  C   LIG    1       27.776 -20.605   6.645  0.00  0.00    +0.070 A 
ATOM      9  C   LIG    1       28.172 -19.661   5.696  0.00  0.00    +0.067 A 
ATOM     10  C   LIG    1       29.373 -18.986   5.743  0.00  0.00    +0.028 A 
ATOM     11  C   LIG    1       30.237 -19.314   6.785  0.00  0.00    +0.002 A 
ATOM     12  C   LIG    1       29.874 -20.291   7.737  0.00  0.00    +0.002 A 
ATOM     13  N   LIG    1       27.158 -19.525   4.771  0.00  0.00    -0.306 N 
ATOM     14  H   LIG    1       27.127 -18.895   3.985  0.00  0.00    +0.170 HD
ATOM     15  C   LIG    1       28.627 -20.939   7.680  0.00  0.00    +0.028 A 
ATOM     16  C   LIG    1       26.087 -20.355   5.123  0.00  0.00    +0.328 C 
ATOM     17  O   LIG    1       25.053 -20.405   4.501  0.00  0.00    -0.246 OA
ENDBRANCH   4   7
BRANCH   1  18
ATOM     18  C   LIG    1       24.090 -25.742   6.033  0.00  0.00    +0.085 C 
BRANCH  18  19
ATOM     19  C   LIG    1       24.949 -26.927   6.512  0.00  0.00    +0.023 C 
BRANCH  19  20
ATOM     20  C   LIG    1       25.127 -28.055   5.494  0.00  0.00    +0.081 C 
BRANCH  20  22
ATOM     21  O   LIG    1       23.273 -29.562   5.800  0.00  0.00    -0.292 OA
ATOM     22  C   LIG    1       24.486 -29.380   5.888  0.00  0.00    +0.163 C 
BRANCH  22  23
ATOM     23  C   LIG    1       25.340 -30.466   6.461  0.00  0.00    +0.018 A 
ATOM     24  C   LIG    1       25.937 -31.404   5.601  0.00  0.00    +0.014 A 
ATOM     25  C   LIG    1       26.786 -32.392   6.117  0.00  0.00    +0.039 A 
ATOM     26  C   LIG    1       27.041 -32.432   7.483  0.00  0.00    +0.123 A 
ATOM     27  F   LIG    1       27.878 -33.353   7.977  0.00  0.00    -0.205 F 
ATOM     28  C   LIG    1       26.449 -31.519   8.345  0.00  0.00    +0.039 A 
ATOM     29  C   LIG    1       25.598 -30.537   7.834  0.00  0.00    +0.014 A 
ENDBRANCH  22  23
ENDBRANCH  20  22
ENDBRANCH  19  20
ENDBRANCH  18  19
ENDBRANCH   1  18
TORSDOF 6
ENDMDL
