MODEL 1
REMARK VINA RESULT:      -9.9      0.000      0.000
REMARK  Name = *****
REMARK                            x       y       z     vdW  Elec       q    Type
REMARK                         _______ _______ _______ _____ _____    ______ ____
ROOT
ATOM      1  C   LIG    1       24.529 -21.638   7.410  0.00  0.00    +0.095 C 
ENDROOT
BRANCH   1   2
ATOM      2  C   LIG    1       24.433 -20.692   6.148  0.00  0.00    +0.033 C 
ATOM      3  C   LIG    1       23.014 -20.127   5.817  0.00  0.00    +0.018 C 
ATOM      4  C   LIG    1       22.442 -21.136   4.818  0.00  0.00    +0.015 C 
ATOM      5  C   LIG    1       23.614 -20.988   3.847  0.00  0.00    +0.012 C 
ATOM      6  C   LIG    1       23.575 -19.490   3.664  0.00  0.00    -0.027 C 
ATOM      7  C   LIG    1       23.210 -18.966   4.859  0.00  0.00    -0.027 C 
ATOM      8  C   LIG    1       24.805 -21.353   4.761  0.00  0.00    +0.015 C 
ENDBRANCH   1   2
BRANCH   1   9
ATOM      9  C   LIG    1       24.651 -23.113   6.967  0.00  0.00    -0.016 A 
ATOM     10  C   LIG    1       25.907 -23.736   6.864  0.00  0.00    +0.006 A 
ATOM     11  C   LIG    1       26.031 -25.092   6.541  0.00  0.00    +0.000 A 
ATOM     12  C   LIG    1       24.900 -25.848   6.260  0.00  0.00    +0.000 A 
ATOM     13  C   LIG    1       23.646 -25.248   6.303  0.00  0.00    +0.000 A 
ATOM     14  C   LIG    1       23.519 -23.897   6.663  0.00  0.00    +0.006 A 
ENDBRANCH   1   9
BRANCH   1  15
ATOM     15  O   LIG    1       23.359 -21.455   8.215  0.00  0.00    -0.384 OA
ATOM     16  H   LIG    1       22.966 -22.332   8.357  0.00  0.00    +0.211 HD
ENDBRANCH   1  15
BRANCH   1  17
ATOM     17  C   LIG    1       25.736 -21.211   8.300  0.00  0.00    +0.055 C 
BRANCH  17  18
ATOM     18  C   LIG    1       26.739 -20.190   7.698  0.00  0.00    +0.087 C 
BRANCH  18  19
ATOM     19  N   LIG    1       27.764 -20.848   6.850  0.00  0.00    -0.302 NA
ATOM     20  C   LIG    1       28.179 -20.032   5.695  0.00  0.00    +0.084 C 
ATOM     21  C   LIG    1       29.157 -18.895   6.017  0.00  0.00    +0.015 C 
ATOM     22  C   LIG    1       30.357 -19.381   6.822  0.00  0.00    +0.002 C 
ATOM     23  C   LIG    1       29.919 -20.229   8.008  0.00  0.00    +0.015 C 
ATOM     24  C   LIG    1       28.948 -21.328   7.577  0.00  0.00    +0.084 C 
ENDBRANCH  18  19
ENDBRANCH  17  18
ENDBRANCH   1  17
TORSDOF 6
ENDMDL
MODEL 2
REMARK VINA RESULT:      -9.0      2.011      5.943
REMARK  Name = *****
REMARK                            x       y       z     vdW  Elec       q    Type
REMARK                         _______ _______ _______ _____ _____    ______ ____
ROOT
ATOM      1  C   LIG    1       24.142 -22.583   6.240  0.00  0.00    +0.095 C 
ENDROOT
BRANCH   1   2
ATOM      2  C   LIG    1       25.223 -22.169   7.315  0.00  0.00    +0.033 C 
ATOM      3  C   LIG    1       25.574 -20.647   7.390  0.00  0.00    +0.018 C 
ATOM      4  C   LIG    1       26.780 -20.504   6.458  0.00  0.00    +0.015 C 
ATOM      5  C   LIG    1       27.603 -21.556   7.200  0.00  0.00    +0.012 C 
ATOM      6  C   LIG    1       27.525 -20.973   8.591  0.00  0.00    -0.027 C 
ATOM      7  C   LIG    1       26.294 -20.420   8.707  0.00  0.00    -0.027 C 
ATOM      8  C   LIG    1       26.666 -22.782   7.114  0.00  0.00    +0.015 C 
ENDBRANCH   1   2
BRANCH   1   9
ATOM      9  C   LIG    1       23.745 -21.362   5.380  0.00  0.00    -0.016 A 
ATOM     10  C   LIG    1       22.764 -20.456   5.820  0.00  0.00    +0.006 A 
ATOM     11  C   LIG    1       22.449 -19.304   5.092  0.00  0.00    +0.000 A 
ATOM     12  C   LIG    1       23.072 -19.055   3.875  0.00  0.00    +0.000 A 
ATOM     13  C   LIG    1       24.010 -19.959   3.388  0.00  0.00    +0.000 A 
ATOM     14  C   LIG    1       24.353 -21.096   4.135  0.00  0.00    +0.006 A 
ENDBRANCH   1   9
BRANCH   1  15
ATOM     15  O   LIG    1       22.996 -23.109   6.916  0.00  0.00    -0.384 OA
ATOM     16  H   LIG    1       22.255 -22.506   6.741  0.00  0.00    +0.211 HD
ENDBRANCH   1  15
BRANCH   1  17
ATOM     17  C   LIG    1       24.694 -23.743   5.357  0.00  0.00    +0.055 C 
BRANCH  17  18
ATOM     18  C   LIG    1       24.167 -25.175   5.650  0.00  0.00    +0.087 C 
BRANCH  18  19
ATOM     19  N   LIG    1       25.127 -26.221   5.218  0.00  0.00    -0.302 NA
ATOM     20  C   LIG    1       26.330 -26.298   6.067  0.00  0.00    +0.084 C 
ATOM     21  C   LIG    1       26.136 -27.012   7.410  0.00  0.00    +0.015 C 
ATOM     22  C   LIG    1       25.477 -28.377   7.244  0.00  0.00    +0.002 C 
ATOM     23  C   LIG    1       24.240 -28.290   6.360  0.00  0.00    +0.015 C 
ATOM     24  C   LIG    1       24.544 -27.560   5.051  0.00  0.00    +0.084 C 
ENDBRANCH  18  19
ENDBRANCH  17  18
ENDBRANCH   1  17
TORSDOF 6
ENDMDL
MODEL 3
REMARK VINA RESULT:      -8.9      1.212      1.736
REMARK  Name = *****
REMARK                            x       y       z     vdW  Elec       q    Type
REMARK                         _______ _______ _______ _____ _____    ______ ____
ROOT
ATOM      1  C   LIG    1       25.718 -21.488   7.067  0.00  0.00    +0.095 C 
ENDROOT
BRANCH   1   2
ATOM      2  C   LIG    1       25.029 -20.425   6.123  0.00  0.00    +0.033 C 
ATOM      3  C   LIG    1       23.771 -20.915   5.335  0.00  0.00    +0.018 C 
ATOM      4  C   LIG    1       24.341 -21.394   3.998  0.00  0.00    +0.015 C 
ATOM      5  C   LIG    1       25.010 -20.055   3.691  0.00  0.00    +0.012 C 
ATOM      6  C   LIG    1       23.806 -19.156   3.832  0.00  0.00    -0.027 C 
ATOM      7  C   LIG    1       23.052 -19.678   4.829  0.00  0.00    -0.027 C 
ATOM      8  C   LIG    1       25.916 -19.884   4.931  0.00  0.00    +0.015 C 
ENDBRANCH   1   2
BRANCH   1   9
ATOM      9  C   LIG    1       25.110 -22.888   6.832  0.00  0.00    -0.016 A 
ATOM     10  C   LIG    1       23.729 -23.112   6.978  0.00  0.00    +0.006 A 
ATOM     11  C   LIG    1       23.152 -24.354   6.694  0.00  0.00    +0.000 A 
ATOM     12  C   LIG    1       23.950 -25.422   6.305  0.00  0.00    +0.000 A 
ATOM     13  C   LIG    1       25.326 -25.247   6.201  0.00  0.00    +0.000 A 
ATOM     14  C   LIG    1       25.902 -23.992   6.451  0.00  0.00    +0.006 A 
ENDBRANCH   1   9
BRANCH   1  15
ATOM     15  O   LIG    1       25.532 -21.086   8.428  0.00  0.00    -0.384 OA
ATOM     16  H   LIG    1       24.711 -20.569   8.467  0.00  0.00    +0.211 HD
ENDBRANCH   1  15
BRANCH   1  17
ATOM     17  C   LIG    1       27.258 -21.489   6.824  0.00  0.00    +0.055 C 
BRANCH  17  18
ATOM     18  C   LIG    1       28.166 -21.025   7.996  0.00  0.00    +0.087 C 
BRANCH  18  19
ATOM     19  N   LIG    1       29.586 -20.898   7.584  0.00  0.00    -0.302 NA
ATOM     20  C   LIG    1       29.790 -19.959   6.466  0.00  0.00    +0.084 C 
ATOM     21  C   LIG    1       29.754 -18.474   6.848  0.00  0.00    +0.015 C 
ATOM     22  C   LIG    1       30.676 -18.160   8.020  0.00  0.00    +0.002 C 
ATOM     23  C   LIG    1       30.465 -19.140   9.167  0.00  0.00    +0.015 C 
ATOM     24  C   LIG    1       30.518 -20.587   8.678  0.00  0.00    +0.084 C 
ENDBRANCH  18  19
ENDBRANCH  17  18
ENDBRANCH   1  17
TORSDOF 6
ENDMDL
MODEL 4
REMARK VINA RESULT:      -8.6      1.494      5.898
REMARK  Name = *****
REMARK                            x       y       z     vdW  Elec       q    Type
REMARK                         _______ _______ _______ _____ _____    ______ ____
ROOT
ATOM      1  C   LIG    1       26.500 -21.179   7.507  0.00  0.00    +0.095 C 
ENDROOT
BRANCH   1   2
ATOM      2  C   LIG    1       27.663 -20.137   7.259  0.00  0.00    +0.033 C 
ATOM      3  C   LIG    1       28.910 -20.668   6.481  0.00  0.00    +0.018 C 
ATOM      4  C   LIG    1       29.865 -21.124   7.587  0.00  0.00    +0.015 C 
ATOM      5  C   LIG    1       29.869 -19.763   8.280  0.00  0.00    +0.012 C 
ATOM      6  C   LIG    1       30.273 -18.905   7.105  0.00  0.00    -0.027 C 
ATOM      7  C   LIG    1       29.692 -19.455   6.012  0.00  0.00    -0.027 C 
ATOM      8  C   LIG    1       28.362 -19.564   8.556  0.00  0.00    +0.015 C 
ENDBRANCH   1   2
BRANCH   1   9
ATOM      9  C   LIG    1       25.280 -20.841   6.623  0.00  0.00    -0.016 A 
ATOM     10  C   LIG    1       23.982 -20.802   7.164  0.00  0.00    +0.006 A 
ATOM     11  C   LIG    1       22.876 -20.422   6.397  0.00  0.00    +0.000 A 
ATOM     12  C   LIG    1       23.032 -20.118   5.050  0.00  0.00    +0.000 A 
ATOM     13  C   LIG    1       24.295 -20.197   4.472  0.00  0.00    +0.000 A 
ATOM     14  C   LIG    1       25.411 -20.544   5.250  0.00  0.00    +0.006 A 
ENDBRANCH   1   9
BRANCH   1  15
ATOM     15  O   LIG    1       26.137 -21.146   8.891  0.00  0.00    -0.384 OA
ATOM     16  H   LIG    1       26.750 -20.538   9.336  0.00  0.00    +0.211 HD
ENDBRANCH   1  15
BRANCH   1  17
ATOM     17  C   LIG    1       27.018 -22.623   7.231  0.00  0.00    +0.055 C 
BRANCH  17  18
ATOM     18  C   LIG    1       25.965 -23.764   7.197  0.00  0.00    +0.087 C 
BRANCH  18  19
ATOM     19  N   LIG    1       26.109 -24.620   5.992  0.00  0.00    -0.302 NA
ATOM     20  C   LIG    1       26.634 -25.965   6.289  0.00  0.00    +0.084 C 
ATOM     21  C   LIG    1       25.616 -26.946   6.881  0.00  0.00    +0.015 C 
ATOM     22  C   LIG    1       24.336 -27.013   6.055  0.00  0.00    +0.002 C 
ATOM     23  C   LIG    1       23.805 -25.620   5.746  0.00  0.00    +0.015 C 
ATOM     24  C   LIG    1       24.899 -24.725   5.164  0.00  0.00    +0.084 C 
ENDBRANCH  18  19
ENDBRANCH  17  18
ENDBRANCH   1  17
TORSDOF 6
ENDMDL
MODEL 5
REMARK VINA RESULT:      -8.5      1.270      4.039
REMARK  Name = *****
REMARK                            x       y       z     vdW  Elec       q    Type
REMARK                         _______ _______ _______ _____ _____    ______ ____
ROOT
ATOM      1  C   LIG    1       25.910 -22.277   6.806  0.00  0.00    +0.095 C 
ENDROOT
BRANCH   1   2
ATOM      2  C   LIG    1       25.389 -23.748   7.058  0.00  0.00    +0.033 C 
ATOM      3  C   LIG    1       26.068 -24.874   6.213  0.00  0.00    +0.018 C 
ATOM      4  C   LIG    1       25.161 -25.008   4.987  0.00  0.00    +0.015 C 
ATOM      5  C   LIG    1       23.908 -25.273   5.820  0.00  0.00    +0.012 C 
ATOM      6  C   LIG    1       24.415 -26.436   6.638  0.00  0.00    -0.027 C 
ATOM      7  C   LIG    1       25.726 -26.196   6.876  0.00  0.00    -0.027 C 
ATOM      8  C   LIG    1       23.870 -24.010   6.710  0.00  0.00    +0.015 C 
ENDBRANCH   1   2
BRANCH   1   9
ATOM      9  C   LIG    1       24.813 -21.428   6.128  0.00  0.00    -0.016 A 
ATOM     10  C   LIG    1       24.776 -21.275   4.730  0.00  0.00    +0.006 A 
ATOM     11  C   LIG    1       23.746 -20.574   4.094  0.00  0.00    +0.000 A 
ATOM     12  C   LIG    1       22.749 -19.964   4.846  0.00  0.00    +0.000 A 
ATOM     13  C   LIG    1       22.785 -20.054   6.234  0.00  0.00    +0.000 A 
ATOM     14  C   LIG    1       23.799 -20.786   6.870  0.00  0.00    +0.006 A 
ENDBRANCH   1   9
BRANCH   1  15
ATOM     15  O   LIG    1       27.077 -22.336   5.979  0.00  0.00    -0.384 OA
ATOM     16  H   LIG    1       27.390 -23.255   5.986  0.00  0.00    +0.211 HD
ENDBRANCH   1  15
BRANCH   1  17
ATOM     17  C   LIG    1       26.368 -21.642   8.154  0.00  0.00    +0.055 C 
BRANCH  17  18
ATOM     18  C   LIG    1       27.384 -20.470   8.081  0.00  0.00    +0.087 C 
BRANCH  18  19
ATOM     19  N   LIG    1       28.583 -20.820   7.279  0.00  0.00    -0.302 NA
ATOM     20  C   LIG    1       28.930 -19.803   6.270  0.00  0.00    +0.084 C 
ATOM     21  C   LIG    1       29.642 -18.559   6.816  0.00  0.00    +0.015 C 
ATOM     22  C   LIG    1       30.841 -18.920   7.685  0.00  0.00    +0.002 C 
ATOM     23  C   LIG    1       30.477 -19.978   8.718  0.00  0.00    +0.015 C 
ATOM     24  C   LIG    1       29.772 -21.169   8.069  0.00  0.00    +0.084 C 
ENDBRANCH  18  19
ENDBRANCH  17  18
ENDBRANCH   1  17
TORSDOF 6
ENDMDL
MODEL 6
REMARK VINA RESULT:      -8.4      1.464      5.779
REMARK  Name = *****
REMARK                            x       y       z     vdW  Elec       q    Type
REMARK                         _______ _______ _______ _____ _____    ______ ____
ROOT
ATOM      1  C   LIG    1       25.644 -21.060   6.890  0.00  0.00    +0.095 C 
ENDROOT
BRANCH   1   2
ATOM      2  C   LIG    1       26.907 -20.124   7.051  0.00  0.00    +0.033 C 
ATOM      3  C   LIG    1       28.104 -20.410   6.087  0.00  0.00    +0.018 C 
ATOM      4  C   LIG    1       28.996 -21.365   6.884  0.00  0.00    +0.015 C 
ATOM      5  C   LIG    1       29.129 -20.410   8.069  0.00  0.00    +0.012 C 
ATOM      6  C   LIG    1       29.629 -19.192   7.330  0.00  0.00    -0.027 C 
ATOM      7  C   LIG    1       29.008 -19.192   6.126  0.00  0.00    -0.027 C 
ATOM      8  C   LIG    1       27.645 -20.197   8.447  0.00  0.00    +0.015 C 
ENDBRANCH   1   2
BRANCH   1   9
ATOM      9  C   LIG    1       24.665 -20.466   5.854  0.00  0.00    -0.016 A 
ATOM     10  C   LIG    1       23.303 -20.292   6.161  0.00  0.00    +0.006 A 
ATOM     11  C   LIG    1       22.419 -19.684   5.263  0.00  0.00    +0.000 A 
ATOM     12  C   LIG    1       22.865 -19.281   4.010  0.00  0.00    +0.000 A 
ATOM     13  C   LIG    1       24.194 -19.486   3.657  0.00  0.00    +0.000 A 
ATOM     14  C   LIG    1       25.090 -20.063   4.571  0.00  0.00    +0.006 A 
ENDBRANCH   1   9
BRANCH   1  15
ATOM     15  O   LIG    1       25.002 -21.192   8.163  0.00  0.00    -0.384 OA
ATOM     16  H   LIG    1       25.667 -20.999   8.844  0.00  0.00    +0.211 HD
ENDBRANCH   1  15
BRANCH   1  17
ATOM     17  C   LIG    1       26.098 -22.495   6.485  0.00  0.00    +0.055 C 
BRANCH  17  18
ATOM     18  C   LIG    1       25.029 -23.432   5.860  0.00  0.00    +0.087 C 
BRANCH  18  19
ATOM     19  N   LIG    1       24.764 -24.621   6.709  0.00  0.00    -0.302 NA
ATOM     20  C   LIG    1       23.754 -25.532   6.142  0.00  0.00    +0.084 C 
ATOM     21  C   LIG    1       24.254 -26.436   5.009  0.00  0.00    +0.015 C 
ATOM     22  C   LIG    1       25.530 -27.179   5.388  0.00  0.00    +0.002 C 
ATOM     23  C   LIG    1       26.565 -26.232   5.981  0.00  0.00    +0.015 C 
ATOM     24  C   LIG    1       25.962 -25.379   7.097  0.00  0.00    +0.084 C 
ENDBRANCH  18  19
ENDBRANCH  17  18
ENDBRANCH   1  17
TORSDOF 6
ENDMDL
MODEL 7
REMARK VINA RESULT:      -8.2      1.652      5.403
REMARK  Name = *****
REMARK                            x       y       z     vdW  Elec       q    Type
REMARK                         _______ _______ _______ _____ _____    ______ ____
ROOT
ATOM      1  C   LIG    1       24.688 -22.132   6.935  0.00  0.00    +0.095 C 
ENDROOT
BRANCH   1   2
ATOM      2  C   LIG    1       24.758 -23.703   7.094  0.00  0.00    +0.033 C 
ATOM      3  C   LIG    1       25.847 -24.434   6.244  0.00  0.00    +0.018 C 
ATOM      4  C   LIG    1       25.107 -24.828   4.963  0.00  0.00    +0.015 C 
ATOM      5  C   LIG    1       24.019 -25.597   5.709  0.00  0.00    +0.012 C 
ATOM      6  C   LIG    1       24.899 -26.530   6.506  0.00  0.00    -0.027 C 
ATOM      7  C   LIG    1       26.010 -25.825   6.830  0.00  0.00    -0.027 C 
ATOM      8  C   LIG    1       23.468 -24.500   6.647  0.00  0.00    +0.015 C 
ENDBRANCH   1   2
BRANCH   1   9
ATOM      9  C   LIG    1       26.109 -21.529   6.939  0.00  0.00    -0.016 A 
ATOM     10  C   LIG    1       26.528 -20.655   5.919  0.00  0.00    +0.006 A 
ATOM     11  C   LIG    1       27.783 -20.038   5.948  0.00  0.00    +0.000 A 
ATOM     12  C   LIG    1       28.675 -20.321   6.975  0.00  0.00    +0.000 A 
ATOM     13  C   LIG    1       28.311 -21.220   7.972  0.00  0.00    +0.000 A 
ATOM     14  C   LIG    1       27.038 -21.812   7.962  0.00  0.00    +0.006 A 
ENDBRANCH   1   9
BRANCH   1  15
ATOM     15  O   LIG    1       23.915 -21.593   8.012  0.00  0.00    -0.384 OA
ATOM     16  H   LIG    1       24.363 -20.786   8.313  0.00  0.00    +0.211 HD
ENDBRANCH   1  15
BRANCH   1  17
ATOM     17  C   LIG    1       23.920 -21.769   5.627  0.00  0.00    +0.055 C 
BRANCH  17  18
ATOM     18  C   LIG    1       22.946 -20.560   5.685  0.00  0.00    +0.087 C 
BRANCH  18  19
ATOM     19  N   LIG    1       22.615 -20.046   4.332  0.00  0.00    -0.302 NA
ATOM     20  C   LIG    1       21.780 -18.832   4.356  0.00  0.00    +0.084 C 
ATOM     21  C   LIG    1       22.527 -17.533   4.681  0.00  0.00    +0.015 C 
ATOM     22  C   LIG    1       23.763 -17.348   3.807  0.00  0.00    +0.002 C 
ATOM     23  C   LIG    1       24.615 -18.609   3.782  0.00  0.00    +0.015 C 
ATOM     24  C   LIG    1       23.774 -19.842   3.451  0.00  0.00    +0.084 C 
ENDBRANCH  18  19
ENDBRANCH  17  18
ENDBRANCH   1  17
TORSDOF 6
ENDMDL
MODEL 8
REMARK VINA RESULT:      -7.6      1.653      4.929
REMARK  Name = *****
REMARK                            x       y       z     vdW  Elec       q    Type
REMARK                         _______ _______ _______ _____ _____    ______ ____
ROOT
ATOM      1  C   LIG    1       25.171 -21.511   5.846  0.00  0.00    +0.095 C 
ENDROOT
BRANCH   1   2
ATOM      2  C   LIG    1       24.365 -20.212   5.444  0.00  0.00    +0.033 C 
ATOM      3  C   LIG    1       22.853 -20.189   5.839  0.00  0.00    +0.018 C 
ATOM      4  C   LIG    1       22.143 -20.736   4.598  0.00  0.00    +0.015 C 
ATOM      5  C   LIG    1       22.747 -19.685   3.668  0.00  0.00    +0.012 C 
ATOM      6  C   LIG    1       22.324 -18.444   4.415  0.00  0.00    -0.027 C 
ATOM      7  C   LIG    1       22.387 -18.749   5.734  0.00  0.00    -0.027 C 
ATOM      8  C   LIG    1       24.258 -19.920   3.894  0.00  0.00    +0.015 C 
ENDBRANCH   1   2
BRANCH   1   9
ATOM      9  C   LIG    1       26.575 -21.131   6.367  0.00  0.00    -0.016 A 
ATOM     10  C   LIG    1       27.346 -20.149   5.720  0.00  0.00    +0.006 A 
ATOM     11  C   LIG    1       28.585 -19.737   6.223  0.00  0.00    +0.000 A 
ATOM     12  C   LIG    1       29.110 -20.337   7.361  0.00  0.00    +0.000 A 
ATOM     13  C   LIG    1       28.395 -21.348   7.994  0.00  0.00    +0.000 A 
ATOM     14  C   LIG    1       27.136 -21.736   7.511  0.00  0.00    +0.006 A 
ENDBRANCH   1   9
BRANCH   1  15
ATOM     15  O   LIG    1       25.279 -22.361   4.700  0.00  0.00    -0.384 OA
ATOM     16  H   LIG    1       24.620 -23.067   4.801  0.00  0.00    +0.211 HD
ENDBRANCH   1  15
BRANCH   1  17
ATOM     17  C   LIG    1       24.371 -22.320   6.911  0.00  0.00    +0.055 C 
BRANCH  17  18
ATOM     18  C   LIG    1       24.052 -23.805   6.587  0.00  0.00    +0.087 C 
BRANCH  18  19
ATOM     19  N   LIG    1       25.158 -24.464   5.847  0.00  0.00    -0.302 NA
ATOM     20  C   LIG    1       26.195 -25.032   6.728  0.00  0.00    +0.084 C 
ATOM     21  C   LIG    1       25.827 -26.365   7.392  0.00  0.00    +0.015 C 
ATOM     22  C   LIG    1       25.325 -27.390   6.382  0.00  0.00    +0.002 C 
ATOM     23  C   LIG    1       24.261 -26.792   5.471  0.00  0.00    +0.015 C 
ATOM     24  C   LIG    1       24.728 -25.469   4.865  0.00  0.00    +0.084 C 
ENDBRANCH  18  19
ENDBRANCH  17  18
ENDBRANCH   1  17
TORSDOF 6
ENDMDL
MODEL 9
REMARK VINA RESULT:      -7.6      1.808      5.460
REMARK  Name = *****
REMARK                            x       y       z     vdW  Elec       q    Type
REMARK                         _______ _______ _______ _____ _____    ______ ____
ROOT
ATOM      1  C   LIG    1       24.510 -23.259   6.438  0.00  0.00    +0.095 C 
ENDROOT
BRANCH   1   2
ATOM      2  C   LIG    1       24.780 -24.776   6.788  0.00  0.00    +0.033 C 
ATOM      3  C   LIG    1       26.071 -25.406   6.173  0.00  0.00    +0.018 C 
ATOM      4  C   LIG    1       25.584 -26.033   4.864  0.00  0.00    +0.015 C 
ATOM      5  C   LIG    1       24.522 -26.888   5.554  0.00  0.00    +0.012 C 
ATOM      6  C   LIG    1       25.405 -27.589   6.558  0.00  0.00    -0.027 C 
ATOM      7  C   LIG    1       26.347 -26.690   6.934  0.00  0.00    -0.027 C 
ATOM      8  C   LIG    1       23.693 -25.805   6.280  0.00  0.00    +0.015 C 
ENDBRANCH   1   2
BRANCH   1   9
ATOM      9  C   LIG    1       25.505 -22.349   7.191  0.00  0.00    -0.016 A 
ATOM     10  C   LIG    1       26.878 -22.371   6.887  0.00  0.00    +0.006 A 
ATOM     11  C   LIG    1       27.782 -21.499   7.504  0.00  0.00    +0.000 A 
ATOM     12  C   LIG    1       27.342 -20.614   8.481  0.00  0.00    +0.000 A 
ATOM     13  C   LIG    1       25.998 -20.604   8.841  0.00  0.00    +0.000 A 
ATOM     14  C   LIG    1       25.085 -21.454   8.197  0.00  0.00    +0.006 A 
ENDBRANCH   1   9
BRANCH   1  15
ATOM     15  O   LIG    1       23.164 -22.933   6.803  0.00  0.00    -0.384 OA
ATOM     16  H   LIG    1       23.208 -22.230   7.471  0.00  0.00    +0.211 HD
ENDBRANCH   1  15
BRANCH   1  17
ATOM     17  C   LIG    1       24.602 -23.049   4.897  0.00  0.00    +0.055 C 
BRANCH  17  18
ATOM     18  C   LIG    1       23.913 -21.789   4.306  0.00  0.00    +0.087 C 
BRANCH  18  19
ATOM     19  N   LIG    1       24.130 -20.587   5.149  0.00  0.00    -0.302 NA
ATOM     20  C   LIG    1       25.056 -19.610   4.548  0.00  0.00    +0.084 C 
ATOM     21  C   LIG    1       24.454 -18.739   3.438  0.00  0.00    +0.015 C 
ATOM     22  C   LIG    1       23.147 -18.083   3.869  0.00  0.00    +0.002 C 
ATOM     23  C   LIG    1       22.201 -19.097   4.496  0.00  0.00    +0.015 C 
ATOM     24  C   LIG    1       22.900 -19.910   5.585  0.00  0.00    +0.084 C 
ENDBRANCH  18  19
ENDBRANCH  17  18
ENDBRANCH   1  17
TORSDOF 6
ENDMDL
