MODEL 1
REMARK VINA RESULT:      -4.0      0.000      0.000
REMARK  Name = *****
REMARK                            x       y       z     vdW  Elec       q    Type
REMARK                         _______ _______ _______ _____ _____    ______ ____
ROOT
ATOM      1  N   LIG    1       25.249 -17.321   3.530  0.00  0.00    -0.288 N 
ATOM      2  C   LIG    1       24.283 -18.243   3.881  0.00  0.00    +0.162 A 
ATOM      3  N   LIG    1       22.975 -17.893   3.913  0.00  0.00    -0.221 NA
ATOM      4  C   LIG    1       22.093 -18.699   4.399  0.00  0.00    +0.183 C 
ATOM      5  N   LIG    1       22.131 -19.952   4.959  0.00  0.00    -0.332 N 
ATOM      6  H   LIG    1       21.270 -20.245   5.412  0.00  0.00    +0.147 HD
ATOM      7  C   LIG    1       23.326 -20.547   5.562  0.00  0.00    +0.140 C 
ATOM      8  C   LIG    1       24.469 -20.723   4.547  0.00  0.00    +0.183 C 
ATOM      9  C   LIG    1       25.006 -19.401   4.124  0.00  0.00    +0.115 A 
ATOM     10  N   LIG    1       26.358 -19.196   3.953  0.00  0.00    -0.236 NA
ATOM     11  C   LIG    1       26.465 -17.940   3.585  0.00  0.00    +0.203 A 
ENDROOT
BRANCH   1  15
ATOM     12  C4* LIG    1       26.314 -14.040   3.511  0.00  0.00    +0.175 C 
ATOM     13  C3* LIG    1       24.902 -13.744   4.000  0.00  0.00    +0.150 C 
ATOM     14  C2* LIG    1       24.293 -15.107   4.202  0.00  0.00    +0.088 C 
ATOM     15  C1* LIG    1       24.985 -15.948   3.136  0.00  0.00    +0.225 C 
ATOM     16  O4* LIG    1       26.217 -15.277   2.769  0.00  0.00    -0.348 OA
BRANCH  13  17
ATOM     17  O3* LIG    1       24.163 -13.049   2.986  0.00  0.00    -0.389 OA
ATOM     18  H3* LIG    1       24.513 -13.309   2.114  0.00  0.00    +0.210 HD
ENDBRANCH  13  17
BRANCH  12  19
ATOM     19  C5* LIG    1       27.354 -14.188   4.628  0.00  0.00    +0.190 C 
BRANCH  19  20
ATOM     20  O5* LIG    1       27.039 -13.381   5.757  0.00  0.00    -0.392 OA
ATOM     21  H5* LIG    1       27.773 -12.753   5.879  0.00  0.00    +0.209 HD
ENDBRANCH  19  20
ENDBRANCH  12  19
ENDBRANCH   1  15
BRANCH   8  22
ATOM     22  O   LIG    1       23.992 -21.493   3.433  0.00  0.00    -0.384 OA
ATOM     23  H   LIG    1       24.801 -21.834   3.009  0.00  0.00    +0.210 HD
ENDBRANCH   8  22
TORSDOF 5
ENDMDL
MODEL 2
REMARK VINA RESULT:      -3.0      1.755      6.147
REMARK  Name = *****
REMARK                            x       y       z     vdW  Elec       q    Type
REMARK                         _______ _______ _______ _____ _____    ______ ____
ROOT
ATOM      1  N   LIG    1       23.709 -17.049   4.003  0.00  0.00    -0.288 N 
ATOM      2  C   LIG    1       24.678 -16.082   3.822  0.00  0.00    +0.162 A 
ATOM      3  N   LIG    1       25.869 -16.394   3.259  0.00  0.00    -0.221 NA
ATOM      4  C   LIG    1       26.831 -15.536   3.242  0.00  0.00    +0.183 C 
ATOM      5  N   LIG    1       26.991 -14.251   3.699  0.00  0.00    -0.332 N 
ATOM      6  H   LIG    1       27.946 -13.907   3.687  0.00  0.00    +0.147 HD
ATOM      7  C   LIG    1       26.180 -13.650   4.761  0.00  0.00    +0.140 C 
ATOM      8  C   LIG    1       24.690 -13.569   4.387  0.00  0.00    +0.183 C 
ATOM      9  C   LIG    1       24.089 -14.929   4.321  0.00  0.00    +0.115 A 
ATOM     10  N   LIG    1       22.824 -15.180   4.808  0.00  0.00    -0.236 NA
ATOM     11  C   LIG    1       22.626 -16.460   4.589  0.00  0.00    +0.203 A 
ENDROOT
BRANCH   1  15
ATOM     12  C4* LIG    1       23.256 -20.374   4.802  0.00  0.00    +0.175 C 
ATOM     13  C3* LIG    1       24.691 -20.524   4.315  0.00  0.00    +0.150 C 
ATOM     14  C2* LIG    1       25.129 -19.111   4.030  0.00  0.00    +0.088 C 
ATOM     15  C1* LIG    1       23.834 -18.437   3.593  0.00  0.00    +0.225 C 
ATOM     16  O4* LIG    1       22.727 -19.221   4.107  0.00  0.00    -0.348 OA
BRANCH  13  17
ATOM     17  O3* LIG    1       24.722 -21.277   3.095  0.00  0.00    -0.389 OA
ATOM     18  H3* LIG    1       25.569 -21.756   3.047  0.00  0.00    +0.210 HD
ENDBRANCH  13  17
BRANCH  12  19
ATOM     19  C5* LIG    1       23.117 -20.172   6.317  0.00  0.00    +0.190 C 
BRANCH  19  20
ATOM     20  O5* LIG    1       23.130 -21.408   7.020  0.00  0.00    -0.392 OA
ATOM     21  H5* LIG    1       23.974 -21.849   6.817  0.00  0.00    +0.209 HD
ENDBRANCH  19  20
ENDBRANCH  12  19
ENDBRANCH   1  15
BRANCH   8  22
ATOM     22  O   LIG    1       24.556 -12.860   3.145  0.00  0.00    -0.384 OA
ATOM     23  H   LIG    1       23.731 -13.205   2.756  0.00  0.00    +0.210 HD
ENDBRANCH   8  22
TORSDOF 5
ENDMDL
MODEL 3
REMARK VINA RESULT:      -2.7      1.733      5.706
REMARK  Name = *****
REMARK                            x       y       z     vdW  Elec       q    Type
REMARK                         _______ _______ _______ _____ _____    ______ ____
ROOT
ATOM      1  N   LIG    1       25.142 -17.737   3.582  0.00  0.00    -0.288 N 
ATOM      2  C   LIG    1       24.830 -16.408   3.789  0.00  0.00    +0.162 A 
ATOM      3  N   LIG    1       23.571 -16.038   4.121  0.00  0.00    -0.221 NA
ATOM      4  C   LIG    1       23.241 -14.791   4.150  0.00  0.00    +0.183 C 
ATOM      5  N   LIG    1       23.896 -13.610   3.900  0.00  0.00    -0.332 N 
ATOM      6  H   LIG    1       23.296 -12.793   3.839  0.00  0.00    +0.147 HD
ATOM      7  C   LIG    1       25.103 -13.497   3.079  0.00  0.00    +0.140 C 
ATOM      8  C   LIG    1       26.286 -14.288   3.663  0.00  0.00    +0.183 C 
ATOM      9  C   LIG    1       26.034 -15.752   3.579  0.00  0.00    +0.115 A 
ATOM     10  N   LIG    1       27.036 -16.635   3.236  0.00  0.00    -0.236 NA
ATOM     11  C   LIG    1       26.466 -17.817   3.261  0.00  0.00    +0.203 A 
ENDROOT
BRANCH   1  15
ATOM     12  C4* LIG    1       24.078 -20.419   5.473  0.00  0.00    +0.175 C 
ATOM     13  C3* LIG    1       24.132 -21.172   4.150  0.00  0.00    +0.150 C 
ATOM     14  C2* LIG    1       24.716 -20.173   3.185  0.00  0.00    +0.088 C 
ATOM     15  C1* LIG    1       24.210 -18.842   3.729  0.00  0.00    +0.225 C 
ATOM     16  O4* LIG    1       23.862 -19.033   5.124  0.00  0.00    -0.348 OA
BRANCH  13  17
ATOM     17  O3* LIG    1       22.806 -21.512   3.721  0.00  0.00    -0.389 OA
ATOM     18  H3* LIG    1       22.491 -22.265   4.254  0.00  0.00    +0.210 HD
ENDBRANCH  13  17
BRANCH  12  19
ATOM     19  C5* LIG    1       25.347 -20.545   6.326  0.00  0.00    +0.190 C 
BRANCH  19  20
ATOM     20  O5* LIG    1       26.210 -21.569   5.845  0.00  0.00    -0.392 OA
ATOM     21  H5* LIG    1       26.092 -22.344   6.424  0.00  0.00    +0.209 HD
ENDBRANCH  19  20
ENDBRANCH  12  19
ENDBRANCH   1  15
BRANCH   8  22
ATOM     22  O   LIG    1       26.516 -13.857   5.014  0.00  0.00    -0.384 OA
ATOM     23  H   LIG    1       27.249 -14.419   5.327  0.00  0.00    +0.210 HD
ENDBRANCH   8  22
TORSDOF 5
ENDMDL
MODEL 4
REMARK VINA RESULT:      -2.3      1.796      3.046
REMARK  Name = *****
REMARK                            x       y       z     vdW  Elec       q    Type
REMARK                         _______ _______ _______ _____ _____    ______ ____
ROOT
ATOM      1  N   LIG    1       24.227 -15.907   4.079  0.00  0.00    -0.288 N 
ATOM      2  C   LIG    1       24.306 -17.283   3.988  0.00  0.00    +0.162 A 
ATOM      3  N   LIG    1       25.459 -17.885   3.614  0.00  0.00    -0.221 NA
ATOM      4  C   LIG    1       25.489 -19.151   3.368  0.00  0.00    +0.183 C 
ATOM      5  N   LIG    1       24.558 -20.161   3.380  0.00  0.00    -0.332 N 
ATOM      6  H   LIG    1       24.867 -21.032   2.957  0.00  0.00    +0.147 HD
ATOM      7  C   LIG    1       23.113 -19.949   3.265  0.00  0.00    +0.140 C 
ATOM      8  C   LIG    1       22.549 -19.114   4.427  0.00  0.00    +0.183 C 
ATOM      9  C   LIG    1       23.038 -17.710   4.353  0.00  0.00    +0.115 A 
ATOM     10  N   LIG    1       22.208 -16.645   4.633  0.00  0.00    -0.236 NA
ATOM     11  C   LIG    1       22.960 -15.581   4.470  0.00  0.00    +0.203 A 
ENDROOT
BRANCH   1  15
ATOM     12  C4* LIG    1       25.304 -12.639   3.853  0.00  0.00    +0.175 C 
ATOM     13  C3* LIG    1       25.928 -13.100   2.542  0.00  0.00    +0.150 C 
ATOM     14  C2* LIG    1       25.447 -14.520   2.390  0.00  0.00    +0.088 C 
ATOM     15  C1* LIG    1       25.329 -14.993   3.833  0.00  0.00    +0.225 C 
ATOM     16  O4* LIG    1       25.216 -13.821   4.680  0.00  0.00    -0.348 OA
BRANCH  13  17
ATOM     17  O3* LIG    1       27.358 -13.101   2.649  0.00  0.00    -0.389 OA
ATOM     18  H3* LIG    1       27.613 -12.546   3.408  0.00  0.00    +0.210 HD
ENDBRANCH  13  17
BRANCH  12  19
ATOM     19  C5* LIG    1       23.914 -12.006   3.706  0.00  0.00    +0.190 C 
BRANCH  19  20
ATOM     20  O5* LIG    1       23.706 -11.478   2.402  0.00  0.00    -0.392 OA
ATOM     21  H5* LIG    1       22.770 -11.217   2.340  0.00  0.00    +0.209 HD
ENDBRANCH  19  20
ENDBRANCH  12  19
ENDBRANCH   1  15
BRANCH   8  22
ATOM     22  O   LIG    1       22.901 -19.743   5.670  0.00  0.00    -0.384 OA
ATOM     23  H   LIG    1       23.823 -20.034   5.543  0.00  0.00    +0.210 HD
ENDBRANCH   8  22
TORSDOF 5
ENDMDL
MODEL 5
REMARK VINA RESULT:      -2.3      1.716      5.760
REMARK  Name = *****
REMARK                            x       y       z     vdW  Elec       q    Type
REMARK                         _______ _______ _______ _____ _____    ______ ____
ROOT
ATOM      1  N   LIG    1       23.569 -17.266   4.053  0.00  0.00    -0.288 N 
ATOM      2  C   LIG    1       24.726 -16.552   3.813  0.00  0.00    +0.162 A 
ATOM      3  N   LIG    1       25.848 -17.180   3.388  0.00  0.00    -0.221 NA
ATOM      4  C   LIG    1       26.970 -16.546   3.324  0.00  0.00    +0.183 C 
ATOM      5  N   LIG    1       27.376 -15.266   3.610  0.00  0.00    -0.332 N 
ATOM      6  H   LIG    1       28.382 -15.128   3.621  0.00  0.00    +0.147 HD
ATOM      7  C   LIG    1       26.664 -14.361   4.516  0.00  0.00    +0.140 C 
ATOM      8  C   LIG    1       25.242 -14.038   4.025  0.00  0.00    +0.183 C 
ATOM      9  C   LIG    1       24.372 -15.243   4.104  0.00  0.00    +0.115 A 
ATOM     10  N   LIG    1       23.063 -15.157   4.526  0.00  0.00    -0.236 NA
ATOM     11  C   LIG    1       22.610 -16.389   4.471  0.00  0.00    +0.203 A 
ENDROOT
BRANCH   1  15
ATOM     12  C4* LIG    1       24.563 -20.454   4.918  0.00  0.00    +0.175 C 
ATOM     13  C3* LIG    1       24.666 -20.660   3.413  0.00  0.00    +0.150 C 
ATOM     14  C2* LIG    1       24.385 -19.297   2.837  0.00  0.00    +0.088 C 
ATOM     15  C1* LIG    1       23.416 -18.696   3.849  0.00  0.00    +0.225 C 
ATOM     16  O4* LIG    1       23.580 -19.409   5.102  0.00  0.00    -0.348 OA
BRANCH  13  17
ATOM     17  O3* LIG    1       23.651 -21.572   2.968  0.00  0.00    -0.389 OA
ATOM     18  H3* LIG    1       23.115 -21.130   2.285  0.00  0.00    +0.210 HD
ENDBRANCH  13  17
BRANCH  12  19
ATOM     19  C5* LIG    1       25.879 -20.049   5.595  0.00  0.00    +0.190 C 
BRANCH  19  20
ATOM     20  O5* LIG    1       26.957 -19.993   4.667  0.00  0.00    -0.392 OA
ATOM     21  H5* LIG    1       27.720 -20.432   5.084  0.00  0.00    +0.209 HD
ENDBRANCH  19  20
ENDBRANCH  12  19
ENDBRANCH   1  15
BRANCH   8  22
ATOM     22  O   LIG    1       25.315 -13.512   2.691  0.00  0.00    -0.384 OA
ATOM     23  H   LIG    1       26.266 -13.352   2.544  0.00  0.00    +0.210 HD
ENDBRANCH   8  22
TORSDOF 5
ENDMDL
MODEL 6
REMARK VINA RESULT:      -1.8      1.701      2.454
REMARK  Name = *****
REMARK                            x       y       z     vdW  Elec       q    Type
REMARK                         _______ _______ _______ _____ _____    ______ ____
ROOT
ATOM      1  N   LIG    1       24.256 -16.424   3.760  0.00  0.00    -0.288 N 
ATOM      2  C   LIG    1       24.164 -17.793   3.915  0.00  0.00    +0.162 A 
ATOM      3  N   LIG    1       25.141 -18.608   3.450  0.00  0.00    -0.221 NA
ATOM      4  C   LIG    1       24.980 -19.888   3.445  0.00  0.00    +0.183 C 
ATOM      5  N   LIG    1       23.968 -20.738   3.819  0.00  0.00    -0.332 N 
ATOM      6  H   LIG    1       24.084 -21.701   3.517  0.00  0.00    +0.147 HD
ATOM      7  C   LIG    1       22.563 -20.340   3.941  0.00  0.00    +0.140 C 
ATOM      8  C   LIG    1       22.351 -19.256   5.011  0.00  0.00    +0.183 C 
ATOM      9  C   LIG    1       22.963 -17.968   4.585  0.00  0.00    +0.115 A 
ATOM     10  N   LIG    1       22.332 -16.764   4.812  0.00  0.00    -0.236 NA
ATOM     11  C   LIG    1       23.143 -15.860   4.314  0.00  0.00    +0.203 A 
ENDROOT
BRANCH   1  15
ATOM     12  C4* LIG    1       26.932 -14.285   4.160  0.00  0.00    +0.175 C 
ATOM     13  C3* LIG    1       26.350 -13.582   2.941  0.00  0.00    +0.150 C 
ATOM     14  C2* LIG    1       25.060 -14.314   2.678  0.00  0.00    +0.088 C 
ATOM     15  C1* LIG    1       25.374 -15.731   3.145  0.00  0.00    +0.225 C 
ATOM     16  O4* LIG    1       26.496 -15.660   4.062  0.00  0.00    -0.348 OA
BRANCH  13  17
ATOM     17  O3* LIG    1       27.219 -13.751   1.812  0.00  0.00    -0.389 OA
ATOM     18  H3* LIG    1       28.102 -14.007   2.136  0.00  0.00    +0.210 HD
ENDBRANCH  13  17
BRANCH  12  19
ATOM     19  C5* LIG    1       26.485 -13.697   5.505  0.00  0.00    +0.190 C 
BRANCH  19  20
ATOM     20  O5* LIG    1       27.594 -13.321   6.314  0.00  0.00    -0.392 OA
ATOM     21  H5* LIG    1       28.103 -14.130   6.502  0.00  0.00    +0.209 HD
ENDBRANCH  19  20
ENDBRANCH  12  19
ENDBRANCH   1  15
BRANCH   8  22
ATOM     22  O   LIG    1       22.885 -19.721   6.261  0.00  0.00    -0.384 OA
ATOM     23  H   LIG    1       22.102 -19.851   6.827  0.00  0.00    +0.210 HD
ENDBRANCH   8  22
TORSDOF 5
ENDMDL
MODEL 7
REMARK VINA RESULT:      -1.1      1.417      2.528
REMARK  Name = *****
REMARK                            x       y       z     vdW  Elec       q    Type
REMARK                         _______ _______ _______ _____ _____    ______ ____
ROOT
ATOM      1  N   LIG    1       23.335 -16.374   4.065  0.00  0.00    -0.288 N 
ATOM      2  C   LIG    1       24.097 -17.520   3.951  0.00  0.00    +0.162 A 
ATOM      3  N   LIG    1       25.335 -17.474   3.404  0.00  0.00    -0.221 NA
ATOM      4  C   LIG    1       25.978 -18.562   3.146  0.00  0.00    +0.183 C 
ATOM      5  N   LIG    1       25.711 -19.901   3.286  0.00  0.00    -0.332 N 
ATOM      6  H   LIG    1       26.364 -20.520   2.815  0.00  0.00    +0.147 HD
ATOM      7  C   LIG    1       24.362 -20.463   3.390  0.00  0.00    +0.140 C 
ATOM      8  C   LIG    1       23.608 -19.955   4.631  0.00  0.00    +0.183 C 
ATOM      9  C   LIG    1       23.291 -18.507   4.497  0.00  0.00    +0.115 A 
ATOM     10  N   LIG    1       22.077 -17.997   4.907  0.00  0.00    -0.236 NA
ATOM     11  C   LIG    1       22.145 -16.712   4.643  0.00  0.00    +0.203 A 
ENDROOT
BRANCH   1  15
ATOM     12  C4* LIG    1       25.932 -14.125   3.758  0.00  0.00    +0.175 C 
ATOM     13  C3* LIG    1       24.974 -13.164   4.450  0.00  0.00    +0.150 C 
ATOM     14  C2* LIG    1       23.784 -14.022   4.795  0.00  0.00    +0.088 C 
ATOM     15  C1* LIG    1       23.766 -15.045   3.666  0.00  0.00    +0.225 C 
ATOM     16  O4* LIG    1       25.095 -15.094   3.087  0.00  0.00    -0.348 OA
BRANCH  13  17
ATOM     17  O3* LIG    1       24.559 -12.137   3.538  0.00  0.00    -0.389 OA
ATOM     18  H3* LIG    1       23.589 -12.061   3.577  0.00  0.00    +0.210 HD
ENDBRANCH  13  17
BRANCH  12  19
ATOM     19  C5* LIG    1       26.900 -14.846   4.705  0.00  0.00    +0.190 C 
BRANCH  19  20
ATOM     20  O5* LIG    1       27.833 -15.653   3.996  0.00  0.00    -0.392 OA
ATOM     21  H5* LIG    1       27.457 -16.550   3.939  0.00  0.00    +0.209 HD
ENDBRANCH  19  20
ENDBRANCH  12  19
ENDBRANCH   1  15
BRANCH   8  22
ATOM     22  O   LIG    1       24.394 -20.229   5.802  0.00  0.00    -0.384 OA
ATOM     23  H   LIG    1       24.908 -21.025   5.569  0.00  0.00    +0.210 HD
ENDBRANCH   8  22
TORSDOF 5
ENDMDL
