MODEL 1
REMARK VINA RESULT:      -9.7      0.000      0.000
REMARK  Name = *****
REMARK                            x       y       z     vdW  Elec       q    Type
REMARK                         _______ _______ _______ _____ _____    ______ ____
ROOT
ATOM      1  O   LIG    1       25.258 -20.460   8.697  0.00  0.00    -0.247 OA
ATOM      2  C   LIG    1       26.082 -21.044   7.989  0.00  0.00    +0.349 C 
ENDROOT
BRANCH   2   3
ATOM      3  C   LIG    1       25.782 -21.584   6.548  0.00  0.00    +0.213 C 
BRANCH   3   4
ATOM      4  C   LIG    1       24.823 -20.665   5.764  0.00  0.00    -0.001 A 
ATOM      5  C   LIG    1       23.499 -20.437   6.185  0.00  0.00    +0.007 A 
ATOM      6  C   LIG    1       22.637 -19.616   5.450  0.00  0.00    +0.000 A 
ATOM      7  C   LIG    1       23.074 -19.010   4.276  0.00  0.00    +0.000 A 
ATOM      8  C   LIG    1       24.376 -19.224   3.833  0.00  0.00    +0.000 A 
ATOM      9  C   LIG    1       25.240 -20.045   4.567  0.00  0.00    +0.007 A 
ENDBRANCH   3   4
BRANCH   3  10
ATOM     10  C   LIG    1       25.341 -23.061   6.598  0.00  0.00    -0.001 A 
ATOM     11  C   LIG    1       23.978 -23.409   6.516  0.00  0.00    +0.007 A 
ATOM     12  C   LIG    1       23.569 -24.745   6.534  0.00  0.00    +0.000 A 
ATOM     13  C   LIG    1       24.514 -25.764   6.610  0.00  0.00    +0.000 A 
ATOM     14  C   LIG    1       25.868 -25.446   6.664  0.00  0.00    +0.000 A 
ATOM     15  C   LIG    1       26.279 -24.109   6.656  0.00  0.00    +0.007 A 
ENDBRANCH   3  10
BRANCH   3  16
ATOM     16  O   LIG    1       27.054 -21.534   5.857  0.00  0.00    -0.370 OA
ATOM     17  H   LIG    1       27.459 -22.413   5.966  0.00  0.00    +0.212 HD
ENDBRANCH   3  16
ENDBRANCH   2   3
BRANCH   2  18
ATOM     18  O   LIG    1       27.361 -21.310   8.395  0.00  0.00    -0.459 OA
BRANCH  18  19
ATOM     19  C   LIG    1       28.449 -20.667   7.698  0.00  0.00    +0.187 C 
ATOM     20  C   LIG    1       29.754 -21.142   8.355  0.00  0.00    +0.099 C 
ATOM     21  C   LIG    1       30.920 -20.163   8.188  0.00  0.00    +0.070 C 
ATOM     22  N   LIG    1       30.517 -18.797   8.767  0.00  0.00    +0.248 N 
ATOM     23  C   LIG    1       29.521 -18.334   7.682  0.00  0.00    +0.070 C 
ATOM     24  C   LIG    1       30.280 -18.647   6.382  0.00  0.00    +0.060 C 
ATOM     25  C   LIG    1       31.741 -17.821   8.867  0.00  0.00    +0.134 C 
ATOM     26  C   LIG    1       31.844 -17.434  10.331  0.00  0.00    +0.056 C 
ATOM     27  C   LIG    1       30.424 -17.540  10.829  0.00  0.00    +0.056 C 
ATOM     28  C   LIG    1       29.976 -18.845  10.210  0.00  0.00    +0.134 C 
ATOM     29  C   LIG    1       31.176 -19.845   6.708  0.00  0.00    +0.060 C 
ATOM     30  C   LIG    1       28.225 -19.152   7.762  0.00  0.00    +0.099 C 
ENDBRANCH  18  19
ENDBRANCH   2  18
TORSDOF 6
ENDMDL
MODEL 2
REMARK VINA RESULT:      -9.6      0.961      3.773
REMARK  Name = *****
REMARK                            x       y       z     vdW  Elec       q    Type
REMARK                         _______ _______ _______ _____ _____    ______ ____
ROOT
ATOM      1  O   LIG    1       25.918 -21.114   9.256  0.00  0.00    -0.247 OA
ATOM      2  C   LIG    1       25.695 -20.858   8.070  0.00  0.00    +0.349 C 
ENDROOT
BRANCH   2   3
ATOM      3  C   LIG    1       24.515 -21.473   7.240  0.00  0.00    +0.213 C 
BRANCH   3   4
ATOM      4  C   LIG    1       24.722 -22.974   6.950  0.00  0.00    -0.001 A 
ATOM      5  C   LIG    1       26.001 -23.564   6.954  0.00  0.00    +0.007 A 
ATOM      6  C   LIG    1       26.171 -24.923   6.668  0.00  0.00    +0.000 A 
ATOM      7  C   LIG    1       25.073 -25.722   6.366  0.00  0.00    +0.000 A 
ATOM      8  C   LIG    1       23.798 -25.162   6.348  0.00  0.00    +0.000 A 
ATOM      9  C   LIG    1       23.625 -23.803   6.633  0.00  0.00    +0.007 A 
ENDBRANCH   3   4
BRANCH   3  10
ATOM     10  C   LIG    1       24.226 -20.622   5.988  0.00  0.00    -0.001 A 
ATOM     11  C   LIG    1       25.133 -20.594   4.910  0.00  0.00    +0.007 A 
ATOM     12  C   LIG    1       24.869 -19.847   3.759  0.00  0.00    +0.000 A 
ATOM     13  C   LIG    1       23.681 -19.131   3.649  0.00  0.00    +0.000 A 
ATOM     14  C   LIG    1       22.757 -19.164   4.688  0.00  0.00    +0.000 A 
ATOM     15  C   LIG    1       23.024 -19.904   5.845  0.00  0.00    +0.007 A 
ENDBRANCH   3  10
BRANCH   3  16
ATOM     16  O   LIG    1       23.359 -21.380   8.106  0.00  0.00    -0.370 OA
ATOM     17  H   LIG    1       23.416 -22.134   8.720  0.00  0.00    +0.212 HD
ENDBRANCH   3  16
ENDBRANCH   2   3
BRANCH   2  18
ATOM     18  O   LIG    1       26.473 -20.011   7.329  0.00  0.00    -0.459 OA
BRANCH  18  19
ATOM     19  C   LIG    1       27.878 -20.311   7.198  0.00  0.00    +0.187 C 
ATOM     20  C   LIG    1       28.379 -20.768   8.576  0.00  0.00    +0.099 C 
ATOM     21  C   LIG    1       29.879 -20.547   8.792  0.00  0.00    +0.070 C 
ATOM     22  N   LIG    1       30.203 -19.057   8.593  0.00  0.00    +0.248 N 
ATOM     23  C   LIG    1       30.058 -18.960   7.059  0.00  0.00    +0.070 C 
ATOM     24  C   LIG    1       30.839 -20.192   6.574  0.00  0.00    +0.060 C 
ATOM     25  C   LIG    1       31.663 -18.711   9.048  0.00  0.00    +0.134 C 
ATOM     26  C   LIG    1       31.522 -17.641  10.116  0.00  0.00    +0.056 C 
ATOM     27  C   LIG    1       30.243 -16.933   9.744  0.00  0.00    +0.056 C 
ATOM     28  C   LIG    1       29.330 -18.094   9.421  0.00  0.00    +0.134 C 
ATOM     29  C   LIG    1       30.709 -21.228   7.694  0.00  0.00    +0.060 C 
ATOM     30  C   LIG    1       28.581 -19.061   6.654  0.00  0.00    +0.099 C 
ENDBRANCH  18  19
ENDBRANCH   2  18
TORSDOF 6
ENDMDL
MODEL 3
REMARK VINA RESULT:      -9.1      2.990      7.277
REMARK  Name = *****
REMARK                            x       y       z     vdW  Elec       q    Type
REMARK                         _______ _______ _______ _____ _____    ______ ____
ROOT
ATOM      1  O   LIG    1       24.680 -23.198   4.210  0.00  0.00    -0.247 OA
ATOM      2  C   LIG    1       25.044 -23.087   5.383  0.00  0.00    +0.349 C 
ENDROOT
BRANCH   2   3
ATOM      3  C   LIG    1       25.056 -21.737   6.180  0.00  0.00    +0.213 C 
BRANCH   3   4
ATOM      4  C   LIG    1       24.235 -20.635   5.480  0.00  0.00    -0.001 A 
ATOM      5  C   LIG    1       22.980 -20.219   5.965  0.00  0.00    +0.007 A 
ATOM      6  C   LIG    1       22.240 -19.232   5.305  0.00  0.00    +0.000 A 
ATOM      7  C   LIG    1       22.731 -18.644   4.144  0.00  0.00    +0.000 A 
ATOM      8  C   LIG    1       23.965 -19.042   3.639  0.00  0.00    +0.000 A 
ATOM      9  C   LIG    1       24.707 -20.028   4.297  0.00  0.00    +0.007 A 
ENDBRANCH   3   4
BRANCH   3  10
ATOM     10  C   LIG    1       26.499 -21.323   6.531  0.00  0.00    -0.001 A 
ATOM     11  C   LIG    1       27.174 -20.348   5.770  0.00  0.00    +0.007 A 
ATOM     12  C   LIG    1       28.473 -19.945   6.096  0.00  0.00    +0.000 A 
ATOM     13  C   LIG    1       29.116 -20.491   7.202  0.00  0.00    +0.000 A 
ATOM     14  C   LIG    1       28.460 -21.435   7.985  0.00  0.00    +0.000 A 
ATOM     15  C   LIG    1       27.164 -21.846   7.656  0.00  0.00    +0.007 A 
ENDBRANCH   3  10
BRANCH   3  16
ATOM     16  O   LIG    1       24.373 -22.029   7.423  0.00  0.00    -0.370 OA
ATOM     17  H   LIG    1       24.207 -22.989   7.424  0.00  0.00    +0.212 HD
ENDBRANCH   3  16
ENDBRANCH   2   3
BRANCH   2  18
ATOM     18  O   LIG    1       25.504 -24.140   6.125  0.00  0.00    -0.459 OA
BRANCH  18  19
ATOM     19  C   LIG    1       25.297 -25.476   5.622  0.00  0.00    +0.187 C 
ATOM     20  C   LIG    1       24.139 -26.090   6.422  0.00  0.00    +0.099 C 
ATOM     21  C   LIG    1       24.168 -27.621   6.473  0.00  0.00    +0.070 C 
ATOM     22  N   LIG    1       25.508 -28.080   7.070  0.00  0.00    +0.248 N 
ATOM     23  C   LIG    1       26.446 -27.758   5.887  0.00  0.00    +0.070 C 
ATOM     24  C   LIG    1       25.676 -28.331   4.688  0.00  0.00    +0.060 C 
ATOM     25  C   LIG    1       25.509 -29.615   7.393  0.00  0.00    +0.134 C 
ATOM     26  C   LIG    1       25.806 -29.726   8.878  0.00  0.00    +0.056 C 
ATOM     27  C   LIG    1       26.630 -28.497   9.169  0.00  0.00    +0.056 C 
ATOM     28  C   LIG    1       25.867 -27.428   8.420  0.00  0.00    +0.134 C 
ATOM     29  C   LIG    1       24.195 -28.228   5.063  0.00  0.00    +0.060 C 
ATOM     30  C   LIG    1       26.621 -26.240   5.742  0.00  0.00    +0.099 C 
ENDBRANCH  18  19
ENDBRANCH   2  18
TORSDOF 6
ENDMDL
MODEL 4
REMARK VINA RESULT:      -9.1      1.289      4.020
REMARK  Name = *****
REMARK                            x       y       z     vdW  Elec       q    Type
REMARK                         _______ _______ _______ _____ _____    ______ ____
ROOT
ATOM      1  O   LIG    1       25.544 -20.450   8.776  0.00  0.00    -0.247 OA
ATOM      2  C   LIG    1       25.497 -20.888   7.624  0.00  0.00    +0.349 C 
ENDROOT
BRANCH   2   3
ATOM      3  C   LIG    1       24.238 -21.574   6.990  0.00  0.00    +0.213 C 
BRANCH   3   4
ATOM      4  C   LIG    1       24.441 -23.088   6.773  0.00  0.00    -0.001 A 
ATOM      5  C   LIG    1       25.719 -23.679   6.792  0.00  0.00    +0.007 A 
ATOM      6  C   LIG    1       25.886 -25.050   6.572  0.00  0.00    +0.000 A 
ATOM      7  C   LIG    1       24.784 -25.862   6.322  0.00  0.00    +0.000 A 
ATOM      8  C   LIG    1       23.510 -25.302   6.290  0.00  0.00    +0.000 A 
ATOM      9  C   LIG    1       23.340 -23.930   6.509  0.00  0.00    +0.007 A 
ENDBRANCH   3   4
BRANCH   3  10
ATOM     10  C   LIG    1       23.775 -20.812   5.732  0.00  0.00    -0.001 A 
ATOM     11  C   LIG    1       22.727 -19.873   5.804  0.00  0.00    +0.007 A 
ATOM     12  C   LIG    1       22.317 -19.157   4.676  0.00  0.00    +0.000 A 
ATOM     13  C   LIG    1       22.961 -19.345   3.457  0.00  0.00    +0.000 A 
ATOM     14  C   LIG    1       24.017 -20.246   3.367  0.00  0.00    +0.000 A 
ATOM     15  C   LIG    1       24.423 -20.971   4.493  0.00  0.00    +0.007 A 
ENDBRANCH   3  10
BRANCH   3  16
ATOM     16  O   LIG    1       23.196 -21.440   7.987  0.00  0.00    -0.370 OA
ATOM     17  H   LIG    1       23.141 -20.490   8.198  0.00  0.00    +0.212 HD
ENDBRANCH   3  16
ENDBRANCH   2   3
BRANCH   2  18
ATOM     18  O   LIG    1       26.560 -20.843   6.764  0.00  0.00    -0.459 OA
BRANCH  18  19
ATOM     19  C   LIG    1       27.603 -19.878   7.013  0.00  0.00    +0.187 C 
ATOM     20  C   LIG    1       28.814 -20.285   6.159  0.00  0.00    +0.099 C 
ATOM     21  C   LIG    1       30.153 -19.789   6.712  0.00  0.00    +0.070 C 
ATOM     22  N   LIG    1       30.332 -20.317   8.145  0.00  0.00    +0.248 N 
ATOM     23  C   LIG    1       29.307 -19.429   8.882  0.00  0.00    +0.070 C 
ATOM     24  C   LIG    1       29.615 -18.031   8.320  0.00  0.00    +0.060 C 
ATOM     25  C   LIG    1       31.785 -20.069   8.681  0.00  0.00    +0.134 C 
ATOM     26  C   LIG    1       32.333 -21.439   9.041  0.00  0.00    +0.056 C 
ATOM     27  C   LIG    1       31.102 -22.232   9.401  0.00  0.00    +0.056 C 
ATOM     28  C   LIG    1       30.147 -21.839   8.297  0.00  0.00    +0.134 C 
ATOM     29  C   LIG    1       30.151 -18.266   6.906  0.00  0.00    +0.060 C 
ATOM     30  C   LIG    1       27.877 -19.853   8.522  0.00  0.00    +0.099 C 
ENDBRANCH  18  19
ENDBRANCH   2  18
TORSDOF 6
ENDMDL
MODEL 5
REMARK VINA RESULT:      -8.5      3.327      7.746
REMARK  Name = *****
REMARK                            x       y       z     vdW  Elec       q    Type
REMARK                         _______ _______ _______ _____ _____    ______ ____
ROOT
ATOM      1  O   LIG    1       22.397 -22.843   6.662  0.00  0.00    -0.247 OA
ATOM      2  C   LIG    1       23.611 -23.053   6.598  0.00  0.00    +0.349 C 
ENDROOT
BRANCH   2   3
ATOM      3  C   LIG    1       24.639 -22.088   5.912  0.00  0.00    +0.213 C 
BRANCH   3   4
ATOM      4  C   LIG    1       25.756 -21.639   6.877  0.00  0.00    -0.001 A 
ATOM      5  C   LIG    1       25.501 -20.783   7.966  0.00  0.00    +0.007 A 
ATOM      6  C   LIG    1       26.530 -20.370   8.819  0.00  0.00    +0.000 A 
ATOM      7  C   LIG    1       27.837 -20.795   8.601  0.00  0.00    +0.000 A 
ATOM      8  C   LIG    1       28.118 -21.636   7.528  0.00  0.00    +0.000 A 
ATOM      9  C   LIG    1       27.090 -22.051   6.674  0.00  0.00    +0.007 A 
ENDBRANCH   3   4
BRANCH   3  10
ATOM     10  C   LIG    1       23.912 -20.928   5.205  0.00  0.00    -0.001 A 
ATOM     11  C   LIG    1       22.867 -20.234   5.848  0.00  0.00    +0.007 A 
ATOM     12  C   LIG    1       22.219 -19.163   5.226  0.00  0.00    +0.000 A 
ATOM     13  C   LIG    1       22.615 -18.747   3.959  0.00  0.00    +0.000 A 
ATOM     14  C   LIG    1       23.662 -19.398   3.315  0.00  0.00    +0.000 A 
ATOM     15  C   LIG    1       24.306 -20.476   3.931  0.00  0.00    +0.007 A 
ENDBRANCH   3  10
BRANCH   3  16
ATOM     16  O   LIG    1       25.280 -22.888   4.889  0.00  0.00    -0.370 OA
ATOM     17  H   LIG    1       25.649 -23.667   5.343  0.00  0.00    +0.212 HD
ENDBRANCH   3  16
ENDBRANCH   2   3
BRANCH   2  18
ATOM     18  O   LIG    1       24.202 -24.178   7.105  0.00  0.00    -0.459 OA
BRANCH  18  19
ATOM     19  C   LIG    1       24.960 -25.018   6.210  0.00  0.00    +0.187 C 
ATOM     20  C   LIG    1       23.954 -25.889   5.442  0.00  0.00    +0.099 C 
ATOM     21  C   LIG    1       24.545 -27.205   4.928  0.00  0.00    +0.070 C 
ATOM     22  N   LIG    1       25.115 -27.999   6.116  0.00  0.00    +0.248 N 
ATOM     23  C   LIG    1       26.370 -27.154   6.419  0.00  0.00    +0.070 C 
ATOM     24  C   LIG    1       26.972 -26.942   5.020  0.00  0.00    +0.060 C 
ATOM     25  C   LIG    1       25.502 -29.463   5.708  0.00  0.00    +0.134 C 
ATOM     26  C   LIG    1       24.691 -30.373   6.614  0.00  0.00    +0.056 C 
ATOM     27  C   LIG    1       24.492 -29.550   7.861  0.00  0.00    +0.056 C 
ATOM     28  C   LIG    1       24.131 -28.199   7.286  0.00  0.00    +0.134 C 
ATOM     29  C   LIG    1       25.784 -26.961   4.055  0.00  0.00    +0.060 C 
ATOM     30  C   LIG    1       25.972 -25.810   7.045  0.00  0.00    +0.099 C 
ENDBRANCH  18  19
ENDBRANCH   2  18
TORSDOF 6
ENDMDL
MODEL 6
REMARK VINA RESULT:      -8.0      7.441     10.372
REMARK  Name = *****
REMARK                            x       y       z     vdW  Elec       q    Type
REMARK                         _______ _______ _______ _____ _____    ______ ____
ROOT
ATOM      1  O   LIG    1       26.796 -30.833   8.741  0.00  0.00    -0.247 OA
ATOM      2  C   LIG    1       25.658 -30.363   8.808  0.00  0.00    +0.349 C 
ENDROOT
BRANCH   2   3
ATOM      3  C   LIG    1       24.746 -30.077   7.565  0.00  0.00    +0.213 C 
BRANCH   3   4
ATOM      4  C   LIG    1       24.850 -31.182   6.494  0.00  0.00    -0.001 A 
ATOM      5  C   LIG    1       25.899 -31.214   5.555  0.00  0.00    +0.007 A 
ATOM      6  C   LIG    1       25.965 -32.213   4.578  0.00  0.00    +0.000 A 
ATOM      7  C   LIG    1       24.984 -33.198   4.511  0.00  0.00    +0.000 A 
ATOM      8  C   LIG    1       23.932 -33.185   5.422  0.00  0.00    +0.000 A 
ATOM      9  C   LIG    1       23.863 -32.187   6.400  0.00  0.00    +0.007 A 
ENDBRANCH   3   4
BRANCH   3  10
ATOM     10  C   LIG    1       24.987 -28.652   7.027  0.00  0.00    -0.001 A 
ATOM     11  C   LIG    1       24.175 -28.121   6.005  0.00  0.00    +0.007 A 
ATOM     12  C   LIG    1       24.367 -26.821   5.529  0.00  0.00    +0.000 A 
ATOM     13  C   LIG    1       25.358 -26.015   6.079  0.00  0.00    +0.000 A 
ATOM     14  C   LIG    1       26.155 -26.507   7.108  0.00  0.00    +0.000 A 
ATOM     15  C   LIG    1       25.971 -27.811   7.580  0.00  0.00    +0.007 A 
ENDBRANCH   3  10
BRANCH   3  16
ATOM     16  O   LIG    1       23.391 -30.126   8.074  0.00  0.00    -0.370 OA
ATOM     17  H   LIG    1       23.102 -29.200   8.169  0.00  0.00    +0.212 HD
ENDBRANCH   3  16
ENDBRANCH   2   3
BRANCH   2  18
ATOM     18  O   LIG    1       25.062 -30.014   9.989  0.00  0.00    -0.459 OA
BRANCH  18  19
ATOM     19  C   LIG    1       25.898 -29.815  11.147  0.00  0.00    +0.187 C 
ATOM     20  C   LIG    1       25.106 -30.300  12.370  0.00  0.00    +0.099 C 
ATOM     21  C   LIG    1       25.537 -29.643  13.685  0.00  0.00    +0.070 C 
ATOM     22  N   LIG    1       25.400 -28.117  13.553  0.00  0.00    +0.248 N 
ATOM     23  C   LIG    1       26.592 -27.826  12.616  0.00  0.00    +0.070 C 
ATOM     24  C   LIG    1       27.724 -28.643  13.258  0.00  0.00    +0.060 C 
ATOM     25  C   LIG    1       25.573 -27.393  14.933  0.00  0.00    +0.134 C 
ATOM     26  C   LIG    1       24.290 -26.613  15.157  0.00  0.00    +0.056 C 
ATOM     27  C   LIG    1       23.809 -26.309  13.760  0.00  0.00    +0.056 C 
ATOM     28  C   LIG    1       24.019 -27.636  13.065  0.00  0.00    +0.134 C 
ATOM     29  C   LIG    1       27.039 -29.831  13.939  0.00  0.00    +0.060 C 
ATOM     30  C   LIG    1       26.294 -28.335  11.199  0.00  0.00    +0.099 C 
ENDBRANCH  18  19
ENDBRANCH   2  18
TORSDOF 6
ENDMDL
MODEL 7
REMARK VINA RESULT:      -8.0      7.616     10.973
REMARK  Name = *****
REMARK                            x       y       z     vdW  Elec       q    Type
REMARK                         _______ _______ _______ _____ _____    ______ ____
ROOT
ATOM      1  O   LIG    1       22.981 -31.725   8.348  0.00  0.00    -0.247 OA
ATOM      2  C   LIG    1       23.781 -30.808   8.148  0.00  0.00    +0.349 C 
ENDROOT
BRANCH   2   3
ATOM      3  C   LIG    1       24.414 -30.477   6.752  0.00  0.00    +0.213 C 
BRANCH   3   4
ATOM      4  C   LIG    1       25.554 -31.448   6.380  0.00  0.00    -0.001 A 
ATOM      5  C   LIG    1       25.753 -31.892   5.059  0.00  0.00    +0.007 A 
ATOM      6  C   LIG    1       26.779 -32.789   4.743  0.00  0.00    +0.000 A 
ATOM      7  C   LIG    1       27.625 -33.268   5.739  0.00  0.00    +0.000 A 
ATOM      8  C   LIG    1       27.445 -32.851   7.055  0.00  0.00    +0.000 A 
ATOM      9  C   LIG    1       26.419 -31.954   7.373  0.00  0.00    +0.007 A 
ENDBRANCH   3   4
BRANCH   3  10
ATOM     10  C   LIG    1       24.801 -28.987   6.667  0.00  0.00    -0.001 A 
ATOM     11  C   LIG    1       24.123 -28.116   5.790  0.00  0.00    +0.007 A 
ATOM     12  C   LIG    1       24.446 -26.758   5.724  0.00  0.00    +0.000 A 
ATOM     13  C   LIG    1       25.437 -26.235   6.549  0.00  0.00    +0.000 A 
ATOM     14  C   LIG    1       26.102 -27.070   7.442  0.00  0.00    +0.000 A 
ATOM     15  C   LIG    1       25.787 -28.431   7.503  0.00  0.00    +0.007 A 
ENDBRANCH   3  10
BRANCH   3  16
ATOM     16  O   LIG    1       23.353 -30.706   5.794  0.00  0.00    -0.370 OA
ATOM     17  H   LIG    1       23.355 -31.663   5.608  0.00  0.00    +0.212 HD
ENDBRANCH   3  16
ENDBRANCH   2   3
BRANCH   2  18
ATOM     18  O   LIG    1       24.227 -29.977   9.138  0.00  0.00    -0.459 OA
BRANCH  18  19
ATOM     19  C   LIG    1       24.395 -30.519  10.464  0.00  0.00    +0.187 C 
ATOM     20  C   LIG    1       23.545 -29.665  11.417  0.00  0.00    +0.099 C 
ATOM     21  C   LIG    1       24.039 -29.680  12.867  0.00  0.00    +0.070 C 
ATOM     22  N   LIG    1       25.499 -29.199  12.905  0.00  0.00    +0.248 N 
ATOM     23  C   LIG    1       26.198 -30.430  12.291  0.00  0.00    +0.070 C 
ATOM     24  C   LIG    1       25.544 -31.595  13.051  0.00  0.00    +0.060 C 
ATOM     25  C   LIG    1       25.990 -28.941  14.372  0.00  0.00    +0.134 C 
ATOM     26  C   LIG    1       26.424 -27.487  14.414  0.00  0.00    +0.056 C 
ATOM     27  C   LIG    1       26.858 -27.203  12.998  0.00  0.00    +0.056 C 
ATOM     28  C   LIG    1       25.750 -27.851  12.199  0.00  0.00    +0.134 C 
ATOM     29  C   LIG    1       24.137 -31.113  13.411  0.00  0.00    +0.060 C 
ATOM     30  C   LIG    1       25.893 -30.524  10.790  0.00  0.00    +0.099 C 
ENDBRANCH  18  19
ENDBRANCH   2  18
TORSDOF 6
ENDMDL
MODEL 8
REMARK VINA RESULT:      -7.8      7.361      9.888
REMARK  Name = *****
REMARK                            x       y       z     vdW  Elec       q    Type
REMARK                         _______ _______ _______ _____ _____    ______ ____
ROOT
ATOM      1  O   LIG    1       23.185 -30.077   9.157  0.00  0.00    -0.247 OA
ATOM      2  C   LIG    1       24.417 -30.129   9.151  0.00  0.00    +0.349 C 
ENDROOT
BRANCH   2   3
ATOM      3  C   LIG    1       25.300 -30.012   7.860  0.00  0.00    +0.213 C 
BRANCH   3   4
ATOM      4  C   LIG    1       25.214 -28.613   7.216  0.00  0.00    -0.001 A 
ATOM      5  C   LIG    1       24.268 -28.309   6.218  0.00  0.00    +0.007 A 
ATOM      6  C   LIG    1       24.218 -27.040   5.630  0.00  0.00    +0.000 A 
ATOM      7  C   LIG    1       25.115 -26.050   6.018  0.00  0.00    +0.000 A 
ATOM      8  C   LIG    1       26.065 -26.326   6.997  0.00  0.00    +0.000 A 
ATOM      9  C   LIG    1       26.117 -27.594   7.587  0.00  0.00    +0.007 A 
ENDBRANCH   3   4
BRANCH   3  10
ATOM     10  C   LIG    1       25.006 -31.173   6.890  0.00  0.00    -0.001 A 
ATOM     11  C   LIG    1       25.757 -31.333   5.709  0.00  0.00    +0.007 A 
ATOM     12  C   LIG    1       25.517 -32.398   4.835  0.00  0.00    +0.000 A 
ATOM     13  C   LIG    1       24.538 -33.340   5.135  0.00  0.00    +0.000 A 
ATOM     14  C   LIG    1       23.802 -33.219   6.310  0.00  0.00    +0.000 A 
ATOM     15  C   LIG    1       24.034 -32.149   7.180  0.00  0.00    +0.007 A 
ENDBRANCH   3  10
BRANCH   3  16
ATOM     16  O   LIG    1       26.663 -30.166   8.323  0.00  0.00    -0.370 OA
ATOM     17  H   LIG    1       26.970 -31.028   7.985  0.00  0.00    +0.212 HD
ENDBRANCH   3  16
ENDBRANCH   2   3
BRANCH   2  18
ATOM     18  O   LIG    1       25.163 -30.319  10.282  0.00  0.00    -0.459 OA
BRANCH  18  19
ATOM     19  C   LIG    1       25.012 -29.382  11.369  0.00  0.00    +0.187 C 
ATOM     20  C   LIG    1       26.100 -28.311  11.202  0.00  0.00    +0.099 C 
ATOM     21  C   LIG    1       26.488 -27.618  12.511  0.00  0.00    +0.070 C 
ATOM     22  N   LIG    1       26.957 -28.677  13.523  0.00  0.00    +0.248 N 
ATOM     23  C   LIG    1       25.600 -29.328  13.868  0.00  0.00    +0.070 C 
ATOM     24  C   LIG    1       24.696 -28.107  14.097  0.00  0.00    +0.060 C 
ATOM     25  C   LIG    1       27.612 -28.025  14.790  0.00  0.00    +0.134 C 
ATOM     26  C   LIG    1       29.019 -28.592  14.866  0.00  0.00    +0.056 C 
ATOM     27  C   LIG    1       28.895 -29.945  14.213  0.00  0.00    +0.056 C 
ATOM     28  C   LIG    1       28.053 -29.626  12.998  0.00  0.00    +0.134 C 
ATOM     29  C   LIG    1       25.264 -27.001  13.203  0.00  0.00    +0.060 C 
ATOM     30  C   LIG    1       25.093 -30.164  12.685  0.00  0.00    +0.099 C 
ENDBRANCH  18  19
ENDBRANCH   2  18
TORSDOF 6
ENDMDL
MODEL 9
REMARK VINA RESULT:      -7.8      7.928     12.783
REMARK  Name = *****
REMARK                            x       y       z     vdW  Elec       q    Type
REMARK                         _______ _______ _______ _____ _____    ______ ____
ROOT
ATOM      1  O   LIG    1       25.276 -29.573   8.766  0.00  0.00    -0.247 OA
ATOM      2  C   LIG    1       24.447 -30.053   7.989  0.00  0.00    +0.349 C 
ENDROOT
BRANCH   2   3
ATOM      3  C   LIG    1       24.607 -30.077   6.429  0.00  0.00    +0.213 C 
BRANCH   3   4
ATOM      4  C   LIG    1       25.572 -31.183   5.956  0.00  0.00    -0.001 A 
ATOM      5  C   LIG    1       25.553 -31.674   4.636  0.00  0.00    +0.007 A 
ATOM      6  C   LIG    1       26.421 -32.693   4.229  0.00  0.00    +0.000 A 
ATOM      7  C   LIG    1       27.322 -33.250   5.131  0.00  0.00    +0.000 A 
ATOM      8  C   LIG    1       27.357 -32.789   6.444  0.00  0.00    +0.000 A 
ATOM      9  C   LIG    1       26.489 -31.770   6.853  0.00  0.00    +0.007 A 
ENDBRANCH   3   4
BRANCH   3  10
ATOM     10  C   LIG    1       24.946 -28.672   5.894  0.00  0.00    -0.001 A 
ATOM     11  C   LIG    1       24.081 -27.584   6.126  0.00  0.00    +0.007 A 
ATOM     12  C   LIG    1       24.390 -26.300   5.668  0.00  0.00    +0.000 A 
ATOM     13  C   LIG    1       25.583 -26.070   4.990  0.00  0.00    +0.000 A 
ATOM     14  C   LIG    1       26.467 -27.122   4.772  0.00  0.00    +0.000 A 
ATOM     15  C   LIG    1       26.155 -28.409   5.221  0.00  0.00    +0.007 A 
ENDBRANCH   3  10
BRANCH   3  16
ATOM     16  O   LIG    1       23.298 -30.431   5.923  0.00  0.00    -0.370 OA
ATOM     17  H   LIG    1       22.798 -29.597   5.852  0.00  0.00    +0.212 HD
ENDBRANCH   3  16
ENDBRANCH   2   3
BRANCH   2  18
ATOM     18  O   LIG    1       23.268 -30.608   8.405  0.00  0.00    -0.459 OA
BRANCH  18  19
ATOM     19  C   LIG    1       23.244 -31.302   9.669  0.00  0.00    +0.187 C 
ATOM     20  C   LIG    1       22.559 -32.657   9.433  0.00  0.00    +0.099 C 
ATOM     21  C   LIG    1       21.912 -33.248  10.689  0.00  0.00    +0.070 C 
ATOM     22  N   LIG    1       20.892 -32.244  11.250  0.00  0.00    +0.248 N 
ATOM     23  C   LIG    1       21.856 -31.185  11.826  0.00  0.00    +0.070 C 
ATOM     24  C   LIG    1       22.881 -32.045  12.581  0.00  0.00    +0.060 C 
ATOM     25  C   LIG    1       20.007 -32.879  12.378  0.00  0.00    +0.134 C 
ATOM     26  C   LIG    1       18.571 -32.743  11.905  0.00  0.00    +0.056 C 
ATOM     27  C   LIG    1       18.599 -31.515  11.030  0.00  0.00    +0.056 C 
ATOM     28  C   LIG    1       19.859 -31.737  10.224  0.00  0.00    +0.134 C 
ATOM     29  C   LIG    1       22.927 -33.380  11.833  0.00  0.00    +0.060 C 
ATOM     30  C   LIG    1       22.535 -30.406  10.691  0.00  0.00    +0.099 C 
ENDBRANCH  18  19
ENDBRANCH   2  18
TORSDOF 6
ENDMDL
