MODEL 1
REMARK VINA RESULT:      -4.4      0.000      0.000
REMARK  Name = *****
REMARK                            x       y       z     vdW  Elec       q    Type
REMARK                         _______ _______ _______ _____ _____    ______ ____
ROOT
ATOM      1  C   LIG    1       26.040 -20.111   4.751  0.00  0.00    +0.120 A 
ATOM      2  C   LIG    1       25.268 -19.467   3.784  0.00  0.00    +0.046 A 
ATOM      3  C   LIG    1       25.633 -18.202   3.316  0.00  0.00    +0.007 A 
ATOM      4  C   LIG    1       26.791 -17.578   3.795  0.00  0.00    -0.046 A 
ATOM      5  C   LIG    1       27.570 -18.238   4.751  0.00  0.00    +0.007 A 
ATOM      6  C   LIG    1       27.208 -19.502   5.211  0.00  0.00    +0.046 A 
ENDROOT
BRANCH   1   7
ATOM      7  O   LIG    1       25.584 -21.336   5.163  0.00  0.00    -0.492 OA
BRANCH   7   8
ATOM      8  C   LIG    1       25.402 -21.454   6.581  0.00  0.00    +0.235 C 
BRANCH   8   9
ATOM      9  C   LIG    1       23.922 -21.548   6.933  0.00  0.00    +0.096 C 
BRANCH   9  13
ATOM     10  C   LIG    1       21.532 -19.179   4.311  0.00  0.00    -0.029 A 
ATOM     11  C   LIG    1       22.343 -18.639   5.305  0.00  0.00    +0.114 A 
ATOM     12  N   LIG    1       23.109 -19.372   6.148  0.00  0.00    -0.260 NA
ATOM     13  C   LIG    1       23.082 -20.717   5.995  0.00  0.00    +0.044 A 
ATOM     14  C   LIG    1       22.296 -21.344   5.032  0.00  0.00    +0.024 A 
ATOM     15  C   LIG    1       21.522 -20.567   4.178  0.00  0.00    +0.007 A 
BRANCH  10  17
ATOM     16  C   LIG    1       19.350 -18.903   3.117  0.00  0.00    +0.009 C 
ATOM     17  C   LIG    1       20.720 -18.305   3.399  0.00  0.00    +0.033 C 
ENDBRANCH  10  17
ENDBRANCH   9  13
ENDBRANCH   8   9
ENDBRANCH   7   8
ENDBRANCH   1   7
BRANCH   4  18
ATOM     18  C   LIG    1       27.245 -16.244   3.253  0.00  0.00    +0.059 C 
BRANCH  18  19
ATOM     19  C   LIG    1       26.670 -15.022   3.981  0.00  0.00    +0.146 C 
ATOM     20  C   LIG    1       27.353 -13.728   3.589  0.00  0.00    +0.234 C 
ATOM     21  O   LIG    1       28.551 -13.521   3.660  0.00  0.00    -0.274 OA
ATOM     22  N   LIG    1       26.457 -12.798   3.143  0.00  0.00    -0.246 N 
ATOM     23  H   LIG    1       26.769 -11.895   2.823  0.00  0.00    +0.158 HD
ATOM     24  C   LIG    1       25.142 -13.121   3.083  0.00  0.00    +0.279 C 
ATOM     25  O   LIG    1       24.259 -12.412   2.664  0.00  0.00    -0.263 OA
ATOM     26  S   LIG    1       24.887 -14.736   3.697  0.00  0.00    -0.054 S 
ENDBRANCH  18  19
ENDBRANCH   4  18
TORSDOF 7
ENDMDL
MODEL 2
REMARK VINA RESULT:      -4.1      2.349      4.058
REMARK  Name = *****
REMARK                            x       y       z     vdW  Elec       q    Type
REMARK                         _______ _______ _______ _____ _____    ______ ____
ROOT
ATOM      1  C   LIG    1       27.986 -16.417   4.424  0.00  0.00    +0.120 A 
ATOM      2  C   LIG    1       28.195 -15.039   4.375  0.00  0.00    +0.046 A 
ATOM      3  C   LIG    1       27.370 -14.227   3.593  0.00  0.00    +0.007 A 
ATOM      4  C   LIG    1       26.310 -14.784   2.868  0.00  0.00    -0.046 A 
ATOM      5  C   LIG    1       26.096 -16.166   2.935  0.00  0.00    +0.007 A 
ATOM      6  C   LIG    1       26.915 -16.972   3.722  0.00  0.00    +0.046 A 
ENDROOT
BRANCH   1   7
ATOM      7  O   LIG    1       28.864 -17.129   5.198  0.00  0.00    -0.492 OA
BRANCH   7   8
ATOM      8  C   LIG    1       28.963 -18.519   4.858  0.00  0.00    +0.235 C 
BRANCH   8   9
ATOM      9  C   LIG    1       28.602 -19.398   6.050  0.00  0.00    +0.096 C 
BRANCH   9  13
ATOM     10  C   LIG    1       24.608 -20.856   5.704  0.00  0.00    -0.029 A 
ATOM     11  C   LIG    1       25.327 -20.335   4.633  0.00  0.00    +0.114 A 
ATOM     12  N   LIG    1       26.595 -19.866   4.720  0.00  0.00    -0.260 NA
ATOM     13  C   LIG    1       27.193 -19.925   5.934  0.00  0.00    +0.044 A 
ATOM     14  C   LIG    1       26.548 -20.425   7.062  0.00  0.00    +0.024 A 
ATOM     15  C   LIG    1       25.247 -20.902   6.942  0.00  0.00    +0.007 A 
BRANCH  10  17
ATOM     16  C   LIG    1       22.275 -20.308   4.981  0.00  0.00    +0.009 C 
ATOM     17  C   LIG    1       23.209 -21.374   5.533  0.00  0.00    +0.033 C 
ENDBRANCH  10  17
ENDBRANCH   9  13
ENDBRANCH   8   9
ENDBRANCH   7   8
ENDBRANCH   1   7
BRANCH   4  18
ATOM     18  C   LIG    1       25.362 -13.920   2.073  0.00  0.00    +0.059 C 
BRANCH  18  19
ATOM     19  C   LIG    1       24.112 -13.462   2.835  0.00  0.00    +0.146 C 
ATOM     20  C   LIG    1       23.822 -14.314   4.055  0.00  0.00    +0.234 C 
ATOM     21  O   LIG    1       23.680 -15.523   4.045  0.00  0.00    -0.274 OA
ATOM     22  N   LIG    1       23.728 -13.558   5.189  0.00  0.00    -0.246 N 
ATOM     23  H   LIG    1       23.563 -13.991   6.084  0.00  0.00    +0.158 HD
ATOM     24  C   LIG    1       23.916 -12.217   5.109  0.00  0.00    +0.279 C 
ATOM     25  O   LIG    1       23.910 -11.447   6.038  0.00  0.00    -0.263 OA
ATOM     26  S   LIG    1       24.181 -11.742   3.450  0.00  0.00    -0.054 S 
ENDBRANCH  18  19
ENDBRANCH   4  18
TORSDOF 7
ENDMDL
MODEL 3
REMARK VINA RESULT:      -3.8      1.670      2.563
REMARK  Name = *****
REMARK                            x       y       z     vdW  Elec       q    Type
REMARK                         _______ _______ _______ _____ _____    ______ ____
ROOT
ATOM      1  C   LIG    1       27.502 -18.492   4.483  0.00  0.00    +0.120 A 
ATOM      2  C   LIG    1       26.434 -18.108   3.673  0.00  0.00    +0.046 A 
ATOM      3  C   LIG    1       26.286 -16.774   3.282  0.00  0.00    +0.007 A 
ATOM      4  C   LIG    1       27.222 -15.813   3.681  0.00  0.00    -0.046 A 
ATOM      5  C   LIG    1       28.301 -16.208   4.480  0.00  0.00    +0.007 A 
ATOM      6  C   LIG    1       28.450 -17.540   4.861  0.00  0.00    +0.046 A 
ENDROOT
BRANCH   1   7
ATOM      7  O   LIG    1       27.544 -19.816   4.831  0.00  0.00    -0.492 OA
BRANCH   7   8
ATOM      8  C   LIG    1       27.703 -20.055   6.237  0.00  0.00    +0.235 C 
BRANCH   8   9
ATOM      9  C   LIG    1       26.756 -21.150   6.713  0.00  0.00    +0.096 C 
BRANCH   9  13
ATOM     10  C   LIG    1       22.835 -20.549   5.144  0.00  0.00    -0.029 A 
ATOM     11  C   LIG    1       23.915 -20.960   4.368  0.00  0.00    +0.114 A 
ATOM     12  N   LIG    1       25.167 -21.157   4.845  0.00  0.00    -0.260 NA
ATOM     13  C   LIG    1       25.364 -20.945   6.168  0.00  0.00    +0.044 A 
ATOM     14  C   LIG    1       24.345 -20.527   7.019  0.00  0.00    +0.024 A 
ATOM     15  C   LIG    1       23.068 -20.336   6.502  0.00  0.00    +0.007 A 
BRANCH  10  17
ATOM     16  C   LIG    1       21.319 -19.010   3.882  0.00  0.00    +0.009 C 
ATOM     17  C   LIG    1       21.467 -20.366   4.553  0.00  0.00    +0.033 C 
ENDBRANCH  10  17
ENDBRANCH   9  13
ENDBRANCH   8   9
ENDBRANCH   7   8
ENDBRANCH   1   7
BRANCH   4  18
ATOM     18  C   LIG    1       27.125 -14.381   3.215  0.00  0.00    +0.059 C 
BRANCH  18  19
ATOM     19  C   LIG    1       25.991 -13.570   3.856  0.00  0.00    +0.146 C 
ATOM     20  C   LIG    1       24.822 -13.349   2.918  0.00  0.00    +0.234 C 
ATOM     21  O   LIG    1       24.899 -12.842   1.813  0.00  0.00    -0.274 OA
ATOM     22  N   LIG    1       23.647 -13.784   3.462  0.00  0.00    -0.246 N 
ATOM     23  H   LIG    1       22.786 -13.725   2.942  0.00  0.00    +0.158 HD
ATOM     24  C   LIG    1       23.658 -14.350   4.694  0.00  0.00    +0.279 C 
ATOM     25  O   LIG    1       22.702 -14.818   5.264  0.00  0.00    -0.263 OA
ATOM     26  S   LIG    1       25.271 -14.321   5.359  0.00  0.00    -0.054 S 
ENDBRANCH  18  19
ENDBRANCH   4  18
TORSDOF 7
ENDMDL
MODEL 4
REMARK VINA RESULT:      -3.5      1.814      3.046
REMARK  Name = *****
REMARK                            x       y       z     vdW  Elec       q    Type
REMARK                         _______ _______ _______ _____ _____    ______ ____
ROOT
ATOM      1  C   LIG    1       27.879 -18.238   4.782  0.00  0.00    +0.120 A 
ATOM      2  C   LIG    1       28.348 -16.925   4.822  0.00  0.00    +0.046 A 
ATOM      3  C   LIG    1       27.694 -15.919   4.105  0.00  0.00    +0.007 A 
ATOM      4  C   LIG    1       26.548 -16.214   3.358  0.00  0.00    -0.046 A 
ATOM      5  C   LIG    1       26.073 -17.530   3.336  0.00  0.00    +0.007 A 
ATOM      6  C   LIG    1       26.722 -18.529   4.058  0.00  0.00    +0.046 A 
ENDROOT
BRANCH   1   7
ATOM      7  O   LIG    1       28.603 -19.155   5.497  0.00  0.00    -0.492 OA
BRANCH   7   8
ATOM      8  C   LIG    1       28.033 -20.471   5.524  0.00  0.00    +0.235 C 
BRANCH   8   9
ATOM      9  C   LIG    1       27.063 -20.619   6.690  0.00  0.00    +0.096 C 
BRANCH   9  13
ATOM     10  C   LIG    1       23.057 -21.034   5.283  0.00  0.00    -0.029 A 
ATOM     11  C   LIG    1       24.175 -21.291   4.494  0.00  0.00    +0.114 A 
ATOM     12  N   LIG    1       25.455 -21.166   4.920  0.00  0.00    -0.260 NA
ATOM     13  C   LIG    1       25.643 -20.774   6.203  0.00  0.00    +0.044 A 
ATOM     14  C   LIG    1       24.584 -20.490   7.061  0.00  0.00    +0.024 A 
ATOM     15  C   LIG    1       23.281 -20.630   6.598  0.00  0.00    +0.007 A 
BRANCH  10  17
ATOM     16  C   LIG    1       21.131 -19.929   4.128  0.00  0.00    +0.009 C 
ATOM     17  C   LIG    1       21.664 -21.210   4.750  0.00  0.00    +0.033 C 
ENDBRANCH  10  17
ENDBRANCH   9  13
ENDBRANCH   8   9
ENDBRANCH   7   8
ENDBRANCH   1   7
BRANCH   4  18
ATOM     18  C   LIG    1       25.783 -15.133   2.633  0.00  0.00    +0.059 C 
BRANCH  18  19
ATOM     19  C   LIG    1       26.072 -13.705   3.114  0.00  0.00    +0.146 C 
ATOM     20  C   LIG    1       25.413 -13.385   4.440  0.00  0.00    +0.234 C 
ATOM     21  O   LIG    1       24.222 -13.491   4.671  0.00  0.00    -0.274 OA
ATOM     22  N   LIG    1       26.319 -12.950   5.365  0.00  0.00    -0.246 N 
ATOM     23  H   LIG    1       26.029 -12.723   6.303  0.00  0.00    +0.158 HD
ATOM     24  C   LIG    1       27.630 -12.878   5.024  0.00  0.00    +0.279 C 
ATOM     25  O   LIG    1       28.534 -12.560   5.758  0.00  0.00    -0.263 OA
ATOM     26  S   LIG    1       27.845 -13.324   3.350  0.00  0.00    -0.054 S 
ENDBRANCH  18  19
ENDBRANCH   4  18
TORSDOF 7
ENDMDL
MODEL 5
REMARK VINA RESULT:      -2.9      2.889      7.468
REMARK  Name = *****
REMARK                            x       y       z     vdW  Elec       q    Type
REMARK                         _______ _______ _______ _____ _____    ______ ____
ROOT
ATOM      1  C   LIG    1       22.024 -16.929   4.837  0.00  0.00    +0.120 A 
ATOM      2  C   LIG    1       22.665 -17.523   5.924  0.00  0.00    +0.046 A 
ATOM      3  C   LIG    1       22.871 -18.905   5.955  0.00  0.00    +0.007 A 
ATOM      4  C   LIG    1       22.456 -19.705   4.884  0.00  0.00    -0.046 A 
ATOM      5  C   LIG    1       21.829 -19.101   3.789  0.00  0.00    +0.007 A 
ATOM      6  C   LIG    1       21.633 -17.722   3.757  0.00  0.00    +0.046 A 
ENDROOT
BRANCH   1   7
ATOM      7  O   LIG    1       21.847 -15.573   4.913  0.00  0.00    -0.492 OA
BRANCH   7   8
ATOM      8  C   LIG    1       23.065 -14.814   4.905  0.00  0.00    +0.235 C 
BRANCH   8   9
ATOM      9  C   LIG    1       23.937 -15.198   3.715  0.00  0.00    +0.096 C 
BRANCH   9  13
ATOM     10  C   LIG    1       27.736 -13.263   3.860  0.00  0.00    -0.029 A 
ATOM     11  C   LIG    1       27.318 -14.047   2.789  0.00  0.00    +0.114 A 
ATOM     12  N   LIG    1       26.117 -14.671   2.723  0.00  0.00    -0.260 NA
ATOM     13  C   LIG    1       25.274 -14.501   3.770  0.00  0.00    +0.044 A 
ATOM     14  C   LIG    1       25.611 -13.739   4.885  0.00  0.00    +0.024 A 
ATOM     15  C   LIG    1       26.850 -13.108   4.925  0.00  0.00    +0.007 A 
BRANCH  10  17
ATOM     16  C   LIG    1       29.345 -11.867   5.173  0.00  0.00    +0.009 C 
ATOM     17  C   LIG    1       29.076 -12.586   3.860  0.00  0.00    +0.033 C 
ENDBRANCH  10  17
ENDBRANCH   9  13
ENDBRANCH   8   9
ENDBRANCH   7   8
ENDBRANCH   1   7
BRANCH   4  18
ATOM     18  C   LIG    1       22.730 -21.190   4.862  0.00  0.00    +0.059 C 
BRANCH  18  19
ATOM     19  C   LIG    1       24.213 -21.571   4.763  0.00  0.00    +0.146 C 
ATOM     20  C   LIG    1       25.001 -20.645   3.860  0.00  0.00    +0.234 C 
ATOM     21  O   LIG    1       24.727 -20.403   2.698  0.00  0.00    -0.274 OA
ATOM     22  N   LIG    1       26.078 -20.104   4.503  0.00  0.00    -0.246 N 
ATOM     23  H   LIG    1       26.681 -19.448   4.034  0.00  0.00    +0.158 HD
ATOM     24  C   LIG    1       26.297 -20.418   5.804  0.00  0.00    +0.279 C 
ATOM     25  O   LIG    1       27.179 -19.974   6.498  0.00  0.00    -0.263 OA
ATOM     26  S   LIG    1       25.108 -21.570   6.358  0.00  0.00    -0.054 S 
ENDBRANCH  18  19
ENDBRANCH   4  18
TORSDOF 7
ENDMDL
MODEL 6
REMARK VINA RESULT:      -2.2      2.442      7.177
REMARK  Name = *****
REMARK                            x       y       z     vdW  Elec       q    Type
REMARK                         _______ _______ _______ _____ _____    ______ ____
ROOT
ATOM      1  C   LIG    1       25.818 -16.593   3.281  0.00  0.00    +0.120 A 
ATOM      2  C   LIG    1       25.918 -17.983   3.231  0.00  0.00    +0.046 A 
ATOM      3  C   LIG    1       24.851 -18.784   3.647  0.00  0.00    +0.007 A 
ATOM      4  C   LIG    1       23.662 -18.199   4.097  0.00  0.00    -0.046 A 
ATOM      5  C   LIG    1       23.562 -16.804   4.129  0.00  0.00    +0.007 A 
ATOM      6  C   LIG    1       24.624 -16.008   3.705  0.00  0.00    +0.046 A 
ENDROOT
BRANCH   1   7
ATOM      7  O   LIG    1       26.926 -15.897   2.875  0.00  0.00    -0.492 OA
BRANCH   7   8
ATOM      8  C   LIG    1       27.711 -15.355   3.947  0.00  0.00    +0.235 C 
BRANCH   8   9
ATOM      9  C   LIG    1       27.783 -13.836   3.854  0.00  0.00    +0.096 C 
BRANCH   9  13
ATOM     10  C   LIG    1       23.962 -12.085   4.584  0.00  0.00    -0.029 A 
ATOM     11  C   LIG    1       24.907 -12.302   5.582  0.00  0.00    +0.114 A 
ATOM     12  N   LIG    1       26.126 -12.857   5.373  0.00  0.00    -0.260 NA
ATOM     13  C   LIG    1       26.434 -13.208   4.101  0.00  0.00    +0.044 A 
ATOM     14  C   LIG    1       25.548 -13.033   3.042  0.00  0.00    +0.024 A 
ATOM     15  C   LIG    1       24.305 -12.458   3.286  0.00  0.00    +0.007 A 
BRANCH  10  17
ATOM     16  C   LIG    1       22.331 -11.454   6.374  0.00  0.00    +0.009 C 
ATOM     17  C   LIG    1       22.635 -11.449   4.884  0.00  0.00    +0.033 C 
ENDBRANCH  10  17
ENDBRANCH   9  13
ENDBRANCH   8   9
ENDBRANCH   7   8
ENDBRANCH   1   7
BRANCH   4  18
ATOM     18  C   LIG    1       22.471 -19.042   4.485  0.00  0.00    +0.059 C 
BRANCH  18  19
ATOM     19  C   LIG    1       22.816 -20.389   5.132  0.00  0.00    +0.146 C 
ATOM     20  C   LIG    1       23.778 -21.213   4.299  0.00  0.00    +0.234 C 
ATOM     21  O   LIG    1       23.600 -21.531   3.137  0.00  0.00    -0.274 OA
ATOM     22  N   LIG    1       24.886 -21.572   5.012  0.00  0.00    -0.246 N 
ATOM     23  H   LIG    1       25.627 -22.101   4.580  0.00  0.00    +0.158 HD
ATOM     24  C   LIG    1       25.008 -21.159   6.298  0.00  0.00    +0.279 C 
ATOM     25  O   LIG    1       25.954 -21.364   7.019  0.00  0.00    -0.263 OA
ATOM     26  S   LIG    1       23.588 -20.267   6.784  0.00  0.00    -0.054 S 
ENDBRANCH  18  19
ENDBRANCH   4  18
TORSDOF 7
ENDMDL
