MODEL 1
REMARK VINA RESULT:      -6.6      0.000      0.000
REMARK  Name = *****
REMARK                            x       y       z     vdW  Elec       q    Type
REMARK                         _______ _______ _______ _____ _____    ______ ____
ROOT
ATOM      1  C   LIG    1       25.086 -30.023   7.452  0.00  0.00    +0.182 C 
ATOM      2  C   LIG    1       24.303 -30.793   6.360  0.00  0.00    +0.163 C 
ATOM      3  C   LIG    1       23.971 -32.242   6.687  0.00  0.00    +0.084 C 
ATOM      4  C   LIG    1       23.203 -32.271   7.989  0.00  0.00    +0.042 C 
ATOM      5  C   LIG    1       24.154 -31.868   9.112  0.00  0.00    +0.084 C 
ATOM      6  C   LIG    1       24.785 -30.450   8.939  0.00  0.00    +0.169 C 
ENDROOT
BRANCH   3   7
ATOM      7  N   LIG    1       23.190 -32.808   5.573  0.00  0.00    -0.325 NA
ATOM      8  H   LIG    1       23.677 -32.640   4.691  0.00  0.00    +0.118 HD
ATOM      9  H   LIG    1       23.118 -33.822   5.668  0.00  0.00    +0.118 HD
ENDBRANCH   3   7
BRANCH   5  10
ATOM     10  N   LIG    1       23.397 -31.997  10.379  0.00  0.00    -0.325 NA
ATOM     11  H   LIG    1       23.941 -31.581  11.139  0.00  0.00    +0.118 HD
ATOM     12  H   LIG    1       23.305 -32.987  10.618  0.00  0.00    +0.118 HD
ENDBRANCH   5  10
BRANCH   2  13
ATOM     13  O   LIG    1       25.049 -30.815   5.129  0.00  0.00    -0.388 OA
ATOM     14  H   LIG    1       25.937 -31.149   5.371  0.00  0.00    +0.210 HD
ENDBRANCH   2  13
BRANCH   6  15
ATOM     15  O   LIG    1       26.047 -30.335   9.666  0.00  0.00    -0.342 OA
BRANCH  15  16
ATOM     16  C   LIG    1       26.016 -29.744  10.980  0.00  0.00    +0.270 C 
ATOM     17  C   LIG    1       27.333 -28.975  11.303  0.00  0.00    +0.139 C 
ATOM     18  C   LIG    1       27.259 -28.430  12.745  0.00  0.00    +0.167 C 
ATOM     19  C   LIG    1       26.985 -29.565  13.739  0.00  0.00    +0.175 C 
ATOM     20  C   LIG    1       25.749 -30.388  13.321  0.00  0.00    +0.178 C 
ATOM     21  O   LIG    1       25.800 -30.804  11.937  0.00  0.00    -0.342 OA
BRANCH  17  22
ATOM     22  N   LIG    1       28.544 -29.801  11.064  0.00  0.00    -0.321 NA
ATOM     23  H   LIG    1       28.426 -30.673  11.596  0.00  0.00    +0.119 HD
ATOM     24  H   LIG    1       28.504 -30.105  10.085  0.00  0.00    +0.119 HD
ENDBRANCH  17  22
BRANCH  19  25
ATOM     25  O   LIG    1       28.145 -30.415  13.795  0.00  0.00    -0.387 OA
ATOM     26  H   LIG    1       27.862 -31.283  14.135  0.00  0.00    +0.210 HD
ENDBRANCH  19  25
BRANCH  18  27
ATOM     27  O   LIG    1       26.239 -27.430  12.865  0.00  0.00    -0.387 OA
ATOM     28  H   LIG    1       25.559 -27.774  13.474  0.00  0.00    +0.210 HD
ENDBRANCH  18  27
BRANCH  20  29
ATOM     29  C   LIG    1       24.424 -29.685  13.671  0.00  0.00    +0.190 C 
BRANCH  29  30
ATOM     30  O   LIG    1       23.322 -30.402  13.113  0.00  0.00    -0.392 OA
ATOM     31  H   LIG    1       22.970 -29.846  12.391  0.00  0.00    +0.209 HD
ENDBRANCH  29  30
ENDBRANCH  20  29
ENDBRANCH  15  16
ENDBRANCH   6  15
BRANCH   1  32
ATOM     32  O   LIG    1       24.756 -28.603   7.378  0.00  0.00    -0.340 OA
BRANCH  32  35
ATOM     33  C   LIG    1       25.699 -26.116   5.845  0.00  0.00    +0.186 C 
ATOM     34  C   LIG    1       24.276 -26.633   6.104  0.00  0.00    +0.202 C 
ATOM     35  C   LIG    1       24.509 -28.133   6.055  0.00  0.00    +0.282 C 
ATOM     36  O   LIG    1       25.628 -28.367   5.186  0.00  0.00    -0.341 OA
ATOM     37  C   LIG    1       26.145 -27.086   4.756  0.00  0.00    +0.178 C 
BRANCH  34  38
ATOM     38  O   LIG    1       23.300 -26.396   5.076  0.00  0.00    -0.384 OA
ATOM     39  H   LIG    1       23.842 -26.049   4.334  0.00  0.00    +0.210 HD
ENDBRANCH  34  38
BRANCH  33  40
ATOM     40  O   LIG    1       25.934 -24.713   5.687  0.00  0.00    -0.341 OA
BRANCH  40  45
ATOM     41  C   LIG    1       26.855 -21.870   7.614  0.00  0.00    +0.166 C 
ATOM     42  C   LIG    1       26.113 -20.938   6.649  0.00  0.00    +0.175 C 
ATOM     43  C   LIG    1       24.939 -21.684   5.951  0.00  0.00    +0.167 C 
ATOM     44  C   LIG    1       24.540 -22.967   6.724  0.00  0.00    +0.139 C 
ATOM     45  C   LIG    1       25.811 -23.882   6.841  0.00  0.00    +0.270 C 
ATOM     46  O   LIG    1       26.991 -23.092   6.894  0.00  0.00    -0.343 OA
BRANCH  44  47
ATOM     47  N   LIG    1       23.343 -23.624   6.158  0.00  0.00    -0.321 NA
ATOM     48  H   LIG    1       22.541 -23.026   6.379  0.00  0.00    +0.119 HD
ATOM     49  H   LIG    1       23.421 -23.622   5.140  0.00  0.00    +0.119 HD
ENDBRANCH  44  47
BRANCH  43  50
ATOM     50  O   LIG    1       23.819 -20.797   5.828  0.00  0.00    -0.387 OA
ATOM     51  H   LIG    1       23.157 -21.267   5.283  0.00  0.00    +0.210 HD
ENDBRANCH  43  50
BRANCH  42  52
ATOM     52  O   LIG    1       26.994 -20.473   5.607  0.00  0.00    -0.387 OA
ATOM     53  H   LIG    1       26.439 -20.051   4.932  0.00  0.00    +0.210 HD
ENDBRANCH  42  52
BRANCH  41  54
ATOM     54  C   LIG    1       28.274 -21.400   8.002  0.00  0.00    +0.112 C 
BRANCH  54  55
ATOM     55  N   LIG    1       28.304 -19.960   8.308  0.00  0.00    -0.328 NA
ATOM     56  H   LIG    1       27.695 -19.439   7.662  0.00  0.00    +0.118 HD
ATOM     57  H   LIG    1       27.890 -19.801   9.226  0.00  0.00    +0.118 HD
ENDBRANCH  54  55
ENDBRANCH  41  54
ENDBRANCH  40  45
ENDBRANCH  33  40
BRANCH  37  58
ATOM     58  C   LIG    1       27.653 -27.198   4.573  0.00  0.00    +0.190 C 
BRANCH  58  59
ATOM     59  O   LIG    1       28.309 -26.727   5.754  0.00  0.00    -0.392 OA
ATOM     60  H   LIG    1       29.158 -26.340   5.480  0.00  0.00    +0.209 HD
ENDBRANCH  58  59
ENDBRANCH  37  58
ENDBRANCH  32  35
ENDBRANCH   1  32
TORSDOF 22
ENDMDL
MODEL 2
REMARK VINA RESULT:      -6.6      1.629      2.017
REMARK  Name = *****
REMARK                            x       y       z     vdW  Elec       q    Type
REMARK                         _______ _______ _______ _____ _____    ______ ____
ROOT
ATOM      1  C   LIG    1       25.684 -30.364   8.473  0.00  0.00    +0.182 C 
ATOM      2  C   LIG    1       25.628 -31.335   7.267  0.00  0.00    +0.163 C 
ATOM      3  C   LIG    1       24.810 -32.601   7.480  0.00  0.00    +0.084 C 
ATOM      4  C   LIG    1       23.410 -32.199   7.885  0.00  0.00    +0.042 C 
ATOM      5  C   LIG    1       23.474 -31.585   9.280  0.00  0.00    +0.084 C 
ATOM      6  C   LIG    1       24.402 -30.333   9.387  0.00  0.00    +0.169 C 
ENDROOT
BRANCH   3   7
ATOM      7  N   LIG    1       24.821 -33.383   6.231  0.00  0.00    -0.325 NA
ATOM      8  H   LIG    1       24.887 -34.379   6.449  0.00  0.00    +0.118 HD
ATOM      9  H   LIG    1       23.940 -33.261   5.728  0.00  0.00    +0.118 HD
ENDBRANCH   3   7
BRANCH   5  10
ATOM     10  N   LIG    1       22.079 -31.290   9.682  0.00  0.00    -0.325 NA
ATOM     11  H   LIG    1       21.667 -30.640   9.009  0.00  0.00    +0.118 HD
ATOM     12  H   LIG    1       22.083 -30.795  10.577  0.00  0.00    +0.118 HD
ENDBRANCH   5  10
BRANCH   2  13
ATOM     13  O   LIG    1       26.954 -31.763   6.906  0.00  0.00    -0.388 OA
ATOM     14  H   LIG    1       27.284 -32.262   7.680  0.00  0.00    +0.210 HD
ENDBRANCH   2  13
BRANCH   6  15
ATOM     15  O   LIG    1       24.872 -30.132  10.754  0.00  0.00    -0.342 OA
BRANCH  15  16
ATOM     16  C   LIG    1       24.025 -29.394  11.657  0.00  0.00    +0.270 C 
ATOM     17  C   LIG    1       24.850 -28.652  12.753  0.00  0.00    +0.139 C 
ATOM     18  C   LIG    1       23.880 -27.944  13.722  0.00  0.00    +0.167 C 
ATOM     19  C   LIG    1       22.882 -28.944  14.317  0.00  0.00    +0.175 C 
ATOM     20  C   LIG    1       22.175 -29.754  13.211  0.00  0.00    +0.178 C 
ATOM     21  O   LIG    1       23.104 -30.327  12.262  0.00  0.00    -0.342 OA
BRANCH  17  22
ATOM     22  N   LIG    1       25.802 -29.553  13.452  0.00  0.00    -0.321 NA
ATOM     23  H   LIG    1       25.563 -29.528  14.453  0.00  0.00    +0.119 HD
ATOM     24  H   LIG    1       25.565 -30.510  13.168  0.00  0.00    +0.119 HD
ENDBRANCH  17  22
BRANCH  19  25
ATOM     25  O   LIG    1       23.594 -29.832  15.197  0.00  0.00    -0.387 OA
ATOM     26  H   LIG    1       23.055 -30.637  15.308  0.00  0.00    +0.210 HD
ENDBRANCH  19  25
BRANCH  18  27
ATOM     27  O   LIG    1       23.167 -26.892  13.058  0.00  0.00    -0.387 OA
ATOM     28  H   LIG    1       22.697 -27.287  12.300  0.00  0.00    +0.210 HD
ENDBRANCH  18  27
BRANCH  20  29
ATOM     29  C   LIG    1       21.052 -28.958  12.521  0.00  0.00    +0.190 C 
BRANCH  29  30
ATOM     30  O   LIG    1       20.282 -29.817  11.679  0.00  0.00    -0.392 OA
ATOM     31  H   LIG    1       19.518 -30.111  12.212  0.00  0.00    +0.209 HD
ENDBRANCH  29  30
ENDBRANCH  20  29
ENDBRANCH  15  16
ENDBRANCH   6  15
BRANCH   1  32
ATOM     32  O   LIG    1       25.854 -28.997   7.989  0.00  0.00    -0.340 OA
BRANCH  32  35
ATOM     33  C   LIG    1       25.823 -26.560   6.123  0.00  0.00    +0.186 C 
ATOM     34  C   LIG    1       24.659 -27.291   6.808  0.00  0.00    +0.202 C 
ATOM     35  C   LIG    1       25.166 -28.722   6.772  0.00  0.00    +0.282 C 
ATOM     36  O   LIG    1       26.028 -28.845   5.630  0.00  0.00    -0.341 OA
ATOM     37  C   LIG    1       26.139 -27.545   5.003  0.00  0.00    +0.178 C 
BRANCH  34  38
ATOM     38  O   LIG    1       23.412 -27.341   6.096  0.00  0.00    -0.384 OA
ATOM     39  H   LIG    1       22.919 -28.049   6.566  0.00  0.00    +0.210 HD
ENDBRANCH  34  38
BRANCH  33  40
ATOM     40  O   LIG    1       25.719 -25.162   5.832  0.00  0.00    -0.341 OA
BRANCH  40  45
ATOM     41  C   LIG    1       26.414 -22.098   7.497  0.00  0.00    +0.166 C 
ATOM     42  C   LIG    1       25.529 -21.326   6.510  0.00  0.00    +0.175 C 
ATOM     43  C   LIG    1       24.413 -22.244   5.934  0.00  0.00    +0.167 C 
ATOM     44  C   LIG    1       24.193 -23.499   6.818  0.00  0.00    +0.139 C 
ATOM     45  C   LIG    1       25.561 -24.262   6.929  0.00  0.00    +0.270 C 
ATOM     46  O   LIG    1       26.648 -23.350   6.860  0.00  0.00    -0.343 OA
BRANCH  44  47
ATOM     47  N   LIG    1       23.050 -24.319   6.367  0.00  0.00    -0.321 NA
ATOM     48  H   LIG    1       22.297 -24.184   7.049  0.00  0.00    +0.119 HD
ATOM     49  H   LIG    1       22.701 -23.938   5.486  0.00  0.00    +0.119 HD
ENDBRANCH  44  47
BRANCH  43  50
ATOM     50  O   LIG    1       23.198 -21.492   5.810  0.00  0.00    -0.387 OA
ATOM     51  H   LIG    1       22.477 -22.091   6.088  0.00  0.00    +0.210 HD
ENDBRANCH  43  50
BRANCH  42  52
ATOM     52  O   LIG    1       26.303 -20.852   5.390  0.00  0.00    -0.387 OA
ATOM     53  H   LIG    1       26.948 -21.545   5.176  0.00  0.00    +0.210 HD
ENDBRANCH  42  52
BRANCH  41  54
ATOM     54  C   LIG    1       27.790 -21.452   7.770  0.00  0.00    +0.112 C 
BRANCH  54  55
ATOM     55  N   LIG    1       27.654 -20.063   8.240  0.00  0.00    -0.328 NA
ATOM     56  H   LIG    1       26.999 -20.010   9.031  0.00  0.00    +0.118 HD
ATOM     57  H   LIG    1       28.543 -19.749   8.629  0.00  0.00    +0.118 HD
ENDBRANCH  54  55
ENDBRANCH  41  54
ENDBRANCH  40  45
ENDBRANCH  33  40
BRANCH  37  58
ATOM     58  C   LIG    1       27.531 -27.406   4.398  0.00  0.00    +0.190 C 
BRANCH  58  59
ATOM     59  O   LIG    1       28.424 -26.879   5.384  0.00  0.00    -0.392 OA
ATOM     60  H   LIG    1       27.994 -26.104   5.781  0.00  0.00    +0.209 HD
ENDBRANCH  58  59
ENDBRANCH  37  58
ENDBRANCH  32  35
ENDBRANCH   1  32
TORSDOF 22
ENDMDL
MODEL 3
REMARK VINA RESULT:      -6.6      1.247      1.736
REMARK  Name = *****
REMARK                            x       y       z     vdW  Elec       q    Type
REMARK                         _______ _______ _______ _____ _____    ______ ____
ROOT
ATOM      1  C   LIG    1       25.562 -30.019   8.227  0.00  0.00    +0.182 C 
ATOM      2  C   LIG    1       24.560 -30.766   7.312  0.00  0.00    +0.163 C 
ATOM      3  C   LIG    1       23.952 -32.033   7.898  0.00  0.00    +0.084 C 
ATOM      4  C   LIG    1       23.287 -31.677   9.208  0.00  0.00    +0.042 C 
ATOM      5  C   LIG    1       24.376 -31.315  10.213  0.00  0.00    +0.084 C 
ATOM      6  C   LIG    1       25.281 -30.119   9.774  0.00  0.00    +0.169 C 
ENDROOT
BRANCH   3   7
ATOM      7  N   LIG    1       22.994 -32.587   6.925  0.00  0.00    -0.325 NA
ATOM      8  H   LIG    1       22.929 -33.600   7.045  0.00  0.00    +0.118 HD
ATOM      9  H   LIG    1       22.057 -32.221   7.101  0.00  0.00    +0.118 HD
ENDBRANCH   3   7
BRANCH   5  10
ATOM     10  N   LIG    1       23.698 -31.064  11.506  0.00  0.00    -0.325 NA
ATOM     11  H   LIG    1       24.289 -31.409  12.267  0.00  0.00    +0.118 HD
ATOM     12  H   LIG    1       22.841 -31.619  11.551  0.00  0.00    +0.118 HD
ENDBRANCH   5  10
BRANCH   2  13
ATOM     13  O   LIG    1       25.198 -31.154   6.081  0.00  0.00    -0.388 OA
ATOM     14  H   LIG    1       25.282 -30.329   5.562  0.00  0.00    +0.210 HD
ENDBRANCH   2  13
BRANCH   6  15
ATOM     15  O   LIG    1       26.584 -30.168  10.430  0.00  0.00    -0.342 OA
BRANCH  15  16
ATOM     16  C   LIG    1       26.806 -29.294  11.555  0.00  0.00    +0.270 C 
ATOM     17  C   LIG    1       27.233 -30.084  12.829  0.00  0.00    +0.139 C 
ATOM     18  C   LIG    1       27.384 -29.099  14.007  0.00  0.00    +0.167 C 
ATOM     19  C   LIG    1       26.090 -28.305  14.218  0.00  0.00    +0.175 C 
ATOM     20  C   LIG    1       25.622 -27.640  12.907  0.00  0.00    +0.178 C 
ATOM     21  O   LIG    1       25.583 -28.566  11.798  0.00  0.00    -0.342 OA
BRANCH  17  22
ATOM     22  N   LIG    1       26.310 -31.207  13.136  0.00  0.00    -0.321 NA
ATOM     23  H   LIG    1       26.091 -31.671  12.243  0.00  0.00    +0.119 HD
ATOM     24  H   LIG    1       26.858 -31.908  13.647  0.00  0.00    +0.119 HD
ENDBRANCH  17  22
BRANCH  19  25
ATOM     25  O   LIG    1       25.075 -29.203  14.702  0.00  0.00    -0.387 OA
ATOM     26  H   LIG    1       24.212 -28.869  14.396  0.00  0.00    +0.210 HD
ENDBRANCH  19  25
BRANCH  18  27
ATOM     27  O   LIG    1       28.473 -28.193  13.784  0.00  0.00    -0.387 OA
ATOM     28  H   LIG    1       28.537 -27.612  14.565  0.00  0.00    +0.210 HD
ENDBRANCH  18  27
BRANCH  20  29
ATOM     29  C   LIG    1       26.418 -26.364  12.574  0.00  0.00    +0.190 C 
BRANCH  29  30
ATOM     30  O   LIG    1       26.793 -25.688  13.776  0.00  0.00    -0.392 OA
ATOM     31  H   LIG    1       27.739 -25.885  13.918  0.00  0.00    +0.209 HD
ENDBRANCH  29  30
ENDBRANCH  20  29
ENDBRANCH  15  16
ENDBRANCH   6  15
BRANCH   1  32
ATOM     32  O   LIG    1       25.536 -28.593   7.915  0.00  0.00    -0.340 OA
BRANCH  32  35
ATOM     33  C   LIG    1       25.887 -26.195   6.032  0.00  0.00    +0.186 C 
ATOM     34  C   LIG    1       24.605 -26.825   6.596  0.00  0.00    +0.202 C 
ATOM     35  C   LIG    1       25.002 -28.290   6.629  0.00  0.00    +0.282 C 
ATOM     36  O   LIG    1       25.969 -28.497   5.587  0.00  0.00    -0.341 OA
ATOM     37  C   LIG    1       26.244 -27.221   4.962  0.00  0.00    +0.178 C 
BRANCH  34  38
ATOM     38  O   LIG    1       23.440 -26.796   5.756  0.00  0.00    -0.384 OA
ATOM     39  H   LIG    1       23.418 -25.865   5.443  0.00  0.00    +0.210 HD
ENDBRANCH  34  38
BRANCH  33  40
ATOM     40  O   LIG    1       25.920 -24.799   5.718  0.00  0.00    -0.341 OA
BRANCH  40  45
ATOM     41  C   LIG    1       26.575 -21.704   7.343  0.00  0.00    +0.166 C 
ATOM     42  C   LIG    1       25.754 -20.945   6.293  0.00  0.00    +0.175 C 
ATOM     43  C   LIG    1       24.655 -21.861   5.681  0.00  0.00    +0.167 C 
ATOM     44  C   LIG    1       24.371 -23.090   6.582  0.00  0.00    +0.139 C 
ATOM     45  C   LIG    1       25.719 -23.870   6.783  0.00  0.00    +0.270 C 
ATOM     46  O   LIG    1       26.822 -22.975   6.749  0.00  0.00    -0.343 OA
BRANCH  44  47
ATOM     47  N   LIG    1       23.240 -23.905   6.092  0.00  0.00    -0.321 NA
ATOM     48  H   LIG    1       22.391 -23.344   6.213  0.00  0.00    +0.119 HD
ATOM     49  H   LIG    1       23.346 -24.039   5.085  0.00  0.00    +0.119 HD
ENDBRANCH  44  47
BRANCH  43  50
ATOM     50  O   LIG    1       23.460 -21.095   5.476  0.00  0.00    -0.387 OA
ATOM     51  H   LIG    1       22.805 -21.434   6.118  0.00  0.00    +0.210 HD
ENDBRANCH  43  50
BRANCH  42  52
ATOM     52  O   LIG    1       26.593 -20.510   5.204  0.00  0.00    -0.387 OA
ATOM     53  H   LIG    1       26.088 -20.640   4.386  0.00  0.00    +0.210 HD
ENDBRANCH  42  52
BRANCH  41  54
ATOM     54  C   LIG    1       27.944 -21.071   7.672  0.00  0.00    +0.112 C 
BRANCH  54  55
ATOM     55  N   LIG    1       28.949 -21.385   6.643  0.00  0.00    -0.328 NA
ATOM     56  H   LIG    1       29.573 -22.138   6.964  0.00  0.00    +0.118 HD
ATOM     57  H   LIG    1       28.484 -21.776   5.824  0.00  0.00    +0.118 HD
ENDBRANCH  54  55
ENDBRANCH  41  54
ENDBRANCH  40  45
ENDBRANCH  33  40
BRANCH  37  58
ATOM     58  C   LIG    1       27.698 -27.197   4.508  0.00  0.00    +0.190 C 
BRANCH  58  59
ATOM     59  O   LIG    1       28.528 -26.785   5.599  0.00  0.00    -0.392 OA
ATOM     60  H   LIG    1       28.043 -26.973   6.420  0.00  0.00    +0.209 HD
ENDBRANCH  58  59
ENDBRANCH  37  58
ENDBRANCH  32  35
ENDBRANCH   1  32
TORSDOF 22
ENDMDL
MODEL 4
REMARK VINA RESULT:      -6.5      1.873      3.203
REMARK  Name = *****
REMARK                            x       y       z     vdW  Elec       q    Type
REMARK                         _______ _______ _______ _____ _____    ______ ____
ROOT
ATOM      1  C   LIG    1       25.454 -30.273   8.741  0.00  0.00    +0.182 C 
ATOM      2  C   LIG    1       26.663 -31.232   8.613  0.00  0.00    +0.163 C 
ATOM      3  C   LIG    1       26.322 -32.714   8.541  0.00  0.00    +0.084 C 
ATOM      4  C   LIG    1       25.371 -32.926   7.385  0.00  0.00    +0.042 C 
ATOM      5  C   LIG    1       24.037 -32.277   7.740  0.00  0.00    +0.084 C 
ATOM      6  C   LIG    1       24.128 -30.745   8.034  0.00  0.00    +0.169 C 
ENDROOT
BRANCH   3   7
ATOM      7  N   LIG    1       27.573 -33.476   8.375  0.00  0.00    -0.325 NA
ATOM      8  H   LIG    1       27.674 -33.762   7.399  0.00  0.00    +0.118 HD
ATOM      9  H   LIG    1       28.379 -32.884   8.582  0.00  0.00    +0.118 HD
ENDBRANCH   3   7
BRANCH   5  10
ATOM     10  N   LIG    1       23.105 -32.584   6.630  0.00  0.00    -0.325 NA
ATOM     11  H   LIG    1       22.584 -33.436   6.855  0.00  0.00    +0.118 HD
ATOM     12  H   LIG    1       23.642 -32.804   5.789  0.00  0.00    +0.118 HD
ENDBRANCH   5  10
BRANCH   2  13
ATOM     13  O   LIG    1       27.550 -31.073   9.736  0.00  0.00    -0.388 OA
ATOM     14  H   LIG    1       26.993 -30.717  10.457  0.00  0.00    +0.210 HD
ENDBRANCH   2  13
BRANCH   6  15
ATOM     15  O   LIG    1       23.025 -30.299   8.880  0.00  0.00    -0.342 OA
BRANCH  15  16
ATOM     16  C   LIG    1       23.004 -30.744  10.251  0.00  0.00    +0.270 C 
ATOM     17  C   LIG    1       21.710 -31.548  10.582  0.00  0.00    +0.139 C 
ATOM     18  C   LIG    1       21.721 -31.930  12.076  0.00  0.00    +0.167 C 
ATOM     19  C   LIG    1       21.875 -30.682  12.954  0.00  0.00    +0.175 C 
ATOM     20  C   LIG    1       23.091 -29.839  12.518  0.00  0.00    +0.178 C 
ATOM     21  O   LIG    1       23.105 -29.577  11.097  0.00  0.00    -0.342 OA
BRANCH  17  22
ATOM     22  N   LIG    1       20.476 -30.822  10.185  0.00  0.00    -0.321 NA
ATOM     23  H   LIG    1       19.682 -31.323  10.607  0.00  0.00    +0.119 HD
ATOM     24  H   LIG    1       20.489 -29.924  10.681  0.00  0.00    +0.119 HD
ENDBRANCH  17  22
BRANCH  19  25
ATOM     25  O   LIG    1       20.672 -29.899  12.851  0.00  0.00    -0.387 OA
ATOM     26  H   LIG    1       19.922 -30.475  13.085  0.00  0.00    +0.210 HD
ENDBRANCH  19  25
BRANCH  18  27
ATOM     27  O   LIG    1       22.781 -32.852  12.363  0.00  0.00    -0.387 OA
ATOM     28  H   LIG    1       23.173 -33.124  11.512  0.00  0.00    +0.210 HD
ENDBRANCH  18  27
BRANCH  20  29
ATOM     29  C   LIG    1       24.426 -30.424  13.018  0.00  0.00    +0.190 C 
BRANCH  29  30
ATOM     30  O   LIG    1       24.248 -31.043  14.292  0.00  0.00    -0.392 OA
ATOM     31  H   LIG    1       25.078 -31.520  14.485  0.00  0.00    +0.209 HD
ENDBRANCH  29  30
ENDBRANCH  20  29
ENDBRANCH  15  16
ENDBRANCH   6  15
BRANCH   1  32
ATOM     32  O   LIG    1       25.786 -28.988   8.132  0.00  0.00    -0.340 OA
BRANCH  32  35
ATOM     33  C   LIG    1       25.782 -26.590   6.215  0.00  0.00    +0.186 C 
ATOM     34  C   LIG    1       24.610 -27.297   6.911  0.00  0.00    +0.202 C 
ATOM     35  C   LIG    1       25.104 -28.732   6.906  0.00  0.00    +0.282 C 
ATOM     36  O   LIG    1       25.970 -28.887   5.771  0.00  0.00    -0.341 OA
ATOM     37  C   LIG    1       26.094 -27.601   5.117  0.00  0.00    +0.178 C 
BRANCH  34  38
ATOM     38  O   LIG    1       23.365 -27.352   6.195  0.00  0.00    -0.384 OA
ATOM     39  H   LIG    1       22.714 -27.043   6.862  0.00  0.00    +0.210 HD
ENDBRANCH  34  38
BRANCH  33  40
ATOM     40  O   LIG    1       25.692 -25.198   5.895  0.00  0.00    -0.341 OA
BRANCH  40  45
ATOM     41  C   LIG    1       26.417 -22.114   7.510  0.00  0.00    +0.166 C 
ATOM     42  C   LIG    1       25.560 -21.347   6.496  0.00  0.00    +0.175 C 
ATOM     43  C   LIG    1       24.435 -22.257   5.921  0.00  0.00    +0.167 C 
ATOM     44  C   LIG    1       24.181 -23.490   6.826  0.00  0.00    +0.139 C 
ATOM     45  C   LIG    1       25.534 -24.274   6.971  0.00  0.00    +0.270 C 
ATOM     46  O   LIG    1       26.638 -23.383   6.900  0.00  0.00    -0.343 OA
BRANCH  44  47
ATOM     47  N   LIG    1       23.030 -24.299   6.375  0.00  0.00    -0.321 NA
ATOM     48  H   LIG    1       22.691 -23.878   5.505  0.00  0.00    +0.119 HD
ATOM     49  H   LIG    1       23.365 -25.230   6.123  0.00  0.00    +0.119 HD
ENDBRANCH  44  47
BRANCH  43  50
ATOM     50  O   LIG    1       23.235 -21.486   5.766  0.00  0.00    -0.387 OA
ATOM     51  H   LIG    1       23.027 -21.124   6.650  0.00  0.00    +0.210 HD
ENDBRANCH  43  50
BRANCH  42  52
ATOM     52  O   LIG    1       26.357 -20.908   5.378  0.00  0.00    -0.387 OA
ATOM     53  H   LIG    1       25.825 -20.267   4.882  0.00  0.00    +0.210 HD
ENDBRANCH  42  52
BRANCH  41  54
ATOM     54  C   LIG    1       27.800 -21.487   7.790  0.00  0.00    +0.112 C 
BRANCH  54  55
ATOM     55  N   LIG    1       27.681 -20.095   8.255  0.00  0.00    -0.328 NA
ATOM     56  H   LIG    1       27.135 -19.535   7.586  0.00  0.00    +0.118 HD
ATOM     57  H   LIG    1       27.128 -20.071   9.112  0.00  0.00    +0.118 HD
ENDBRANCH  54  55
ENDBRANCH  41  54
ENDBRANCH  40  45
ENDBRANCH  33  40
BRANCH  37  58
ATOM     58  C   LIG    1       27.490 -27.487   4.515  0.00  0.00    +0.190 C 
BRANCH  58  59
ATOM     59  O   LIG    1       28.359 -26.849   5.455  0.00  0.00    -0.392 OA
ATOM     60  H   LIG    1       28.723 -27.542   6.032  0.00  0.00    +0.209 HD
ENDBRANCH  58  59
ENDBRANCH  37  58
ENDBRANCH  32  35
ENDBRANCH   1  32
TORSDOF 22
ENDMDL
MODEL 5
REMARK VINA RESULT:      -6.4      5.415      9.825
REMARK  Name = *****
REMARK                            x       y       z     vdW  Elec       q    Type
REMARK                         _______ _______ _______ _____ _____    ______ ____
ROOT
ATOM      1  C   LIG    1       24.323 -26.514  13.906  0.00  0.00    +0.182 C 
ATOM      2  C   LIG    1       24.929 -25.132  14.253  0.00  0.00    +0.163 C 
ATOM      3  C   LIG    1       26.445 -25.096  14.394  0.00  0.00    +0.084 C 
ATOM      4  C   LIG    1       27.052 -25.618  13.111  0.00  0.00    +0.042 C 
ATOM      5  C   LIG    1       26.747 -27.109  13.011  0.00  0.00    +0.084 C 
ATOM      6  C   LIG    1       25.222 -27.451  13.014  0.00  0.00    +0.169 C 
ENDROOT
BRANCH   3   7
ATOM      7  N   LIG    1       26.857 -23.709  14.676  0.00  0.00    -0.325 NA
ATOM      8  H   LIG    1       26.178 -23.060  14.275  0.00  0.00    +0.118 HD
ATOM      9  H   LIG    1       26.853 -23.535  15.682  0.00  0.00    +0.118 HD
ENDBRANCH   3   7
BRANCH   5  10
ATOM     10  N   LIG    1       27.434 -27.605  11.796  0.00  0.00    -0.325 NA
ATOM     11  H   LIG    1       26.990 -27.196  10.969  0.00  0.00    +0.118 HD
ATOM     12  H   LIG    1       27.290 -28.614  11.715  0.00  0.00    +0.118 HD
ENDBRANCH   5  10
BRANCH   2  13
ATOM     13  O   LIG    1       24.394 -24.649  15.500  0.00  0.00    -0.388 OA
ATOM     14  H   LIG    1       24.381 -25.427  16.094  0.00  0.00    +0.210 HD
ENDBRANCH   2  13
BRANCH   6  15
ATOM     15  O   LIG    1       24.984 -28.816  13.476  0.00  0.00    -0.342 OA
BRANCH  15  16
ATOM     16  C   LIG    1       24.681 -29.819  12.486  0.00  0.00    +0.270 C 
ATOM     17  C   LIG    1       25.497 -31.128  12.715  0.00  0.00    +0.139 C 
ATOM     18  C   LIG    1       25.177 -32.127  11.584  0.00  0.00    +0.167 C 
ATOM     19  C   LIG    1       25.451 -31.498  10.212  0.00  0.00    +0.175 C 
ATOM     20  C   LIG    1       24.732 -30.141  10.065  0.00  0.00    +0.178 C 
ATOM     21  O   LIG    1       24.973 -29.261  11.186  0.00  0.00    -0.342 OA
BRANCH  17  22
ATOM     22  N   LIG    1       26.953 -30.869  12.857  0.00  0.00    -0.321 NA
ATOM     23  H   LIG    1       27.414 -31.271  12.029  0.00  0.00    +0.119 HD
ATOM     24  H   LIG    1       27.085 -29.858  12.743  0.00  0.00    +0.119 HD
ENDBRANCH  17  22
BRANCH  19  25
ATOM     25  O   LIG    1       26.871 -31.320  10.066  0.00  0.00    -0.387 OA
ATOM     26  H   LIG    1       27.016 -30.565   9.468  0.00  0.00    +0.210 HD
ENDBRANCH  19  25
BRANCH  18  27
ATOM     27  O   LIG    1       23.811 -32.558  11.650  0.00  0.00    -0.387 OA
ATOM     28  H   LIG    1       23.732 -33.170  12.406  0.00  0.00    +0.210 HD
ENDBRANCH  18  27
BRANCH  20  29
ATOM     29  C   LIG    1       23.231 -30.298   9.757  0.00  0.00    +0.190 C 
BRANCH  29  30
ATOM     30  O   LIG    1       23.015 -31.432   8.916  0.00  0.00    -0.392 OA
ATOM     31  H   LIG    1       22.112 -31.338   8.555  0.00  0.00    +0.209 HD
ENDBRANCH  29  30
ENDBRANCH  20  29
ENDBRANCH  15  16
ENDBRANCH   6  15
BRANCH   1  32
ATOM     32  O   LIG    1       23.086 -26.327  13.153  0.00  0.00    -0.340 OA
BRANCH  32  35
ATOM     33  C   LIG    1       21.458 -28.924  13.326  0.00  0.00    +0.186 C 
ATOM     34  C   LIG    1       21.007 -27.500  12.967  0.00  0.00    +0.202 C 
ATOM     35  C   LIG    1       21.908 -26.682  13.874  0.00  0.00    +0.282 C 
ATOM     36  O   LIG    1       22.208 -27.488  15.024  0.00  0.00    -0.341 OA
ATOM     37  C   LIG    1       21.600 -28.788  14.838  0.00  0.00    +0.178 C 
BRANCH  34  38
ATOM     38  O   LIG    1       19.677 -27.120  13.357  0.00  0.00    -0.384 OA
ATOM     39  H   LIG    1       19.518 -27.668  14.157  0.00  0.00    +0.210 HD
ENDBRANCH  34  38
BRANCH  33  40
ATOM     40  O   LIG    1       20.773 -30.053  12.775  0.00  0.00    -0.341 OA
BRANCH  40  45
ATOM     41  C   LIG    1       17.356 -30.634  13.567  0.00  0.00    +0.166 C 
ATOM     42  C   LIG    1       17.194 -31.541  12.341  0.00  0.00    +0.175 C 
ATOM     43  C   LIG    1       18.550 -32.204  11.960  0.00  0.00    +0.167 C 
ATOM     44  C   LIG    1       19.555 -32.163  13.140  0.00  0.00    +0.139 C 
ATOM     45  C   LIG    1       19.751 -30.663  13.561  0.00  0.00    +0.270 C 
ATOM     46  O   LIG    1       18.564 -29.919  13.323  0.00  0.00    -0.343 OA
BRANCH  44  47
ATOM     47  N   LIG    1       20.802 -32.902  12.851  0.00  0.00    -0.321 NA
ATOM     48  H   LIG    1       20.987 -32.796  11.848  0.00  0.00    +0.119 HD
ATOM     49  H   LIG    1       21.575 -32.437  13.328  0.00  0.00    +0.119 HD
ENDBRANCH  44  47
BRANCH  43  50
ATOM     50  O   LIG    1       18.315 -33.555  11.540  0.00  0.00    -0.387 OA
ATOM     51  H   LIG    1       18.121 -34.063  12.353  0.00  0.00    +0.210 HD
ENDBRANCH  43  50
BRANCH  42  52
ATOM     52  O   LIG    1       16.763 -30.780  11.194  0.00  0.00    -0.387 OA
ATOM     53  H   LIG    1       17.215 -29.923  11.234  0.00  0.00    +0.210 HD
ENDBRANCH  42  52
BRANCH  41  54
ATOM     54  C   LIG    1       16.230 -29.594  13.752  0.00  0.00    +0.112 C 
BRANCH  54  55
ATOM     55  N   LIG    1       16.761 -28.222  13.807  0.00  0.00    -0.328 NA
ATOM     56  H   LIG    1       17.738 -28.198  13.484  0.00  0.00    +0.118 HD
ATOM     57  H   LIG    1       16.261 -27.638  13.137  0.00  0.00    +0.118 HD
ENDBRANCH  54  55
ENDBRANCH  41  54
ENDBRANCH  40  45
ENDBRANCH  33  40
BRANCH  37  58
ATOM     58  C   LIG    1       22.478 -29.843  15.499  0.00  0.00    +0.190 C 
BRANCH  58  59
ATOM     59  O   LIG    1       22.518 -31.011  14.673  0.00  0.00    -0.392 OA
ATOM     60  H   LIG    1       23.288 -31.535  14.947  0.00  0.00    +0.209 HD
ENDBRANCH  58  59
ENDBRANCH  37  58
ENDBRANCH  32  35
ENDBRANCH   1  32
TORSDOF 22
ENDMDL
MODEL 6
REMARK VINA RESULT:      -6.4      4.330      7.332
REMARK  Name = *****
REMARK                            x       y       z     vdW  Elec       q    Type
REMARK                         _______ _______ _______ _____ _____    ______ ____
ROOT
ATOM      1  C   LIG    1       21.933 -29.468  12.658  0.00  0.00    +0.182 C 
ATOM      2  C   LIG    1       20.509 -28.862  12.716  0.00  0.00    +0.163 C 
ATOM      3  C   LIG    1       20.334 -27.683  13.663  0.00  0.00    +0.084 C 
ATOM      4  C   LIG    1       21.333 -26.615  13.278  0.00  0.00    +0.042 C 
ATOM      5  C   LIG    1       22.731 -27.127  13.613  0.00  0.00    +0.084 C 
ATOM      6  C   LIG    1       23.117 -28.454  12.885  0.00  0.00    +0.169 C 
ENDROOT
BRANCH   3   7
ATOM      7  N   LIG    1       18.945 -27.201  13.562  0.00  0.00    -0.325 NA
ATOM      8  H   LIG    1       18.307 -27.914  13.919  0.00  0.00    +0.118 HD
ATOM      9  H   LIG    1       18.810 -26.379  14.152  0.00  0.00    +0.118 HD
ENDBRANCH   3   7
BRANCH   5  10
ATOM     10  N   LIG    1       23.673 -26.024  13.312  0.00  0.00    -0.325 NA
ATOM     11  H   LIG    1       23.333 -25.505  12.499  0.00  0.00    +0.118 HD
ATOM     12  H   LIG    1       24.574 -26.416  13.031  0.00  0.00    +0.118 HD
ENDBRANCH   5  10
BRANCH   2  13
ATOM     13  O   LIG    1       19.557 -29.860  13.131  0.00  0.00    -0.388 OA
ATOM     14  H   LIG    1       19.404 -30.416  12.340  0.00  0.00    +0.210 HD
ENDBRANCH   2  13
BRANCH   6  15
ATOM     15  O   LIG    1       24.152 -29.181  13.616  0.00  0.00    -0.342 OA
BRANCH  15  16
ATOM     16  C   LIG    1       25.528 -28.839  13.356  0.00  0.00    +0.270 C 
ATOM     17  C   LIG    1       25.753 -28.420  11.872  0.00  0.00    +0.139 C 
ATOM     18  C   LIG    1       27.253 -28.138  11.649  0.00  0.00    +0.167 C 
ATOM     19  C   LIG    1       28.099 -29.353  12.049  0.00  0.00    +0.175 C 
ATOM     20  C   LIG    1       27.760 -29.823  13.478  0.00  0.00    +0.178 C 
ATOM     21  O   LIG    1       26.339 -29.987  13.687  0.00  0.00    -0.342 OA
BRANCH  17  22
ATOM     22  N   LIG    1       25.209 -29.417  10.913  0.00  0.00    -0.321 NA
ATOM     23  H   LIG    1       24.653 -28.898  10.220  0.00  0.00    +0.119 HD
ATOM     24  H   LIG    1       26.005 -29.771  10.372  0.00  0.00    +0.119 HD
ENDBRANCH  17  22
BRANCH  19  25
ATOM     25  O   LIG    1       27.848 -30.414  11.110  0.00  0.00    -0.387 OA
ATOM     26  H   LIG    1       26.983 -30.244  10.694  0.00  0.00    +0.210 HD
ENDBRANCH  19  25
BRANCH  18  27
ATOM     27  O   LIG    1       27.677 -26.990  12.397  0.00  0.00    -0.387 OA
ATOM     28  H   LIG    1       28.653 -26.986  12.402  0.00  0.00    +0.210 HD
ENDBRANCH  18  27
BRANCH  20  29
ATOM     29  C   LIG    1       28.411 -28.942  14.561  0.00  0.00    +0.190 C 
BRANCH  29  30
ATOM     30  O   LIG    1       29.696 -28.494  14.126  0.00  0.00    -0.392 OA
ATOM     31  H   LIG    1       29.956 -29.079  13.389  0.00  0.00    +0.209 HD
ENDBRANCH  29  30
ENDBRANCH  20  29
ENDBRANCH  15  16
ENDBRANCH   6  15
BRANCH   1  32
ATOM     32  O   LIG    1       22.162 -30.048  11.338  0.00  0.00    -0.340 OA
BRANCH  32  35
ATOM     33  C   LIG    1       23.048 -32.138   9.272  0.00  0.00    +0.186 C 
ATOM     34  C   LIG    1       21.670 -31.905   9.909  0.00  0.00    +0.202 C 
ATOM     35  C   LIG    1       22.076 -31.470  11.305  0.00  0.00    +0.282 C 
ATOM     36  O   LIG    1       23.337 -32.089  11.600  0.00  0.00    -0.341 OA
ATOM     37  C   LIG    1       23.768 -32.823  10.429  0.00  0.00    +0.178 C 
BRANCH  34  38
ATOM     38  O   LIG    1       20.848 -33.064  10.126  0.00  0.00    -0.384 OA
ATOM     39  H   LIG    1       20.040 -32.860   9.607  0.00  0.00    +0.210 HD
ENDBRANCH  34  38
BRANCH  33  40
ATOM     40  O   LIG    1       23.145 -32.683   7.952  0.00  0.00    -0.341 OA
BRANCH  40  45
ATOM     41  C   LIG    1       24.699 -29.709   6.777  0.00  0.00    +0.166 C 
ATOM     42  C   LIG    1       26.088 -30.270   7.104  0.00  0.00    +0.175 C 
ATOM     43  C   LIG    1       26.087 -31.825   7.038  0.00  0.00    +0.167 C 
ATOM     44  C   LIG    1       24.876 -32.360   6.230  0.00  0.00    +0.139 C 
ATOM     45  C   LIG    1       23.565 -31.815   6.900  0.00  0.00    +0.270 C 
ATOM     46  O   LIG    1       23.799 -30.547   7.497  0.00  0.00    -0.343 OA
BRANCH  44  47
ATOM     47  N   LIG    1       24.923 -33.825   6.039  0.00  0.00    -0.321 NA
ATOM     48  H   LIG    1       25.782 -34.158   6.488  0.00  0.00    +0.119 HD
ATOM     49  H   LIG    1       24.153 -34.246   6.562  0.00  0.00    +0.119 HD
ENDBRANCH  44  47
BRANCH  43  50
ATOM     50  O   LIG    1       27.321 -32.276   6.461  0.00  0.00    -0.387 OA
ATOM     51  H   LIG    1       27.346 -33.244   6.593  0.00  0.00    +0.210 HD
ENDBRANCH  43  50
BRANCH  42  52
ATOM     52  O   LIG    1       26.486 -29.907   8.441  0.00  0.00    -0.387 OA
ATOM     53  H   LIG    1       26.268 -28.969   8.558  0.00  0.00    +0.210 HD
ENDBRANCH  42  52
BRANCH  41  54
ATOM     54  C   LIG    1       24.462 -28.259   7.249  0.00  0.00    +0.112 C 
BRANCH  54  55
ATOM     55  N   LIG    1       23.977 -27.402   6.154  0.00  0.00    -0.328 NA
ATOM     56  H   LIG    1       24.759 -27.104   5.554  0.00  0.00    +0.118 HD
ATOM     57  H   LIG    1       23.381 -27.951   5.534  0.00  0.00    +0.118 HD
ENDBRANCH  54  55
ENDBRANCH  41  54
ENDBRANCH  40  45
ENDBRANCH  33  40
BRANCH  37  58
ATOM     58  C   LIG    1       25.289 -32.783  10.353  0.00  0.00    +0.190 C 
BRANCH  58  59
ATOM     59  O   LIG    1       25.808 -32.222  11.563  0.00  0.00    -0.392 OA
ATOM     60  H   LIG    1       25.651 -32.866  12.273  0.00  0.00    +0.209 HD
ENDBRANCH  58  59
ENDBRANCH  37  58
ENDBRANCH  32  35
ENDBRANCH   1  32
TORSDOF 22
ENDMDL
MODEL 7
REMARK VINA RESULT:      -6.2      1.263      2.237
REMARK  Name = *****
REMARK                            x       y       z     vdW  Elec       q    Type
REMARK                         _______ _______ _______ _____ _____    ______ ____
ROOT
ATOM      1  C   LIG    1       24.884 -29.611   7.013  0.00  0.00    +0.182 C 
ATOM      2  C   LIG    1       24.294 -30.519   5.906  0.00  0.00    +0.163 C 
ATOM      3  C   LIG    1       24.503 -32.014   6.102  0.00  0.00    +0.084 C 
ATOM      4  C   LIG    1       23.929 -32.401   7.446  0.00  0.00    +0.042 C 
ATOM      5  C   LIG    1       24.802 -31.781   8.533  0.00  0.00    +0.084 C 
ATOM      6  C   LIG    1       24.900 -30.223   8.464  0.00  0.00    +0.169 C 
ENDROOT
BRANCH   3   7
ATOM      7  N   LIG    1       23.845 -32.729   4.994  0.00  0.00    -0.325 NA
ATOM      8  H   LIG    1       22.840 -32.546   5.015  0.00  0.00    +0.118 HD
ATOM      9  H   LIG    1       24.178 -32.376   4.095  0.00  0.00    +0.118 HD
ENDBRANCH   3   7
BRANCH   5  10
ATOM     10  N   LIG    1       24.268 -32.256   9.831  0.00  0.00    -0.325 NA
ATOM     11  H   LIG    1       25.049 -32.457  10.461  0.00  0.00    +0.118 HD
ATOM     12  H   LIG    1       23.788 -33.148   9.693  0.00  0.00    +0.118 HD
ENDBRANCH   5  10
BRANCH   2  13
ATOM     13  O   LIG    1       24.872 -30.192   4.628  0.00  0.00    -0.388 OA
ATOM     14  H   LIG    1       25.754 -30.616   4.628  0.00  0.00    +0.210 HD
ENDBRANCH   2  13
BRANCH   6  15
ATOM     15  O   LIG    1       26.119 -29.737   9.106  0.00  0.00    -0.342 OA
BRANCH  15  16
ATOM     16  C   LIG    1       26.000 -29.139  10.412  0.00  0.00    +0.270 C 
ATOM     17  C   LIG    1       27.390 -28.751  11.002  0.00  0.00    +0.139 C 
ATOM     18  C   LIG    1       27.195 -28.184  12.423  0.00  0.00    +0.167 C 
ATOM     19  C   LIG    1       26.442 -29.187  13.307  0.00  0.00    +0.175 C 
ATOM     20  C   LIG    1       25.133 -29.650  12.637  0.00  0.00    +0.178 C 
ATOM     21  O   LIG    1       25.331 -30.086  11.273  0.00  0.00    -0.342 OA
BRANCH  17  22
ATOM     22  N   LIG    1       28.357 -29.878  10.962  0.00  0.00    -0.321 NA
ATOM     23  H   LIG    1       28.014 -30.595  11.616  0.00  0.00    +0.119 HD
ATOM     24  H   LIG    1       28.256 -30.320  10.042  0.00  0.00    +0.119 HD
ENDBRANCH  17  22
BRANCH  19  25
ATOM     25  O   LIG    1       27.299 -30.318  13.548  0.00  0.00    -0.387 OA
ATOM     26  H   LIG    1       28.201 -30.071  13.272  0.00  0.00    +0.210 HD
ENDBRANCH  19  25
BRANCH  18  27
ATOM     27  O   LIG    1       26.478 -26.943  12.388  0.00  0.00    -0.387 OA
ATOM     28  H   LIG    1       25.715 -27.027  12.990  0.00  0.00    +0.210 HD
ENDBRANCH  18  27
BRANCH  20  29
ATOM     29  C   LIG    1       24.004 -28.609  12.760  0.00  0.00    +0.190 C 
BRANCH  29  30
ATOM     30  O   LIG    1       23.131 -28.952  13.837  0.00  0.00    -0.392 OA
ATOM     31  H   LIG    1       23.704 -29.159  14.600  0.00  0.00    +0.209 HD
ENDBRANCH  29  30
ENDBRANCH  20  29
ENDBRANCH  15  16
ENDBRANCH   6  15
BRANCH   1  32
ATOM     32  O   LIG    1       24.092 -28.388   7.112  0.00  0.00    -0.340 OA
BRANCH  32  35
ATOM     33  C   LIG    1       25.572 -25.709   6.880  0.00  0.00    +0.186 C 
ATOM     34  C   LIG    1       24.116 -26.063   6.542  0.00  0.00    +0.202 C 
ATOM     35  C   LIG    1       24.283 -27.482   6.029  0.00  0.00    +0.282 C 
ATOM     36  O   LIG    1       25.602 -27.586   5.472  0.00  0.00    -0.341 OA
ATOM     37  C   LIG    1       26.285 -26.327   5.681  0.00  0.00    +0.178 C 
BRANCH  34  38
ATOM     38  O   LIG    1       23.513 -25.361   5.442  0.00  0.00    -0.384 OA
ATOM     39  H   LIG    1       24.210 -25.394   4.751  0.00  0.00    +0.210 HD
ENDBRANCH  34  38
BRANCH  33  40
ATOM     40  O   LIG    1       25.908 -24.383   7.300  0.00  0.00    -0.341 OA
BRANCH  40  45
ATOM     41  C   LIG    1       24.094 -21.692   5.849  0.00  0.00    +0.166 C 
ATOM     42  C   LIG    1       24.391 -20.799   7.060  0.00  0.00    +0.175 C 
ATOM     43  C   LIG    1       25.723 -21.221   7.745  0.00  0.00    +0.167 C 
ATOM     44  C   LIG    1       26.606 -22.075   6.799  0.00  0.00    +0.139 C 
ATOM     45  C   LIG    1       25.771 -23.327   6.351  0.00  0.00    +0.270 C 
ATOM     46  O   LIG    1       24.386 -23.011   6.301  0.00  0.00    -0.343 OA
BRANCH  44  47
ATOM     47  N   LIG    1       27.932 -22.378   7.376  0.00  0.00    -0.321 NA
ATOM     48  H   LIG    1       28.015 -21.829   8.238  0.00  0.00    +0.119 HD
ATOM     49  H   LIG    1       27.946 -23.357   7.666  0.00  0.00    +0.119 HD
ENDBRANCH  44  47
BRANCH  43  50
ATOM     50  O   LIG    1       26.428 -20.048   8.175  0.00  0.00    -0.387 OA
ATOM     51  H   LIG    1       27.358 -20.173   7.901  0.00  0.00    +0.210 HD
ENDBRANCH  43  50
BRANCH  42  52
ATOM     52  O   LIG    1       23.352 -20.918   8.052  0.00  0.00    -0.387 OA
ATOM     53  H   LIG    1       22.956 -20.039   8.156  0.00  0.00    +0.210 HD
ENDBRANCH  42  52
BRANCH  41  54
ATOM     54  C   LIG    1       22.622 -21.676   5.383  0.00  0.00    +0.112 C 
BRANCH  54  55
ATOM     55  N   LIG    1       21.846 -22.767   5.994  0.00  0.00    -0.328 NA
ATOM     56  H   LIG    1       20.838 -22.570   5.939  0.00  0.00    +0.118 HD
ATOM     57  H   LIG    1       21.966 -23.617   5.443  0.00  0.00    +0.118 HD
ENDBRANCH  54  55
ENDBRANCH  41  54
ENDBRANCH  40  45
ENDBRANCH  33  40
BRANCH  37  58
ATOM     58  C   LIG    1       27.770 -26.599   5.887  0.00  0.00    +0.190 C 
BRANCH  58  59
ATOM     59  O   LIG    1       28.286 -27.294   4.747  0.00  0.00    -0.392 OA
ATOM     60  H   LIG    1       27.639 -27.194   4.029  0.00  0.00    +0.209 HD
ENDBRANCH  58  59
ENDBRANCH  37  58
ENDBRANCH  32  35
ENDBRANCH   1  32
TORSDOF 22
ENDMDL
MODEL 8
REMARK VINA RESULT:      -6.1      1.576      2.299
REMARK  Name = *****
REMARK                            x       y       z     vdW  Elec       q    Type
REMARK                         _______ _______ _______ _____ _____    ______ ____
ROOT
ATOM      1  C   LIG    1       25.665 -30.081   9.141  0.00  0.00    +0.182 C 
ATOM      2  C   LIG    1       25.963 -31.314   8.252  0.00  0.00    +0.163 C 
ATOM      3  C   LIG    1       25.149 -32.562   8.564  0.00  0.00    +0.084 C 
ATOM      4  C   LIG    1       23.682 -32.205   8.476  0.00  0.00    +0.042 C 
ATOM      5  C   LIG    1       23.348 -31.271   9.635  0.00  0.00    +0.084 C 
ATOM      6  C   LIG    1       24.181 -29.950   9.653  0.00  0.00    +0.169 C 
ENDROOT
BRANCH   3   7
ATOM      7  N   LIG    1       25.519 -33.616   7.603  0.00  0.00    -0.325 NA
ATOM      8  H   LIG    1       26.470 -33.456   7.266  0.00  0.00    +0.118 HD
ATOM      9  H   LIG    1       25.531 -34.528   8.063  0.00  0.00    +0.118 HD
ENDBRANCH   3   7
BRANCH   5  10
ATOM     10  N   LIG    1       21.890 -31.018   9.574  0.00  0.00    -0.325 NA
ATOM     11  H   LIG    1       21.391 -31.849   9.901  0.00  0.00    +0.118 HD
ATOM     12  H   LIG    1       21.610 -30.895   8.598  0.00  0.00    +0.118 HD
ENDBRANCH   5  10
BRANCH   2  13
ATOM     13  O   LIG    1       27.347 -31.693   8.368  0.00  0.00    -0.388 OA
ATOM     14  H   LIG    1       27.607 -31.446   9.278  0.00  0.00    +0.210 HD
ENDBRANCH   2  13
BRANCH   6  15
ATOM     15  O   LIG    1       24.255 -29.384  10.998  0.00  0.00    -0.342 OA
BRANCH  15  16
ATOM     16  C   LIG    1       25.462 -29.602  11.756  0.00  0.00    +0.270 C 
ATOM     17  C   LIG    1       25.160 -29.900  13.256  0.00  0.00    +0.139 C 
ATOM     18  C   LIG    1       26.493 -30.053  14.018  0.00  0.00    +0.167 C 
ATOM     19  C   LIG    1       27.368 -28.808  13.833  0.00  0.00    +0.175 C 
ATOM     20  C   LIG    1       27.542 -28.463  12.339  0.00  0.00    +0.178 C 
ATOM     21  O   LIG    1       26.284 -28.422  11.629  0.00  0.00    -0.342 OA
BRANCH  17  22
ATOM     22  N   LIG    1       24.264 -28.885  13.866  0.00  0.00    -0.321 NA
ATOM     23  H   LIG    1       24.493 -27.980  13.433  0.00  0.00    +0.119 HD
ATOM     24  H   LIG    1       23.317 -29.085  13.526  0.00  0.00    +0.119 HD
ENDBRANCH  17  22
BRANCH  19  25
ATOM     25  O   LIG    1       26.750 -27.707  14.523  0.00  0.00    -0.387 OA
ATOM     26  H   LIG    1       26.769 -26.935  13.928  0.00  0.00    +0.210 HD
ENDBRANCH  19  25
BRANCH  18  27
ATOM     27  O   LIG    1       27.209 -31.214  13.575  0.00  0.00    -0.387 OA
ATOM     28  H   LIG    1       27.225 -31.195  12.599  0.00  0.00    +0.210 HD
ENDBRANCH  18  27
BRANCH  20  29
ATOM     29  C   LIG    1       28.577 -29.365  11.641  0.00  0.00    +0.190 C 
BRANCH  29  30
ATOM     30  O   LIG    1       29.646 -29.676  12.536  0.00  0.00    -0.392 OA
ATOM     31  H   LIG    1       30.334 -30.115  12.000  0.00  0.00    +0.209 HD
ENDBRANCH  29  30
ENDBRANCH  20  29
ENDBRANCH  15  16
ENDBRANCH   6  15
BRANCH   1  32
ATOM     32  O   LIG    1       25.928 -28.861   8.385  0.00  0.00    -0.340 OA
BRANCH  32  35
ATOM     33  C   LIG    1       25.677 -26.637   6.283  0.00  0.00    +0.186 C 
ATOM     34  C   LIG    1       24.586 -27.370   7.077  0.00  0.00    +0.202 C 
ATOM     35  C   LIG    1       25.190 -28.760   7.170  0.00  0.00    +0.282 C 
ATOM     36  O   LIG    1       26.028 -28.943   6.018  0.00  0.00    -0.341 OA
ATOM     37  C   LIG    1       26.031 -27.710   5.259  0.00  0.00    +0.178 C 
BRANCH  34  38
ATOM     38  O   LIG    1       23.327 -27.578   6.416  0.00  0.00    -0.384 OA
ATOM     39  H   LIG    1       22.702 -27.694   7.165  0.00  0.00    +0.210 HD
ENDBRANCH  34  38
BRANCH  33  40
ATOM     40  O   LIG    1       25.468 -25.288   5.855  0.00  0.00    -0.341 OA
BRANCH  40  45
ATOM     41  C   LIG    1       26.223 -22.060   7.142  0.00  0.00    +0.166 C 
ATOM     42  C   LIG    1       25.270 -21.403   6.137  0.00  0.00    +0.175 C 
ATOM     43  C   LIG    1       24.132 -22.384   5.730  0.00  0.00    +0.167 C 
ATOM     44  C   LIG    1       23.983 -23.539   6.753  0.00  0.00    +0.139 C 
ATOM     45  C   LIG    1       25.365 -24.278   6.858  0.00  0.00    +0.270 C 
ATOM     46  O   LIG    1       26.434 -23.371   6.627  0.00  0.00    -0.343 OA
BRANCH  44  47
ATOM     47  N   LIG    1       22.826 -24.411   6.463  0.00  0.00    -0.321 NA
ATOM     48  H   LIG    1       22.043 -24.067   7.029  0.00  0.00    +0.119 HD
ATOM     49  H   LIG    1       22.548 -24.272   5.490  0.00  0.00    +0.119 HD
ENDBRANCH  44  47
BRANCH  43  50
ATOM     50  O   LIG    1       22.902 -21.657   5.604  0.00  0.00    -0.387 OA
ATOM     51  H   LIG    1       22.186 -22.304   5.760  0.00  0.00    +0.210 HD
ENDBRANCH  43  50
BRANCH  42  52
ATOM     52  O   LIG    1       25.968 -21.045   4.927  0.00  0.00    -0.387 OA
ATOM     53  H   LIG    1       25.297 -20.781   4.278  0.00  0.00    +0.210 HD
ENDBRANCH  42  52
BRANCH  41  54
ATOM     54  C   LIG    1       27.604 -21.380   7.260  0.00  0.00    +0.112 C 
BRANCH  54  55
ATOM     55  N   LIG    1       27.610 -20.339   8.300  0.00  0.00    -0.328 NA
ATOM     56  H   LIG    1       26.892 -20.533   9.012  0.00  0.00    +0.118 HD
ATOM     57  H   LIG    1       28.490 -20.379   8.815  0.00  0.00    +0.118 HD
ENDBRANCH  54  55
ENDBRANCH  41  54
ENDBRANCH  40  45
ENDBRANCH  33  40
BRANCH  37  58
ATOM     58  C   LIG    1       27.393 -27.542   4.597  0.00  0.00    +0.190 C 
BRANCH  58  59
ATOM     59  O   LIG    1       28.264 -26.829   5.480  0.00  0.00    -0.392 OA
ATOM     60  H   LIG    1       27.722 -26.493   6.213  0.00  0.00    +0.209 HD
ENDBRANCH  58  59
ENDBRANCH  37  58
ENDBRANCH  32  35
ENDBRANCH   1  32
TORSDOF 22
ENDMDL
MODEL 9
REMARK VINA RESULT:      -6.1      3.562      6.786
REMARK  Name = *****
REMARK                            x       y       z     vdW  Elec       q    Type
REMARK                         _______ _______ _______ _____ _____    ______ ____
ROOT
ATOM      1  C   LIG    1       22.750 -30.164  13.764  0.00  0.00    +0.182 C 
ATOM      2  C   LIG    1       21.303 -30.538  13.356  0.00  0.00    +0.163 C 
ATOM      3  C   LIG    1       20.237 -29.506  13.698  0.00  0.00    +0.084 C 
ATOM      4  C   LIG    1       20.628 -28.192  13.061  0.00  0.00    +0.042 C 
ATOM      5  C   LIG    1       21.867 -27.665  13.779  0.00  0.00    +0.084 C 
ATOM      6  C   LIG    1       23.096 -28.628  13.727  0.00  0.00    +0.169 C 
ENDROOT
BRANCH   3   7
ATOM      7  N   LIG    1       18.937 -29.994  13.203  0.00  0.00    -0.325 NA
ATOM      8  H   LIG    1       19.086 -30.727  12.508  0.00  0.00    +0.118 HD
ATOM      9  H   LIG    1       18.408 -30.427  13.962  0.00  0.00    +0.118 HD
ENDBRANCH   3   7
BRANCH   5  10
ATOM     10  N   LIG    1       22.166 -26.336  13.196  0.00  0.00    -0.325 NA
ATOM     11  H   LIG    1       22.121 -25.628  13.933  0.00  0.00    +0.118 HD
ATOM     12  H   LIG    1       21.432 -26.087  12.529  0.00  0.00    +0.118 HD
ENDBRANCH   5  10
BRANCH   2  13
ATOM     13  O   LIG    1       20.902 -31.763  13.998  0.00  0.00    -0.388 OA
ATOM     14  H   LIG    1       20.576 -32.337  13.276  0.00  0.00    +0.210 HD
ENDBRANCH   2  13
BRANCH   6  15
ATOM     15  O   LIG    1       24.013 -28.383  14.836  0.00  0.00    -0.342 OA
BRANCH  15  16
ATOM     16  C   LIG    1       25.345 -27.928  14.522  0.00  0.00    +0.270 C 
ATOM     17  C   LIG    1       25.680 -26.579  15.228  0.00  0.00    +0.139 C 
ATOM     18  C   LIG    1       27.087 -26.119  14.793  0.00  0.00    +0.167 C 
ATOM     19  C   LIG    1       27.177 -26.019  13.266  0.00  0.00    +0.175 C 
ATOM     20  C   LIG    1       26.715 -27.327  12.592  0.00  0.00    +0.178 C 
ATOM     21  O   LIG    1       25.438 -27.787  13.088  0.00  0.00    -0.342 OA
BRANCH  17  22
ATOM     22  N   LIG    1       24.641 -25.544  14.994  0.00  0.00    -0.321 NA
ATOM     23  H   LIG    1       24.412 -25.566  13.991  0.00  0.00    +0.119 HD
ATOM     24  H   LIG    1       23.784 -25.879  15.446  0.00  0.00    +0.119 HD
ENDBRANCH  17  22
BRANCH  19  25
ATOM     25  O   LIG    1       26.352 -24.924  12.829  0.00  0.00    -0.387 OA
ATOM     26  H   LIG    1       25.424 -25.160  13.012  0.00  0.00    +0.210 HD
ENDBRANCH  19  25
BRANCH  18  27
ATOM     27  O   LIG    1       28.095 -27.018  15.276  0.00  0.00    -0.387 OA
ATOM     28  H   LIG    1       27.788 -27.370  16.133  0.00  0.00    +0.210 HD
ENDBRANCH  18  27
BRANCH  20  29
ATOM     29  C   LIG    1       27.791 -28.429  12.640  0.00  0.00    +0.190 C 
BRANCH  29  30
ATOM     30  O   LIG    1       28.254 -28.725  11.322  0.00  0.00    -0.392 OA
ATOM     31  H   LIG    1       29.226 -28.636  11.346  0.00  0.00    +0.209 HD
ENDBRANCH  29  30
ENDBRANCH  20  29
ENDBRANCH  15  16
ENDBRANCH   6  15
BRANCH   1  32
ATOM     32  O   LIG    1       23.693 -30.800  12.848  0.00  0.00    -0.340 OA
BRANCH  32  35
ATOM     33  C   LIG    1       24.595 -31.016   9.922  0.00  0.00    +0.186 C 
ATOM     34  C   LIG    1       23.305 -30.430  10.514  0.00  0.00    +0.202 C 
ATOM     35  C   LIG    1       23.085 -31.366  11.689  0.00  0.00    +0.282 C 
ATOM     36  O   LIG    1       23.665 -32.633  11.346  0.00  0.00    -0.341 OA
ATOM     37  C   LIG    1       24.299 -32.507  10.050  0.00  0.00    +0.178 C 
BRANCH  34  38
ATOM     38  O   LIG    1       22.109 -30.564   9.729  0.00  0.00    -0.384 OA
ATOM     39  H   LIG    1       21.787 -31.460   9.970  0.00  0.00    +0.210 HD
ENDBRANCH  34  38
BRANCH  33  40
ATOM     40  O   LIG    1       25.120 -30.499   8.695  0.00  0.00    -0.341 OA
BRANCH  40  45
ATOM     41  C   LIG    1       24.248 -28.060   6.259  0.00  0.00    +0.166 C 
ATOM     42  C   LIG    1       25.142 -28.739   5.215  0.00  0.00    +0.175 C 
ATOM     43  C   LIG    1       25.279 -30.261   5.509  0.00  0.00    +0.167 C 
ATOM     44  C   LIG    1       24.151 -30.764   6.446  0.00  0.00    +0.139 C 
ATOM     45  C   LIG    1       24.203 -29.919   7.768  0.00  0.00    +0.270 C 
ATOM     46  O   LIG    1       24.677 -28.606   7.503  0.00  0.00    -0.343 OA
BRANCH  44  47
ATOM     47  N   LIG    1       24.179 -32.229   6.635  0.00  0.00    -0.321 NA
ATOM     48  H   LIG    1       24.975 -32.437   7.246  0.00  0.00    +0.119 HD
ATOM     49  H   LIG    1       23.347 -32.507   7.157  0.00  0.00    +0.119 HD
ENDBRANCH  44  47
BRANCH  43  50
ATOM     50  O   LIG    1       25.271 -30.985   4.271  0.00  0.00    -0.387 OA
ATOM     51  H   LIG    1       24.673 -31.748   4.405  0.00  0.00    +0.210 HD
ENDBRANCH  43  50
BRANCH  42  52
ATOM     52  O   LIG    1       26.473 -28.185   5.241  0.00  0.00    -0.387 OA
ATOM     53  H   LIG    1       27.044 -28.791   4.744  0.00  0.00    +0.210 HD
ENDBRANCH  42  52
BRANCH  41  54
ATOM     54  C   LIG    1       24.408 -26.526   6.346  0.00  0.00    +0.112 C 
BRANCH  54  55
ATOM     55  N   LIG    1       24.307 -25.894   5.020  0.00  0.00    -0.328 NA
ATOM     56  H   LIG    1       23.355 -25.537   4.860  0.00  0.00    +0.118 HD
ATOM     57  H   LIG    1       24.894 -25.060   4.998  0.00  0.00    +0.118 HD
ENDBRANCH  54  55
ENDBRANCH  41  54
ENDBRANCH  40  45
ENDBRANCH  33  40
BRANCH  37  58
ATOM     58  C   LIG    1       25.523 -33.412  10.009  0.00  0.00    +0.190 C 
BRANCH  58  59
ATOM     59  O   LIG    1       26.703 -32.608   9.912  0.00  0.00    -0.392 OA
ATOM     60  H   LIG    1       27.266 -32.825  10.673  0.00  0.00    +0.209 HD
ENDBRANCH  58  59
ENDBRANCH  37  58
ENDBRANCH  32  35
ENDBRANCH   1  32
TORSDOF 22
ENDMDL
