MODEL 1
REMARK VINA RESULT:      -7.1      0.000      0.000
REMARK  Name = *****
REMARK                            x       y       z     vdW  Elec       q    Type
REMARK                         _______ _______ _______ _____ _____    ______ ____
ROOT
ATOM      1  C   LIG    1       23.807 -21.643   7.160  0.00  0.00    +0.162 C 
ENDROOT
BRANCH   1   5
ATOM      2  C   LIG    1       23.734 -19.033   3.725  0.00  0.00    +0.000 A 
ATOM      3  C   LIG    1       22.619 -19.123   4.556  0.00  0.00    +0.000 A 
ATOM      4  C   LIG    1       22.643 -19.965   5.668  0.00  0.00    +0.004 A 
ATOM      5  C   LIG    1       23.783 -20.731   5.957  0.00  0.00    -0.036 A 
ATOM      6  C   LIG    1       24.900 -20.628   5.117  0.00  0.00    +0.004 A 
ATOM      7  C   LIG    1       24.874 -19.784   4.006  0.00  0.00    +0.000 A 
ENDBRANCH   1   5
BRANCH   1   8
ATOM      8  C   LIG    1       24.284 -23.036   6.823  0.00  0.00    +0.285 C 
ATOM      9  N   LIG    1       23.480 -23.938   6.164  0.00  0.00    -0.234 N 
ATOM     10  H   LIG    1       22.484 -23.866   6.347  0.00  0.00    +0.291 HD
ATOM     11  C   LIG    1       24.087 -25.240   6.312  0.00  0.00    +0.272 C 
ATOM     12  C   LIG    1       25.529 -24.854   6.658  0.00  0.00    +0.333 C 
ATOM     13  N   LIG    1       25.478 -23.452   7.164  0.00  0.00    -0.084 NA
ENDBRANCH   1   8
TORSDOF 2
ENDMDL
MODEL 2
REMARK VINA RESULT:      -7.0      0.321      1.427
REMARK  Name = *****
REMARK                            x       y       z     vdW  Elec       q    Type
REMARK                         _______ _______ _______ _____ _____    ______ ____
ROOT
ATOM      1  C   LIG    1       23.433 -21.429   7.053  0.00  0.00    +0.162 C 
ENDROOT
BRANCH   1   5
ATOM      2  C   LIG    1       23.791 -18.856   3.607  0.00  0.00    +0.000 A 
ATOM      3  C   LIG    1       24.848 -19.691   3.968  0.00  0.00    +0.000 A 
ATOM      4  C   LIG    1       24.731 -20.524   5.080  0.00  0.00    +0.004 A 
ATOM      5  C   LIG    1       23.557 -20.527   5.848  0.00  0.00    -0.036 A 
ATOM      6  C   LIG    1       22.499 -19.688   5.473  0.00  0.00    +0.004 A 
ATOM      7  C   LIG    1       22.618 -18.856   4.359  0.00  0.00    +0.000 A 
ENDBRANCH   1   5
BRANCH   1   8
ATOM      8  C   LIG    1       23.997 -22.808   6.806  0.00  0.00    +0.285 C 
ATOM      9  N   LIG    1       23.277 -23.780   6.148  0.00  0.00    -0.234 N 
ATOM     10  H   LIG    1       22.271 -23.752   6.277  0.00  0.00    +0.291 HD
ATOM     11  C   LIG    1       23.941 -25.040   6.388  0.00  0.00    +0.272 C 
ATOM     12  C   LIG    1       25.340 -24.564   6.790  0.00  0.00    +0.333 C 
ATOM     13  N   LIG    1       25.191 -23.145   7.227  0.00  0.00    -0.084 NA
ENDBRANCH   1   8
TORSDOF 2
ENDMDL
MODEL 3
REMARK VINA RESULT:      -6.8      3.165      4.665
REMARK  Name = *****
REMARK                            x       y       z     vdW  Elec       q    Type
REMARK                         _______ _______ _______ _____ _____    ______ ____
ROOT
ATOM      1  C   LIG    1       25.650 -20.859   8.377  0.00  0.00    +0.162 C 
ENDROOT
BRANCH   1   5
ATOM      2  C   LIG    1       23.868 -24.325   6.526  0.00  0.00    +0.000 A 
ATOM      3  C   LIG    1       23.088 -23.204   6.804  0.00  0.00    +0.000 A 
ATOM      4  C   LIG    1       23.664 -22.083   7.400  0.00  0.00    +0.004 A 
ATOM      5  C   LIG    1       25.028 -22.073   7.730  0.00  0.00    -0.036 A 
ATOM      6  C   LIG    1       25.804 -23.204   7.440  0.00  0.00    +0.004 A 
ATOM      7  C   LIG    1       25.225 -24.324   6.843  0.00  0.00    +0.000 A 
ENDBRANCH   1   5
BRANCH   1   8
ATOM      8  C   LIG    1       26.898 -20.397   7.662  0.00  0.00    +0.285 C 
ATOM      9  N   LIG    1       26.912 -20.159   6.306  0.00  0.00    -0.234 N 
ATOM     10  H   LIG    1       26.294 -20.738   5.746  0.00  0.00    +0.291 HD
ATOM     11  C   LIG    1       28.296 -20.082   5.899  0.00  0.00    +0.272 C 
ATOM     12  C   LIG    1       28.980 -19.786   7.238  0.00  0.00    +0.333 C 
ATOM     13  N   LIG    1       28.029 -20.223   8.300  0.00  0.00    -0.084 NA
ENDBRANCH   1   8
TORSDOF 2
ENDMDL
MODEL 4
REMARK VINA RESULT:      -6.8      3.141      4.864
REMARK  Name = *****
REMARK                            x       y       z     vdW  Elec       q    Type
REMARK                         _______ _______ _______ _____ _____    ______ ____
ROOT
ATOM      1  C   LIG    1       25.142 -20.893   7.740  0.00  0.00    +0.162 C 
ENDROOT
BRANCH   1   5
ATOM      2  C   LIG    1       24.194 -24.915   6.497  0.00  0.00    +0.000 A 
ATOM      3  C   LIG    1       25.515 -24.560   6.767  0.00  0.00    +0.000 A 
ATOM      4  C   LIG    1       25.821 -23.261   7.171  0.00  0.00    +0.004 A 
ATOM      5  C   LIG    1       24.808 -22.299   7.304  0.00  0.00    -0.036 A 
ATOM      6  C   LIG    1       23.483 -22.668   7.036  0.00  0.00    +0.004 A 
ATOM      7  C   LIG    1       23.179 -23.969   6.633  0.00  0.00    +0.000 A 
ENDBRANCH   1   5
BRANCH   1   8
ATOM      8  C   LIG    1       26.568 -20.509   7.422  0.00  0.00    +0.285 C 
ATOM      9  N   LIG    1       27.010 -20.368   6.126  0.00  0.00    -0.234 N 
ATOM     10  H   LIG    1       26.571 -20.970   5.437  0.00  0.00    +0.291 HD
ATOM     11  C   LIG    1       28.453 -20.349   6.166  0.00  0.00    +0.272 C 
ATOM     12  C   LIG    1       28.702 -19.974   7.630  0.00  0.00    +0.333 C 
ATOM     13  N   LIG    1       27.452 -20.316   8.369  0.00  0.00    -0.084 NA
ENDBRANCH   1   8
TORSDOF 2
ENDMDL
MODEL 5
REMARK VINA RESULT:      -6.6      4.702      6.000
REMARK  Name = *****
REMARK                            x       y       z     vdW  Elec       q    Type
REMARK                         _______ _______ _______ _____ _____    ______ ____
ROOT
ATOM      1  C   LIG    1       28.688 -19.898   5.897  0.00  0.00    +0.162 C 
ENDROOT
BRANCH   1   5
ATOM      2  C   LIG    1       24.916 -20.850   7.764  0.00  0.00    +0.000 A 
ATOM      3  C   LIG    1       25.003 -20.753   6.377  0.00  0.00    +0.000 A 
ATOM      4  C   LIG    1       26.223 -20.447   5.773  0.00  0.00    +0.004 A 
ATOM      5  C   LIG    1       27.369 -20.229   6.552  0.00  0.00    -0.036 A 
ATOM      6  C   LIG    1       27.271 -20.335   7.947  0.00  0.00    +0.004 A 
ATOM      7  C   LIG    1       26.049 -20.642   8.548  0.00  0.00    +0.000 A 
ENDBRANCH   1   5
BRANCH   1   8
ATOM      8  C   LIG    1       29.777 -19.605   6.903  0.00  0.00    +0.285 C 
ATOM      9  N   LIG    1       30.437 -20.612   7.571  0.00  0.00    -0.234 N 
ATOM     10  H   LIG    1       29.895 -21.447   7.767  0.00  0.00    +0.291 HD
ATOM     11  C   LIG    1       31.138 -20.003   8.677  0.00  0.00    +0.272 C 
ATOM     12  C   LIG    1       31.201 -18.543   8.218  0.00  0.00    +0.333 C 
ATOM     13  N   LIG    1       30.126 -18.378   7.198  0.00  0.00    -0.084 NA
ENDBRANCH   1   8
TORSDOF 2
ENDMDL
MODEL 6
REMARK VINA RESULT:      -6.5      1.839      4.973
REMARK  Name = *****
REMARK                            x       y       z     vdW  Elec       q    Type
REMARK                         _______ _______ _______ _____ _____    ______ ____
ROOT
ATOM      1  C   LIG    1       23.724 -21.103   7.132  0.00  0.00    +0.162 C 
ENDROOT
BRANCH   1   5
ATOM      2  C   LIG    1       25.010 -25.190   6.613  0.00  0.00    +0.000 A 
ATOM      3  C   LIG    1       25.936 -24.204   6.950  0.00  0.00    +0.000 A 
ATOM      4  C   LIG    1       25.521 -22.883   7.120  0.00  0.00    +0.004 A 
ATOM      5  C   LIG    1       24.173 -22.534   6.948  0.00  0.00    -0.036 A 
ATOM      6  C   LIG    1       23.249 -23.534   6.615  0.00  0.00    +0.004 A 
ATOM      7  C   LIG    1       23.668 -24.854   6.447  0.00  0.00    +0.000 A 
ENDBRANCH   1   5
BRANCH   1   8
ATOM      8  C   LIG    1       23.553 -20.376   5.818  0.00  0.00    +0.285 C 
ATOM      9  N   LIG    1       24.473 -20.490   4.801  0.00  0.00    -0.234 N 
ATOM     10  H   LIG    1       25.438 -20.627   5.085  0.00  0.00    +0.291 HD
ATOM     11  C   LIG    1       24.204 -19.427   3.860  0.00  0.00    +0.272 C 
ATOM     12  C   LIG    1       22.756 -19.079   4.217  0.00  0.00    +0.333 C 
ATOM     13  N   LIG    1       22.530 -19.588   5.600  0.00  0.00    -0.084 NA
ENDBRANCH   1   8
TORSDOF 2
ENDMDL
MODEL 7
REMARK VINA RESULT:      -6.4      2.799      3.964
REMARK  Name = *****
REMARK                            x       y       z     vdW  Elec       q    Type
REMARK                         _______ _______ _______ _____ _____    ______ ____
ROOT
ATOM      1  C   LIG    1       26.022 -21.556   6.515  0.00  0.00    +0.162 C 
ENDROOT
BRANCH   1   5
ATOM      2  C   LIG    1       23.065 -19.273   4.356  0.00  0.00    +0.000 A 
ATOM      3  C   LIG    1       24.339 -19.448   3.820  0.00  0.00    +0.000 A 
ATOM      4  C   LIG    1       25.295 -20.188   4.516  0.00  0.00    +0.004 A 
ATOM      5  C   LIG    1       24.986 -20.756   5.761  0.00  0.00    -0.036 A 
ATOM      6  C   LIG    1       23.700 -20.579   6.288  0.00  0.00    +0.004 A 
ATOM      7  C   LIG    1       22.745 -19.839   5.589  0.00  0.00    +0.000 A 
ENDBRANCH   1   5
BRANCH   1   8
ATOM      8  C   LIG    1       27.258 -20.749   6.836  0.00  0.00    +0.285 C 
ATOM      9  N   LIG    1       28.224 -20.494   5.889  0.00  0.00    -0.234 N 
ATOM     10  H   LIG    1       28.361 -21.214   5.187  0.00  0.00    +0.291 HD
ATOM     11  C   LIG    1       29.396 -20.022   6.590  0.00  0.00    +0.272 C 
ATOM     12  C   LIG    1       28.781 -19.568   7.917  0.00  0.00    +0.333 C 
ATOM     13  N   LIG    1       27.473 -20.274   8.037  0.00  0.00    -0.084 NA
ENDBRANCH   1   8
TORSDOF 2
ENDMDL
MODEL 8
REMARK VINA RESULT:      -6.4      1.547      2.652
REMARK  Name = *****
REMARK                            x       y       z     vdW  Elec       q    Type
REMARK                         _______ _______ _______ _____ _____    ______ ____
ROOT
ATOM      1  C   LIG    1       25.856 -23.705   6.985  0.00  0.00    +0.162 C 
ENDROOT
BRANCH   1   5
ATOM      2  C   LIG    1       23.201 -20.511   5.812  0.00  0.00    +0.000 A 
ATOM      3  C   LIG    1       23.933 -21.200   4.847  0.00  0.00    +0.000 A 
ATOM      4  C   LIG    1       24.790 -22.234   5.225  0.00  0.00    +0.004 A 
ATOM      5  C   LIG    1       24.927 -22.586   6.576  0.00  0.00    -0.036 A 
ATOM      6  C   LIG    1       24.182 -21.890   7.538  0.00  0.00    +0.004 A 
ATOM      7  C   LIG    1       23.325 -20.857   7.157  0.00  0.00    +0.000 A 
ENDBRANCH   1   5
BRANCH   1   8
ATOM      8  C   LIG    1       25.510 -25.017   6.321  0.00  0.00    +0.285 C 
ATOM      9  N   LIG    1       24.234 -25.531   6.349  0.00  0.00    -0.234 N 
ATOM     10  H   LIG    1       23.687 -25.320   7.178  0.00  0.00    +0.291 HD
ATOM     11  C   LIG    1       24.321 -26.915   5.947  0.00  0.00    +0.272 C 
ATOM     12  C   LIG    1       25.667 -26.925   5.217  0.00  0.00    +0.333 C 
ATOM     13  N   LIG    1       26.419 -25.733   5.706  0.00  0.00    -0.084 NA
ENDBRANCH   1   8
TORSDOF 2
ENDMDL
MODEL 9
REMARK VINA RESULT:      -6.4      1.688      2.235
REMARK  Name = *****
REMARK                            x       y       z     vdW  Elec       q    Type
REMARK                         _______ _______ _______ _____ _____    ______ ____
ROOT
ATOM      1  C   LIG    1       23.240 -21.693   6.501  0.00  0.00    +0.162 C 
ENDROOT
BRANCH   1   5
ATOM      2  C   LIG    1       23.528 -18.590   3.517  0.00  0.00    +0.000 A 
ATOM      3  C   LIG    1       22.450 -18.611   4.400  0.00  0.00    +0.000 A 
ATOM      4  C   LIG    1       22.358 -19.613   5.366  0.00  0.00    +0.004 A 
ATOM      5  C   LIG    1       23.342 -20.609   5.455  0.00  0.00    -0.036 A 
ATOM      6  C   LIG    1       24.424 -20.574   4.565  0.00  0.00    +0.004 A 
ATOM      7  C   LIG    1       24.514 -19.570   3.600  0.00  0.00    +0.000 A 
ENDBRANCH   1   5
BRANCH   1   8
ATOM      8  C   LIG    1       24.454 -21.748   7.398  0.00  0.00    +0.285 C 
ATOM      9  N   LIG    1       24.784 -20.708   8.237  0.00  0.00    -0.234 N 
ATOM     10  H   LIG    1       24.543 -19.778   7.910  0.00  0.00    +0.291 HD
ATOM     11  C   LIG    1       26.144 -20.924   8.673  0.00  0.00    +0.272 C 
ATOM     12  C   LIG    1       26.306 -22.423   8.400  0.00  0.00    +0.333 C 
ATOM     13  N   LIG    1       25.258 -22.783   7.400  0.00  0.00    -0.084 NA
ENDBRANCH   1   8
TORSDOF 2
ENDMDL
