MODEL 1
REMARK VINA RESULT:      -8.0      0.000      0.000
REMARK  Name = *****
REMARK                            x       y       z     vdW  Elec       q    Type
REMARK                         _______ _______ _______ _____ _____    ______ ____
ROOT
ATOM      1  C   LIG    1       29.274 -20.508   7.331  0.00  0.00    +0.119 C 
ATOM      2  N   LIG    1       28.043 -20.421   8.146  0.00  0.00    -0.330 N 
ATOM      3  H   LIG    1       28.056 -20.987   9.007  0.00  0.00    +0.147 HD
ATOM      4  C   LIG    1       26.808 -20.539   7.491  0.00  0.00    +0.133 A 
ATOM      5  C   LIG    1       26.666 -20.360   6.153  0.00  0.00    +0.126 A 
ATOM      6  N   LIG    1       25.418 -20.479   5.609  0.00  0.00    -0.315 N 
ATOM      7  H   LIG    1       25.303 -20.167   4.659  0.00  0.00    +0.170 HD
ATOM      8  C   LIG    1       24.326 -20.685   6.384  0.00  0.00    +0.195 A 
ATOM      9  N   LIG    1       24.342 -20.885   7.658  0.00  0.00    -0.176 NA
ATOM     10  N   LIG    1       27.780 -20.068   5.365  0.00  0.00    -0.327 N 
ATOM     11  H   LIG    1       27.553 -19.507   4.550  0.00  0.00    +0.147 HD
ATOM     12  C   LIG    1       25.567 -20.909   8.291  0.00  0.00    +0.297 A 
ATOM     13  O   LIG    1       25.700 -21.214   9.477  0.00  0.00    -0.264 OA
ATOM     14  C   LIG    1       29.054 -19.693   6.016  0.00  0.00    +0.128 C 
ENDROOT
BRANCH   8  15
ATOM     15  N   LIG    1       23.157 -20.663   5.698  0.00  0.00    -0.329 N 
ATOM     16  H   LIG    1       22.391 -20.431   6.326  0.00  0.00    +0.145 HD
ATOM     17  H   LIG    1       22.955 -21.523   5.204  0.00  0.00    +0.145 HD
ENDBRANCH   8  15
BRANCH   1  18
ATOM     18  C   LIG    1       30.460 -19.936   8.143  0.00  0.00    +0.164 C 
BRANCH  18  20
ATOM     19  C   LIG    1       30.107 -17.744   9.397  0.00  0.00    +0.040 C 
ATOM     20  C   LIG    1       30.530 -18.394   8.082  0.00  0.00    +0.142 C 
BRANCH  20  21
ATOM     21  O   LIG    1       31.860 -17.957   7.784  0.00  0.00    -0.389 OA
ATOM     22  H   LIG    1       32.440 -18.735   7.890  0.00  0.00    +0.210 HD
ENDBRANCH  20  21
ENDBRANCH  18  20
BRANCH  18  23
ATOM     23  O   LIG    1       31.686 -20.484   7.623  0.00  0.00    -0.387 OA
ATOM     24  H   LIG    1       31.428 -20.915   6.779  0.00  0.00    +0.210 HD
ENDBRANCH  18  23
ENDBRANCH   1  18
TORSDOF 5
ENDMDL
MODEL 2
REMARK VINA RESULT:      -7.5      3.016      6.135
REMARK  Name = *****
REMARK                            x       y       z     vdW  Elec       q    Type
REMARK                         _______ _______ _______ _____ _____    ______ ____
ROOT
ATOM      1  C   LIG    1       24.499 -22.459   6.490  0.00  0.00    +0.119 C 
ATOM      2  N   LIG    1       25.871 -22.333   7.028  0.00  0.00    -0.330 N 
ATOM      3  H   LIG    1       25.940 -22.409   8.053  0.00  0.00    +0.147 HD
ATOM      4  C   LIG    1       26.673 -21.286   6.550  0.00  0.00    +0.133 A 
ATOM      5  C   LIG    1       26.411 -20.628   5.392  0.00  0.00    +0.126 A 
ATOM      6  N   LIG    1       27.262 -19.633   5.001  0.00  0.00    -0.315 N 
ATOM      7  H   LIG    1       27.156 -19.286   4.062  0.00  0.00    +0.170 HD
ATOM      8  C   LIG    1       28.391 -19.355   5.697  0.00  0.00    +0.195 A 
ATOM      9  N   LIG    1       28.733 -19.901   6.813  0.00  0.00    -0.176 NA
ATOM     10  N   LIG    1       25.290 -20.969   4.633  0.00  0.00    -0.327 N 
ATOM     11  H   LIG    1       25.420 -20.808   3.640  0.00  0.00    +0.147 HD
ATOM     12  C   LIG    1       27.879 -20.835   7.363  0.00  0.00    +0.297 A 
ATOM     13  O   LIG    1       28.051 -21.320   8.481  0.00  0.00    -0.264 OA
ATOM     14  C   LIG    1       24.548 -22.210   4.948  0.00  0.00    +0.128 C 
ENDROOT
BRANCH   8  15
ATOM     15  N   LIG    1       29.178 -18.420   5.109  0.00  0.00    -0.329 N 
ATOM     16  H   LIG    1       30.148 -18.728   5.121  0.00  0.00    +0.145 HD
ATOM     17  H   LIG    1       29.099 -17.499   5.521  0.00  0.00    +0.145 HD
ENDBRANCH   8  15
BRANCH   1  18
ATOM     18  C   LIG    1       23.961 -23.875   6.804  0.00  0.00    +0.164 C 
BRANCH  18  20
ATOM     19  C   LIG    1       25.693 -25.737   6.616  0.00  0.00    +0.040 C 
ATOM     20  C   LIG    1       24.591 -24.961   5.901  0.00  0.00    +0.142 C 
BRANCH  20  21
ATOM     21  O   LIG    1       23.601 -25.899   5.470  0.00  0.00    -0.389 OA
ATOM     22  H   LIG    1       22.775 -25.670   5.937  0.00  0.00    +0.210 HD
ENDBRANCH  20  21
ENDBRANCH  18  20
BRANCH  18  23
ATOM     23  O   LIG    1       22.533 -23.881   6.619  0.00  0.00    -0.387 OA
ATOM     24  H   LIG    1       22.192 -24.461   7.334  0.00  0.00    +0.210 HD
ENDBRANCH  18  23
ENDBRANCH   1  18
TORSDOF 5
ENDMDL
MODEL 3
REMARK VINA RESULT:      -7.4      2.739      6.117
REMARK  Name = *****
REMARK                            x       y       z     vdW  Elec       q    Type
REMARK                         _______ _______ _______ _____ _____    ______ ____
ROOT
ATOM      1  C   LIG    1       26.621 -20.699   5.418  0.00  0.00    +0.119 C 
ATOM      2  N   LIG    1       27.648 -19.673   5.699  0.00  0.00    -0.330 N 
ATOM      3  H   LIG    1       27.978 -19.156   4.870  0.00  0.00    +0.147 HD
ATOM      4  C   LIG    1       28.724 -20.027   6.527  0.00  0.00    +0.133 A 
ATOM      5  C   LIG    1       28.690 -21.097   7.360  0.00  0.00    +0.126 A 
ATOM      6  N   LIG    1       29.782 -21.350   8.141  0.00  0.00    -0.315 N 
ATOM      7  H   LIG    1       29.670 -22.030   8.875  0.00  0.00    +0.170 HD
ATOM      8  C   LIG    1       30.848 -20.513   8.158  0.00  0.00    +0.195 A 
ATOM      9  N   LIG    1       30.997 -19.480   7.401  0.00  0.00    -0.176 NA
ATOM     10  N   LIG    1       27.559 -21.914   7.401  0.00  0.00    -0.327 N 
ATOM     11  H   LIG    1       27.414 -22.345   8.309  0.00  0.00    +0.147 HD
ATOM     12  C   LIG    1       30.004 -19.204   6.484  0.00  0.00    +0.297 A 
ATOM     13  O   LIG    1       30.107 -18.318   5.635  0.00  0.00    -0.264 OA
ATOM     14  C   LIG    1       26.312 -21.465   6.744  0.00  0.00    +0.128 C 
ENDROOT
BRANCH   8  15
ATOM     15  N   LIG    1       31.791 -20.850   9.071  0.00  0.00    -0.329 N 
ATOM     16  H   LIG    1       31.514 -21.700   9.558  0.00  0.00    +0.145 HD
ATOM     17  H   LIG    1       31.996 -20.117   9.739  0.00  0.00    +0.145 HD
ENDBRANCH   8  15
BRANCH   1  18
ATOM     18  C   LIG    1       25.350 -20.006   4.872  0.00  0.00    +0.164 C 
BRANCH  18  20
ATOM     19  C   LIG    1       22.867 -19.993   5.453  0.00  0.00    +0.040 C 
ATOM     20  C   LIG    1       24.075 -20.852   5.090  0.00  0.00    +0.142 C 
BRANCH  20  21
ATOM     21  O   LIG    1       23.748 -21.592   3.910  0.00  0.00    -0.389 OA
ATOM     22  H   LIG    1       24.174 -21.131   3.163  0.00  0.00    +0.210 HD
ENDBRANCH  20  21
ENDBRANCH  18  20
BRANCH  18  23
ATOM     23  O   LIG    1       25.521 -19.768   3.462  0.00  0.00    -0.387 OA
ATOM     24  H   LIG    1       26.135 -19.003   3.411  0.00  0.00    +0.210 HD
ENDBRANCH  18  23
ENDBRANCH   1  18
TORSDOF 5
ENDMDL
MODEL 4
REMARK VINA RESULT:      -7.4      2.470      5.750
REMARK  Name = *****
REMARK                            x       y       z     vdW  Elec       q    Type
REMARK                         _______ _______ _______ _____ _____    ______ ____
ROOT
ATOM      1  C   LIG    1       24.961 -20.635   5.619  0.00  0.00    +0.119 C 
ATOM      2  N   LIG    1       25.905 -21.327   6.524  0.00  0.00    -0.330 N 
ATOM      3  H   LIG    1       25.509 -21.592   7.438  0.00  0.00    +0.147 HD
ATOM      4  C   LIG    1       27.190 -20.787   6.675  0.00  0.00    +0.133 A 
ATOM      5  C   LIG    1       27.729 -19.912   5.788  0.00  0.00    +0.126 A 
ATOM      6  N   LIG    1       28.996 -19.453   6.013  0.00  0.00    -0.315 N 
ATOM      7  H   LIG    1       29.442 -18.956   5.260  0.00  0.00    +0.170 HD
ATOM      8  C   LIG    1       29.743 -19.918   7.044  0.00  0.00    +0.195 A 
ATOM      9  N   LIG    1       29.333 -20.734   7.954  0.00  0.00    -0.176 NA
ATOM     10  N   LIG    1       26.989 -19.495   4.681  0.00  0.00    -0.327 N 
ATOM     11  H   LIG    1       27.569 -19.266   3.880  0.00  0.00    +0.147 HD
ATOM     12  C   LIG    1       28.023 -21.164   7.892  0.00  0.00    +0.297 A 
ATOM     13  O   LIG    1       27.500 -21.841   8.778  0.00  0.00    -0.264 OA
ATOM     14  C   LIG    1       25.737 -20.202   4.334  0.00  0.00    +0.128 C 
ENDROOT
BRANCH   8  15
ATOM     15  N   LIG    1       31.014 -19.446   7.054  0.00  0.00    -0.329 N 
ATOM     16  H   LIG    1       31.516 -19.788   6.238  0.00  0.00    +0.145 HD
ATOM     17  H   LIG    1       31.528 -19.668   7.897  0.00  0.00    +0.145 HD
ENDBRANCH   8  15
BRANCH   1  18
ATOM     18  C   LIG    1       23.801 -21.596   5.267  0.00  0.00    +0.164 C 
BRANCH  18  20
ATOM     19  C   LIG    1       22.863 -23.379   6.831  0.00  0.00    +0.040 C 
ATOM     20  C   LIG    1       22.891 -21.894   6.480  0.00  0.00    +0.142 C 
BRANCH  20  21
ATOM     21  O   LIG    1       23.337 -21.178   7.636  0.00  0.00    -0.389 OA
ATOM     22  H   LIG    1       22.690 -20.464   7.791  0.00  0.00    +0.210 HD
ENDBRANCH  20  21
ENDBRANCH  18  20
BRANCH  18  23
ATOM     23  O   LIG    1       24.354 -22.832   4.778  0.00  0.00    -0.387 OA
ATOM     24  H   LIG    1       24.961 -23.132   5.490  0.00  0.00    +0.210 HD
ENDBRANCH  18  23
ENDBRANCH   1  18
TORSDOF 5
ENDMDL
MODEL 5
REMARK VINA RESULT:      -7.3      2.578      5.978
REMARK  Name = *****
REMARK                            x       y       z     vdW  Elec       q    Type
REMARK                         _______ _______ _______ _____ _____    ______ ____
ROOT
ATOM      1  C   LIG    1       24.954 -20.494   5.454  0.00  0.00    +0.119 C 
ATOM      2  N   LIG    1       25.689 -21.306   6.449  0.00  0.00    -0.330 N 
ATOM      3  H   LIG    1       25.157 -21.523   7.305  0.00  0.00    +0.147 HD
ATOM      4  C   LIG    1       27.005 -20.935   6.760  0.00  0.00    +0.133 A 
ATOM      5  C   LIG    1       27.751 -20.131   5.960  0.00  0.00    +0.126 A 
ATOM      6  N   LIG    1       29.031 -19.839   6.341  0.00  0.00    -0.315 N 
ATOM      7  H   LIG    1       29.621 -19.399   5.655  0.00  0.00    +0.170 HD
ATOM      8  C   LIG    1       29.585 -20.401   7.443  0.00  0.00    +0.195 A 
ATOM      9  N   LIG    1       28.971 -21.162   8.282  0.00  0.00    -0.176 NA
ATOM     10  N   LIG    1       27.206 -19.617   4.783  0.00  0.00    -0.327 N 
ATOM     11  H   LIG    1       27.901 -19.460   4.060  0.00  0.00    +0.147 HD
ATOM     12  C   LIG    1       27.634 -21.421   8.058  0.00  0.00    +0.297 A 
ATOM     13  O   LIG    1       26.928 -22.031   8.863  0.00  0.00    -0.264 OA
ATOM     14  C   LIG    1       25.925 -20.157   4.277  0.00  0.00    +0.128 C 
ENDROOT
BRANCH   8  15
ATOM     15  N   LIG    1       30.895 -20.095   7.610  0.00  0.00    -0.329 N 
ATOM     16  H   LIG    1       31.423 -20.369   6.784  0.00  0.00    +0.145 HD
ATOM     17  H   LIG    1       31.309 -20.502   8.439  0.00  0.00    +0.145 HD
ENDBRANCH   8  15
BRANCH   1  18
ATOM     18  C   LIG    1       23.732 -21.297   4.950  0.00  0.00    +0.164 C 
BRANCH  18  20
ATOM     19  C   LIG    1       22.346 -19.167   4.734  0.00  0.00    +0.040 C 
ATOM     20  C   LIG    1       22.392 -20.596   5.268  0.00  0.00    +0.142 C 
BRANCH  20  21
ATOM     21  O   LIG    1       21.295 -21.315   4.695  0.00  0.00    -0.389 OA
ATOM     22  H   LIG    1       20.953 -20.769   3.962  0.00  0.00    +0.210 HD
ENDBRANCH  20  21
ENDBRANCH  18  20
BRANCH  18  23
ATOM     23  O   LIG    1       23.742 -22.597   5.569  0.00  0.00    -0.387 OA
ATOM     24  H   LIG    1       24.262 -22.476   6.394  0.00  0.00    +0.210 HD
ENDBRANCH  18  23
ENDBRANCH   1  18
TORSDOF 5
ENDMDL
MODEL 6
REMARK VINA RESULT:      -7.0      2.029      2.665
REMARK  Name = *****
REMARK                            x       y       z     vdW  Elec       q    Type
REMARK                         _______ _______ _______ _____ _____    ______ ____
ROOT
ATOM      1  C   LIG    1       28.598 -19.788   6.567  0.00  0.00    +0.119 C 
ATOM      2  N   LIG    1       27.656 -19.824   5.427  0.00  0.00    -0.330 N 
ATOM      3  H   LIG    1       27.490 -18.912   4.977  0.00  0.00    +0.147 HD
ATOM      4  C   LIG    1       26.453 -20.527   5.589  0.00  0.00    +0.133 A 
ATOM      5  C   LIG    1       26.269 -21.457   6.560  0.00  0.00    +0.126 A 
ATOM      6  N   LIG    1       25.066 -22.101   6.626  0.00  0.00    -0.315 N 
ATOM      7  H   LIG    1       25.012 -22.906   7.228  0.00  0.00    +0.170 HD
ATOM      8  C   LIG    1       24.100 -21.891   5.699  0.00  0.00    +0.195 A 
ATOM      9  N   LIG    1       24.157 -21.024   4.746  0.00  0.00    -0.176 NA
ATOM     10  N   LIG    1       27.294 -21.732   7.467  0.00  0.00    -0.327 N 
ATOM     11  H   LIG    1       27.276 -22.688   7.806  0.00  0.00    +0.147 HD
ATOM     12  C   LIG    1       25.282 -20.230   4.663  0.00  0.00    +0.297 A 
ATOM     13  O   LIG    1       25.380 -19.292   3.870  0.00  0.00    -0.264 OA
ATOM     14  C   LIG    1       28.654 -21.212   7.207  0.00  0.00    +0.128 C 
ENDROOT
BRANCH   8  15
ATOM     15  N   LIG    1       23.018 -22.694   5.846  0.00  0.00    -0.329 N 
ATOM     16  H   LIG    1       22.939 -23.318   5.046  0.00  0.00    +0.145 HD
ATOM     17  H   LIG    1       22.150 -22.192   5.984  0.00  0.00    +0.145 HD
ENDBRANCH   8  15
BRANCH   1  18
ATOM     18  C   LIG    1       29.994 -19.357   6.056  0.00  0.00    +0.164 C 
BRANCH  18  20
ATOM     19  C   LIG    1       30.259 -18.464   8.430  0.00  0.00    +0.040 C 
ATOM     20  C   LIG    1       30.972 -19.036   7.209  0.00  0.00    +0.142 C 
BRANCH  20  21
ATOM     21  O   LIG    1       31.673 -20.214   7.621  0.00  0.00    -0.389 OA
ATOM     22  H   LIG    1       32.622 -20.046   7.464  0.00  0.00    +0.210 HD
ENDBRANCH  20  21
ENDBRANCH  18  20
BRANCH  18  23
ATOM     23  O   LIG    1       29.844 -18.189   5.228  0.00  0.00    -0.387 OA
ATOM     24  H   LIG    1       30.751 -17.817   5.154  0.00  0.00    +0.210 HD
ENDBRANCH  18  23
ENDBRANCH   1  18
TORSDOF 5
ENDMDL
MODEL 7
REMARK VINA RESULT:      -6.9      4.747      5.887
REMARK  Name = *****
REMARK                            x       y       z     vdW  Elec       q    Type
REMARK                         _______ _______ _______ _____ _____    ______ ____
ROOT
ATOM      1  C   LIG    1       25.405 -22.822   6.559  0.00  0.00    +0.119 C 
ATOM      2  N   LIG    1       26.168 -24.086   6.638  0.00  0.00    -0.330 N 
ATOM      3  H   LIG    1       27.135 -24.029   6.287  0.00  0.00    +0.147 HD
ATOM      4  C   LIG    1       25.544 -25.261   6.193  0.00  0.00    +0.133 A 
ATOM      5  C   LIG    1       24.199 -25.370   6.046  0.00  0.00    +0.126 A 
ATOM      6  N   LIG    1       23.684 -26.562   5.623  0.00  0.00    -0.315 N 
ATOM      7  H   LIG    1       22.687 -26.680   5.695  0.00  0.00    +0.170 HD
ATOM      8  C   LIG    1       24.476 -27.646   5.432  0.00  0.00    +0.195 A 
ATOM      9  N   LIG    1       25.761 -27.656   5.525  0.00  0.00    -0.176 NA
ATOM     10  N   LIG    1       23.376 -24.277   6.321  0.00  0.00    -0.327 N 
ATOM     11  H   LIG    1       22.453 -24.547   6.645  0.00  0.00    +0.147 HD
ATOM     12  C   LIG    1       26.396 -26.469   5.827  0.00  0.00    +0.297 A 
ATOM     13  O   LIG    1       27.621 -26.345   5.817  0.00  0.00    -0.264 OA
ATOM     14  C   LIG    1       23.938 -23.099   7.018  0.00  0.00    +0.128 C 
ENDROOT
BRANCH   8  15
ATOM     15  N   LIG    1       23.791 -28.775   5.125  0.00  0.00    -0.329 N 
ATOM     16  H   LIG    1       22.817 -28.674   5.402  0.00  0.00    +0.145 HD
ATOM     17  H   LIG    1       24.183 -29.616   5.528  0.00  0.00    +0.145 HD
ENDBRANCH   8  15
BRANCH   1  18
ATOM     18  C   LIG    1       26.078 -21.767   7.469  0.00  0.00    +0.164 C 
BRANCH  18  20
ATOM     19  C   LIG    1       27.798 -20.289   6.302  0.00  0.00    +0.040 C 
ATOM     20  C   LIG    1       27.570 -21.554   7.124  0.00  0.00    +0.142 C 
BRANCH  20  21
ATOM     21  O   LIG    1       28.357 -21.453   8.315  0.00  0.00    -0.389 OA
ATOM     22  H   LIG    1       27.971 -20.730   8.845  0.00  0.00    +0.210 HD
ENDBRANCH  20  21
ENDBRANCH  18  20
BRANCH  18  23
ATOM     23  O   LIG    1       25.969 -22.197   8.838  0.00  0.00    -0.387 OA
ATOM     24  H   LIG    1       26.547 -21.582   9.340  0.00  0.00    +0.210 HD
ENDBRANCH  18  23
ENDBRANCH   1  18
TORSDOF 5
ENDMDL
MODEL 8
REMARK VINA RESULT:      -6.9      2.169      3.079
REMARK  Name = *****
REMARK                            x       y       z     vdW  Elec       q    Type
REMARK                         _______ _______ _______ _____ _____    ______ ____
ROOT
ATOM      1  C   LIG    1       27.261 -20.270   7.504  0.00  0.00    +0.119 C 
ATOM      2  N   LIG    1       26.841 -20.449   6.097  0.00  0.00    -0.330 N 
ATOM      3  H   LIG    1       27.228 -19.755   5.441  0.00  0.00    +0.147 HD
ATOM      4  C   LIG    1       25.481 -20.677   5.840  0.00  0.00    +0.133 A 
ATOM      5  C   LIG    1       24.613 -21.100   6.792  0.00  0.00    +0.126 A 
ATOM      6  N   LIG    1       23.310 -21.311   6.440  0.00  0.00    -0.315 N 
ATOM      7  H   LIG    1       22.729 -21.793   7.105  0.00  0.00    +0.170 HD
ATOM      8  C   LIG    1       22.897 -21.187   5.154  0.00  0.00    +0.195 A 
ATOM      9  N   LIG    1       23.626 -20.777   4.173  0.00  0.00    -0.176 NA
ATOM     10  N   LIG    1       25.056 -21.306   8.100  0.00  0.00    -0.327 N 
ATOM     11  H   LIG    1       24.534 -22.027   8.587  0.00  0.00    +0.147 HD
ATOM     12  C   LIG    1       24.930 -20.418   4.444  0.00  0.00    +0.297 A 
ATOM     13  O   LIG    1       25.667 -19.899   3.606  0.00  0.00    -0.264 OA
ATOM     14  C   LIG    1       26.508 -21.320   8.383  0.00  0.00    +0.128 C 
ENDROOT
BRANCH   8  15
ATOM     15  N   LIG    1       21.603 -21.542   4.960  0.00  0.00    -0.329 N 
ATOM     16  H   LIG    1       21.558 -22.470   4.544  0.00  0.00    +0.145 HD
ATOM     17  H   LIG    1       21.076 -20.884   4.401  0.00  0.00    +0.145 HD
ENDBRANCH   8  15
BRANCH   1  18
ATOM     18  C   LIG    1       28.793 -20.465   7.603  0.00  0.00    +0.164 C 
BRANCH  18  20
ATOM     19  C   LIG    1       31.087 -19.392   7.299  0.00  0.00    +0.040 C 
ATOM     20  C   LIG    1       29.577 -19.185   7.233  0.00  0.00    +0.142 C 
BRANCH  20  21
ATOM     21  O   LIG    1       29.249 -18.756   5.907  0.00  0.00    -0.389 OA
ATOM     22  H   LIG    1       29.931 -19.126   5.316  0.00  0.00    +0.210 HD
ENDBRANCH  20  21
ENDBRANCH  18  20
BRANCH  18  23
ATOM     23  O   LIG    1       29.184 -21.529   6.717  0.00  0.00    -0.387 OA
ATOM     24  H   LIG    1       29.719 -22.135   7.275  0.00  0.00    +0.210 HD
ENDBRANCH  18  23
ENDBRANCH   1  18
TORSDOF 5
ENDMDL
MODEL 9
REMARK VINA RESULT:      -6.6      2.599      6.115
REMARK  Name = *****
REMARK                            x       y       z     vdW  Elec       q    Type
REMARK                         _______ _______ _______ _____ _____    ______ ____
ROOT
ATOM      1  C   LIG    1       26.375 -21.502   5.766  0.00  0.00    +0.119 C 
ATOM      2  N   LIG    1       26.994 -20.163   5.652  0.00  0.00    -0.330 N 
ATOM      3  H   LIG    1       26.934 -19.740   4.714  0.00  0.00    +0.147 HD
ATOM      4  C   LIG    1       28.270 -19.978   6.203  0.00  0.00    +0.133 A 
ATOM      5  C   LIG    1       28.800 -20.816   7.129  0.00  0.00    +0.126 A 
ATOM      6  N   LIG    1       30.045 -20.542   7.620  0.00  0.00    -0.315 N 
ATOM      7  H   LIG    1       30.342 -21.063   8.428  0.00  0.00    +0.170 HD
ATOM      8  C   LIG    1       30.713 -19.417   7.264  0.00  0.00    +0.195 A 
ATOM      9  N   LIG    1       30.317 -18.561   6.385  0.00  0.00    -0.176 NA
ATOM     10  N   LIG    1       28.078 -21.932   7.556  0.00  0.00    -0.327 N 
ATOM     11  H   LIG    1       28.291 -22.200   8.511  0.00  0.00    +0.147 HD
ATOM     12  C   LIG    1       29.125 -18.808   5.736  0.00  0.00    +0.297 A 
ATOM     13  O   LIG    1       28.722 -18.122   4.796  0.00  0.00    -0.264 OA
ATOM     14  C   LIG    1       26.647 -22.051   7.203  0.00  0.00    +0.128 C 
ENDROOT
BRANCH   8  15
ATOM     15  N   LIG    1       31.881 -19.242   7.930  0.00  0.00    -0.329 N 
ATOM     16  H   LIG    1       32.033 -18.252   8.108  0.00  0.00    +0.145 HD
ATOM     17  H   LIG    1       32.685 -19.639   7.459  0.00  0.00    +0.145 HD
ENDBRANCH   8  15
BRANCH   1  18
ATOM     18  C   LIG    1       24.856 -21.381   5.498  0.00  0.00    +0.164 C 
BRANCH  18  20
ATOM     19  C   LIG    1       23.251 -20.790   7.390  0.00  0.00    +0.040 C 
ATOM     20  C   LIG    1       24.005 -21.908   6.676  0.00  0.00    +0.142 C 
BRANCH  20  21
ATOM     21  O   LIG    1       23.043 -22.864   6.219  0.00  0.00    -0.389 OA
ATOM     22  H   LIG    1       22.731 -22.554   5.347  0.00  0.00    +0.210 HD
ENDBRANCH  20  21
ENDBRANCH  18  20
BRANCH  18  23
ATOM     23  O   LIG    1       24.533 -22.130   4.312  0.00  0.00    -0.387 OA
ATOM     24  H   LIG    1       25.396 -22.281   3.869  0.00  0.00    +0.210 HD
ENDBRANCH  18  23
ENDBRANCH   1  18
TORSDOF 5
ENDMDL
