MODEL 1
REMARK VINA RESULT:      -8.6      0.000      0.000
REMARK  Name = *****
REMARK                            x       y       z     vdW  Elec       q    Type
REMARK                         _______ _______ _______ _____ _____    ______ ____
ROOT
ATOM      1  C   LIG    1       26.379 -21.224   8.328  0.00  0.00    -0.027 C 
ATOM      2  C   LIG    1       27.374 -20.443   7.880  0.00  0.00    -0.027 C 
ENDROOT
BRANCH   1   3
ATOM      3  C   LIG    1       26.135 -22.695   8.221  0.00  0.00    +0.054 C 
BRANCH   3   5
ATOM      4  C   LIG    1       24.618 -23.375   6.271  0.00  0.00    -0.027 C 
ATOM      5  C   LIG    1       25.819 -23.239   6.861  0.00  0.00    -0.027 C 
BRANCH   4   6
ATOM      6  C   LIG    1       23.274 -22.943   6.788  0.00  0.00    +0.054 C 
BRANCH   6   8
ATOM      7  C   LIG    1       22.871 -20.435   6.548  0.00  0.00    -0.027 C 
ATOM      8  C   LIG    1       23.244 -21.517   7.257  0.00  0.00    -0.027 C 
BRANCH   7   9
ATOM      9  C   LIG    1       22.374 -20.422   5.120  0.00  0.00    +0.054 C 
BRANCH   9  11
ATOM     10  C   LIG    1       23.835 -18.858   3.695  0.00  0.00    -0.031 C 
ATOM     11  C   LIG    1       22.733 -19.146   4.409  0.00  0.00    -0.027 C 
BRANCH  10  13
ATOM     12  C   LIG    1       25.862 -19.995   4.615  0.00  0.00    +0.008 C 
ATOM     13  C   LIG    1       25.032 -19.710   3.371  0.00  0.00    +0.023 C 
ENDBRANCH  10  13
ENDBRANCH   9  11
ENDBRANCH   7   9
ENDBRANCH   6   8
ENDBRANCH   4   6
ENDBRANCH   3   5
ENDBRANCH   1   3
BRANCH   2  14
ATOM     14  C   LIG    1       28.579 -20.785   7.049  0.00  0.00    +0.054 C 
BRANCH  14  15
ATOM     15  C   LIG    1       29.059 -19.545   6.339  0.00  0.00    -0.027 C 
ATOM     16  C   LIG    1       30.227 -18.899   6.473  0.00  0.00    -0.031 C 
BRANCH  16  17
ATOM     17  C   LIG    1       31.367 -19.244   7.380  0.00  0.00    +0.027 C 
BRANCH  17  18
ATOM     18  C   LIG    1       31.573 -18.202   8.488  0.00  0.00    +0.015 C 
BRANCH  18  19
ATOM     19  C   LIG    1       30.288 -17.679   9.131  0.00  0.00    +0.121 C 
BRANCH  19  20
ATOM     20  C   LIG    1       30.404 -17.459  10.612  0.00  0.00    +0.305 C 
ATOM     21  O   LIG    1       30.250 -16.358  11.164  0.00  0.00    -0.251 OA
BRANCH  20  22
ATOM     22  O   LIG    1       30.729 -18.562  11.308  0.00  0.00    -0.481 OA
ATOM     23  H   LIG    1       31.644 -18.553  11.658  0.00  0.00    +0.295 HD
ENDBRANCH  20  22
ENDBRANCH  19  20
ENDBRANCH  18  19
ENDBRANCH  17  18
ENDBRANCH  16  17
ENDBRANCH  14  15
ENDBRANCH   2  14
TORSDOF 14
ENDMDL
MODEL 2
REMARK VINA RESULT:      -8.5      2.133      4.456
REMARK  Name = *****
REMARK                            x       y       z     vdW  Elec       q    Type
REMARK                         _______ _______ _______ _____ _____    ______ ____
ROOT
ATOM      1  C   LIG    1       25.811 -19.804   4.374  0.00  0.00    -0.027 C 
ATOM      2  C   LIG    1       26.748 -19.952   5.323  0.00  0.00    -0.027 C 
ENDROOT
BRANCH   1   3
ATOM      3  C   LIG    1       24.536 -20.537   4.103  0.00  0.00    +0.054 C 
BRANCH   3   5
ATOM      4  C   LIG    1       22.819 -20.253   5.984  0.00  0.00    -0.027 C 
ATOM      5  C   LIG    1       23.292 -20.007   4.749  0.00  0.00    -0.027 C 
BRANCH   4   6
ATOM      6  C   LIG    1       23.455 -21.065   7.078  0.00  0.00    +0.054 C 
BRANCH   6   8
ATOM      7  C   LIG    1       23.363 -23.588   6.704  0.00  0.00    -0.027 C 
ATOM      8  C   LIG    1       22.872 -22.442   7.214  0.00  0.00    -0.027 C 
BRANCH   7   9
ATOM      9  C   LIG    1       24.630 -23.741   5.894  0.00  0.00    +0.054 C 
BRANCH   9  11
ATOM     10  C   LIG    1       26.132 -25.751   6.453  0.00  0.00    -0.031 C 
ATOM     11  C   LIG    1       25.692 -24.495   6.645  0.00  0.00    -0.027 C 
BRANCH  10  13
ATOM     12  C   LIG    1       24.397 -27.428   5.802  0.00  0.00    +0.008 C 
ATOM     13  C   LIG    1       25.723 -26.778   5.432  0.00  0.00    +0.023 C 
ENDBRANCH  10  13
ENDBRANCH   9  11
ENDBRANCH   7   9
ENDBRANCH   6   8
ENDBRANCH   4   6
ENDBRANCH   3   5
ENDBRANCH   1   3
BRANCH   2  14
ATOM     14  C   LIG    1       26.864 -20.968   6.424  0.00  0.00    +0.054 C 
BRANCH  14  15
ATOM     15  C   LIG    1       27.431 -20.304   7.653  0.00  0.00    -0.027 C 
ATOM     16  C   LIG    1       28.634 -19.736   7.821  0.00  0.00    -0.031 C 
BRANCH  16  17
ATOM     17  C   LIG    1       29.743 -19.622   6.821  0.00  0.00    +0.027 C 
BRANCH  17  18
ATOM     18  C   LIG    1       31.130 -19.761   7.463  0.00  0.00    +0.015 C 
BRANCH  18  19
ATOM     19  C   LIG    1       31.121 -20.109   8.953  0.00  0.00    +0.121 C 
BRANCH  19  20
ATOM     20  C   LIG    1       31.330 -21.571   9.229  0.00  0.00    +0.305 C 
ATOM     21  O   LIG    1       30.798 -22.182  10.170  0.00  0.00    -0.251 OA
BRANCH  20  22
ATOM     22  O   LIG    1       32.180 -22.175   8.382  0.00  0.00    -0.481 OA
ATOM     23  H   LIG    1       31.776 -22.905   7.869  0.00  0.00    +0.295 HD
ENDBRANCH  20  22
ENDBRANCH  19  20
ENDBRANCH  18  19
ENDBRANCH  17  18
ENDBRANCH  16  17
ENDBRANCH  14  15
ENDBRANCH   2  14
TORSDOF 14
ENDMDL
MODEL 3
REMARK VINA RESULT:      -8.4      1.852      2.303
REMARK  Name = *****
REMARK                            x       y       z     vdW  Elec       q    Type
REMARK                         _______ _______ _______ _____ _____    ______ ____
ROOT
ATOM      1  C   LIG    1       26.387 -22.770   7.736  0.00  0.00    -0.027 C 
ATOM      2  C   LIG    1       26.831 -21.540   8.038  0.00  0.00    -0.027 C 
ENDROOT
BRANCH   1   3
ATOM      3  C   LIG    1       25.814 -23.348   6.482  0.00  0.00    +0.054 C 
BRANCH   3   5
ATOM      4  C   LIG    1       23.494 -24.414   6.704  0.00  0.00    -0.027 C 
ATOM      5  C   LIG    1       24.835 -24.473   6.633  0.00  0.00    -0.027 C 
BRANCH   4   6
ATOM      6  C   LIG    1       22.608 -23.206   6.572  0.00  0.00    +0.054 C 
BRANCH   6   8
ATOM      7  C   LIG    1       23.256 -20.780   7.030  0.00  0.00    -0.027 C 
ATOM      8  C   LIG    1       23.043 -22.050   7.426  0.00  0.00    -0.027 C 
BRANCH   7   9
ATOM      9  C   LIG    1       23.080 -20.232   5.633  0.00  0.00    +0.054 C 
BRANCH   9  11
ATOM     10  C   LIG    1       24.871 -19.906   3.817  0.00  0.00    -0.031 C 
ATOM     11  C   LIG    1       24.201 -20.645   4.719  0.00  0.00    -0.027 C 
BRANCH  10  13
ATOM     12  C   LIG    1       26.088 -17.769   3.375  0.00  0.00    +0.008 C 
ATOM     13  C   LIG    1       24.730 -18.453   3.455  0.00  0.00    +0.023 C 
ENDBRANCH  10  13
ENDBRANCH   9  11
ENDBRANCH   7   9
ENDBRANCH   6   8
ENDBRANCH   4   6
ENDBRANCH   3   5
ENDBRANCH   1   3
BRANCH   2  14
ATOM     14  C   LIG    1       26.848 -20.283   7.214  0.00  0.00    +0.054 C 
BRANCH  14  15
ATOM     15  C   LIG    1       27.884 -20.417   6.129  0.00  0.00    -0.027 C 
ATOM     16  C   LIG    1       28.982 -19.675   5.919  0.00  0.00    -0.031 C 
BRANCH  16  17
ATOM     17  C   LIG    1       29.462 -18.501   6.716  0.00  0.00    +0.027 C 
BRANCH  17  18
ATOM     18  C   LIG    1       30.118 -18.918   8.039  0.00  0.00    +0.015 C 
BRANCH  18  19
ATOM     19  C   LIG    1       31.236 -19.953   7.909  0.00  0.00    +0.121 C 
BRANCH  19  20
ATOM     20  C   LIG    1       31.092 -21.113   8.853  0.00  0.00    +0.305 C 
ATOM     21  O   LIG    1       30.011 -21.669   9.109  0.00  0.00    -0.251 OA
BRANCH  20  22
ATOM     22  O   LIG    1       32.240 -21.492   9.438  0.00  0.00    -0.481 OA
ATOM     23  H   LIG    1       32.175 -22.341   9.924  0.00  0.00    +0.295 HD
ENDBRANCH  20  22
ENDBRANCH  19  20
ENDBRANCH  18  19
ENDBRANCH  17  18
ENDBRANCH  16  17
ENDBRANCH  14  15
ENDBRANCH   2  14
TORSDOF 14
ENDMDL
MODEL 4
REMARK VINA RESULT:      -8.4      1.581      4.000
REMARK  Name = *****
REMARK                            x       y       z     vdW  Elec       q    Type
REMARK                         _______ _______ _______ _____ _____    ______ ____
ROOT
ATOM      1  C   LIG    1       26.014 -19.959   4.609  0.00  0.00    -0.027 C 
ATOM      2  C   LIG    1       26.818 -19.978   5.683  0.00  0.00    -0.027 C 
ENDROOT
BRANCH   1   3
ATOM      3  C   LIG    1       24.724 -20.654   4.311  0.00  0.00    +0.054 C 
BRANCH   3   5
ATOM      4  C   LIG    1       22.923 -20.345   6.109  0.00  0.00    -0.027 C 
ATOM      5  C   LIG    1       23.481 -20.074   4.915  0.00  0.00    -0.027 C 
BRANCH   4   6
ATOM      6  C   LIG    1       23.444 -21.245   7.195  0.00  0.00    +0.054 C 
BRANCH   6   8
ATOM      7  C   LIG    1       23.478 -23.725   6.592  0.00  0.00    -0.027 C 
ATOM      8  C   LIG    1       22.891 -22.639   7.131  0.00  0.00    -0.027 C 
BRANCH   7   9
ATOM      9  C   LIG    1       24.844 -23.781   5.948  0.00  0.00    +0.054 C 
BRANCH   9  11
ATOM     10  C   LIG    1       26.157 -25.924   6.488  0.00  0.00    -0.031 C 
ATOM     11  C   LIG    1       25.798 -24.649   6.721  0.00  0.00    -0.027 C 
BRANCH  10  13
ATOM     12  C   LIG    1       24.443 -27.579   5.736  0.00  0.00    +0.008 C 
ATOM     13  C   LIG    1       25.742 -26.865   5.390  0.00  0.00    +0.023 C 
ENDBRANCH  10  13
ENDBRANCH   9  11
ENDBRANCH   7   9
ENDBRANCH   6   8
ENDBRANCH   4   6
ENDBRANCH   3   5
ENDBRANCH   1   3
BRANCH   2  14
ATOM     14  C   LIG    1       26.721 -20.771   6.957  0.00  0.00    +0.054 C 
BRANCH  14  15
ATOM     15  C   LIG    1       28.054 -21.411   7.245  0.00  0.00    -0.027 C 
ATOM     16  C   LIG    1       29.234 -20.822   7.488  0.00  0.00    -0.031 C 
BRANCH  16  17
ATOM     17  C   LIG    1       29.537 -19.356   7.527  0.00  0.00    +0.027 C 
BRANCH  17  18
ATOM     18  C   LIG    1       30.411 -18.968   8.727  0.00  0.00    +0.015 C 
BRANCH  18  19
ATOM     19  C   LIG    1       30.215 -17.538   9.234  0.00  0.00    +0.121 C 
BRANCH  19  20
ATOM     20  C   LIG    1       30.405 -17.396  10.718  0.00  0.00    +0.305 C 
ATOM     21  O   LIG    1       30.317 -16.319  11.328  0.00  0.00    -0.251 OA
BRANCH  20  22
ATOM     22  O   LIG    1       30.717 -18.543  11.345  0.00  0.00    -0.481 OA
ATOM     23  H   LIG    1       30.992 -18.422  12.277  0.00  0.00    +0.295 HD
ENDBRANCH  20  22
ENDBRANCH  19  20
ENDBRANCH  18  19
ENDBRANCH  17  18
ENDBRANCH  16  17
ENDBRANCH  14  15
ENDBRANCH   2  14
TORSDOF 14
ENDMDL
MODEL 5
REMARK VINA RESULT:      -8.2      4.989      8.240
REMARK  Name = *****
REMARK                            x       y       z     vdW  Elec       q    Type
REMARK                         _______ _______ _______ _____ _____    ______ ____
ROOT
ATOM      1  C   LIG    1       22.950 -22.711   7.080  0.00  0.00    -0.027 C 
ATOM      2  C   LIG    1       23.601 -23.770   6.574  0.00  0.00    -0.027 C 
ENDROOT
BRANCH   1   3
ATOM      3  C   LIG    1       23.329 -21.271   7.210  0.00  0.00    +0.054 C 
BRANCH   3   5
ATOM      4  C   LIG    1       23.364 -20.112   4.924  0.00  0.00    -0.027 C 
ATOM      5  C   LIG    1       22.842 -20.337   6.143  0.00  0.00    -0.027 C 
BRANCH   4   6
ATOM      6  C   LIG    1       24.534 -20.797   4.273  0.00  0.00    +0.054 C 
BRANCH   6   8
ATOM      7  C   LIG    1       26.662 -19.873   5.335  0.00  0.00    -0.027 C 
ATOM      8  C   LIG    1       25.796 -19.986   4.309  0.00  0.00    -0.027 C 
BRANCH   7   9
ATOM      9  C   LIG    1       26.562 -20.561   6.677  0.00  0.00    +0.054 C 
BRANCH   9  11
ATOM     10  C   LIG    1       28.970 -20.916   7.503  0.00  0.00    -0.031 C 
ATOM     11  C   LIG    1       27.801 -21.350   7.001  0.00  0.00    -0.027 C 
BRANCH  10  13
ATOM     12  C   LIG    1       29.843 -18.714   6.706  0.00  0.00    +0.008 C 
ATOM     13  C   LIG    1       29.399 -19.532   7.910  0.00  0.00    +0.023 C 
ENDBRANCH  10  13
ENDBRANCH   9  11
ENDBRANCH   7   9
ENDBRANCH   6   8
ENDBRANCH   4   6
ENDBRANCH   3   5
ENDBRANCH   1   3
BRANCH   2  14
ATOM     14  C   LIG    1       24.989 -23.877   6.007  0.00  0.00    +0.054 C 
BRANCH  14  15
ATOM     15  C   LIG    1       25.765 -24.907   6.787  0.00  0.00    -0.027 C 
ATOM     16  C   LIG    1       26.206 -26.108   6.385  0.00  0.00    -0.031 C 
BRANCH  16  17
ATOM     17  C   LIG    1       26.033 -26.748   5.043  0.00  0.00    +0.027 C 
BRANCH  17  18
ATOM     18  C   LIG    1       25.157 -28.006   5.100  0.00  0.00    +0.015 C 
BRANCH  18  19
ATOM     19  C   LIG    1       25.065 -28.668   6.476  0.00  0.00    +0.121 C 
BRANCH  19  20
ATOM     20  C   LIG    1       23.928 -29.642   6.599  0.00  0.00    +0.305 C 
ATOM     21  O   LIG    1       23.700 -30.317   7.616  0.00  0.00    -0.251 OA
BRANCH  20  22
ATOM     22  O   LIG    1       23.179 -29.756   5.490  0.00  0.00    -0.481 OA
ATOM     23  H   LIG    1       23.215 -28.970   4.906  0.00  0.00    +0.295 HD
ENDBRANCH  20  22
ENDBRANCH  19  20
ENDBRANCH  18  19
ENDBRANCH  17  18
ENDBRANCH  16  17
ENDBRANCH  14  15
ENDBRANCH   2  14
TORSDOF 14
ENDMDL
MODEL 6
REMARK VINA RESULT:      -8.1      4.667      8.513
REMARK  Name = *****
REMARK                            x       y       z     vdW  Elec       q    Type
REMARK                         _______ _______ _______ _____ _____    ______ ____
ROOT
ATOM      1  C   LIG    1       23.302 -20.751   6.850  0.00  0.00    -0.027 C 
ATOM      2  C   LIG    1       23.258 -21.974   7.400  0.00  0.00    -0.027 C 
ENDROOT
BRANCH   1   3
ATOM      3  C   LIG    1       23.509 -20.293   5.442  0.00  0.00    +0.054 C 
BRANCH   3   5
ATOM      4  C   LIG    1       26.056 -20.571   5.362  0.00  0.00    -0.027 C 
ATOM      5  C   LIG    1       24.831 -20.608   4.809  0.00  0.00    -0.027 C 
BRANCH   4   6
ATOM      6  C   LIG    1       26.422 -20.281   6.792  0.00  0.00    +0.054 C 
BRANCH   6   8
ATOM      7  C   LIG    1       28.843 -20.818   7.394  0.00  0.00    -0.027 C 
ATOM      8  C   LIG    1       27.538 -21.141   7.308  0.00  0.00    -0.027 C 
BRANCH   7   9
ATOM      9  C   LIG    1       29.469 -19.499   7.005  0.00  0.00    +0.054 C 
BRANCH   9  11
ATOM     10  C   LIG    1       31.233 -18.412   8.528  0.00  0.00    -0.031 C 
ATOM     11  C   LIG    1       30.831 -19.317   7.619  0.00  0.00    -0.027 C 
BRANCH  10  13
ATOM     12  C   LIG    1       30.390 -17.570  10.725  0.00  0.00    +0.008 C 
ATOM     13  C   LIG    1       30.460 -17.325   9.224  0.00  0.00    +0.023 C 
ENDBRANCH  10  13
ENDBRANCH   9  11
ENDBRANCH   7   9
ENDBRANCH   6   8
ENDBRANCH   4   6
ENDBRANCH   3   5
ENDBRANCH   1   3
BRANCH   2  14
ATOM     14  C   LIG    1       23.466 -23.328   6.779  0.00  0.00    +0.054 C 
BRANCH  14  15
ATOM     15  C   LIG    1       24.914 -23.720   6.921  0.00  0.00    -0.027 C 
ATOM     16  C   LIG    1       25.643 -24.535   6.145  0.00  0.00    -0.031 C 
BRANCH  16  17
ATOM     17  C   LIG    1       25.199 -25.282   4.926  0.00  0.00    +0.027 C 
BRANCH  17  18
ATOM     18  C   LIG    1       25.442 -26.793   5.042  0.00  0.00    +0.015 C 
BRANCH  18  19
ATOM     19  C   LIG    1       24.458 -27.539   5.944  0.00  0.00    +0.121 C 
BRANCH  19  20
ATOM     20  C   LIG    1       24.377 -29.012   5.655  0.00  0.00    +0.305 C 
ATOM     21  O   LIG    1       25.363 -29.766   5.618  0.00  0.00    -0.251 OA
BRANCH  20  22
ATOM     22  O   LIG    1       23.135 -29.456   5.402  0.00  0.00    -0.481 OA
ATOM     23  H   LIG    1       23.096 -30.404   5.159  0.00  0.00    +0.295 HD
ENDBRANCH  20  22
ENDBRANCH  19  20
ENDBRANCH  18  19
ENDBRANCH  17  18
ENDBRANCH  16  17
ENDBRANCH  14  15
ENDBRANCH   2  14
TORSDOF 14
ENDMDL
MODEL 7
REMARK VINA RESULT:      -8.1      2.528      4.955
REMARK  Name = *****
REMARK                            x       y       z     vdW  Elec       q    Type
REMARK                         _______ _______ _______ _____ _____    ______ ____
ROOT
ATOM      1  C   LIG    1       25.030 -20.519   4.783  0.00  0.00    -0.027 C 
ATOM      2  C   LIG    1       26.015 -20.335   5.675  0.00  0.00    -0.027 C 
ENDROOT
BRANCH   1   3
ATOM      3  C   LIG    1       23.663 -21.112   4.909  0.00  0.00    +0.054 C 
BRANCH   3   5
ATOM      4  C   LIG    1       22.938 -22.359   7.027  0.00  0.00    -0.027 C 
ATOM      5  C   LIG    1       23.101 -21.245   6.292  0.00  0.00    -0.027 C 
BRANCH   4   6
ATOM      6  C   LIG    1       23.351 -23.765   6.689  0.00  0.00    +0.054 C 
BRANCH   6   8
ATOM      7  C   LIG    1       25.633 -24.750   6.109  0.00  0.00    -0.027 C 
ATOM      8  C   LIG    1       24.816 -24.022   6.894  0.00  0.00    -0.027 C 
BRANCH   7   9
ATOM      9  C   LIG    1       25.255 -25.454   4.826  0.00  0.00    +0.054 C 
BRANCH   9  11
ATOM     10  C   LIG    1       25.437 -27.952   5.406  0.00  0.00    -0.031 C 
ATOM     11  C   LIG    1       25.828 -26.843   4.754  0.00  0.00    -0.027 C 
BRANCH  10  13
ATOM     12  C   LIG    1       24.534 -29.407   7.226  0.00  0.00    +0.008 C 
ATOM     13  C   LIG    1       24.311 -28.160   6.382  0.00  0.00    +0.023 C 
ENDBRANCH  10  13
ENDBRANCH   9  11
ENDBRANCH   7   9
ENDBRANCH   6   8
ENDBRANCH   4   6
ENDBRANCH   3   5
ENDBRANCH   1   3
BRANCH   2  14
ATOM     14  C   LIG    1       26.100 -20.726   7.124  0.00  0.00    +0.054 C 
BRANCH  14  15
ATOM     15  C   LIG    1       27.416 -21.416   7.374  0.00  0.00    -0.027 C 
ATOM     16  C   LIG    1       28.600 -20.876   7.700  0.00  0.00    -0.031 C 
BRANCH  16  17
ATOM     17  C   LIG    1       28.926 -19.427   7.893  0.00  0.00    +0.027 C 
BRANCH  17  18
ATOM     18  C   LIG    1       29.896 -18.896   6.830  0.00  0.00    +0.015 C 
BRANCH  18  19
ATOM     19  C   LIG    1       31.370 -19.218   7.082  0.00  0.00    +0.121 C 
BRANCH  19  20
ATOM     20  C   LIG    1       31.904 -18.628   8.356  0.00  0.00    +0.305 C 
ATOM     21  O   LIG    1       32.093 -19.280   9.396  0.00  0.00    -0.251 OA
BRANCH  20  22
ATOM     22  O   LIG    1       32.136 -17.306   8.296  0.00  0.00    -0.481 OA
ATOM     23  H   LIG    1       33.053 -17.077   8.038  0.00  0.00    +0.295 HD
ENDBRANCH  20  22
ENDBRANCH  19  20
ENDBRANCH  18  19
ENDBRANCH  17  18
ENDBRANCH  16  17
ENDBRANCH  14  15
ENDBRANCH   2  14
TORSDOF 14
ENDMDL
MODEL 8
REMARK VINA RESULT:      -8.1      3.121      5.862
REMARK  Name = *****
REMARK                            x       y       z     vdW  Elec       q    Type
REMARK                         _______ _______ _______ _____ _____    ______ ____
ROOT
ATOM      1  C   LIG    1       22.943 -20.369   6.215  0.00  0.00    -0.027 C 
ATOM      2  C   LIG    1       23.436 -20.087   5.000  0.00  0.00    -0.027 C 
ENDROOT
BRANCH   1   3
ATOM      3  C   LIG    1       23.347 -21.366   7.254  0.00  0.00    +0.054 C 
BRANCH   3   5
ATOM      4  C   LIG    1       23.546 -23.817   6.531  0.00  0.00    -0.027 C 
ATOM      5  C   LIG    1       22.880 -22.777   7.065  0.00  0.00    -0.027 C 
BRANCH   4   6
ATOM      6  C   LIG    1       24.970 -23.860   6.051  0.00  0.00    +0.054 C 
BRANCH   6   8
ATOM      7  C   LIG    1       26.146 -26.083   6.486  0.00  0.00    -0.027 C 
ATOM      8  C   LIG    1       25.831 -24.818   6.823  0.00  0.00    -0.027 C 
BRANCH   7   9
ATOM      9  C   LIG    1       25.716 -26.814   5.235  0.00  0.00    +0.054 C 
BRANCH   9  11
ATOM     10  C   LIG    1       24.176 -28.751   5.933  0.00  0.00    -0.031 C 
ATOM     11  C   LIG    1       24.406 -27.529   5.421  0.00  0.00    -0.027 C 
BRANCH  10  13
ATOM     12  C   LIG    1       25.496 -30.817   5.450  0.00  0.00    +0.008 C 
ATOM     13  C   LIG    1       25.136 -29.767   6.491  0.00  0.00    +0.023 C 
ENDBRANCH  10  13
ENDBRANCH   9  11
ENDBRANCH   7   9
ENDBRANCH   6   8
ENDBRANCH   4   6
ENDBRANCH   3   5
ENDBRANCH   1   3
BRANCH   2  14
ATOM     14  C   LIG    1       24.553 -20.735   4.230  0.00  0.00    +0.054 C 
BRANCH  14  15
ATOM     15  C   LIG    1       25.794 -19.889   4.352  0.00  0.00    -0.027 C 
ATOM     16  C   LIG    1       26.738 -19.915   5.304  0.00  0.00    -0.031 C 
BRANCH  16  17
ATOM     17  C   LIG    1       26.799 -20.797   6.512  0.00  0.00    +0.027 C 
BRANCH  17  18
ATOM     18  C   LIG    1       27.788 -20.282   7.567  0.00  0.00    +0.015 C 
BRANCH  18  19
ATOM     19  C   LIG    1       29.189 -19.966   7.041  0.00  0.00    +0.121 C 
BRANCH  19  20
ATOM     20  C   LIG    1       30.291 -20.539   7.886  0.00  0.00    +0.305 C 
ATOM     21  O   LIG    1       30.100 -21.253   8.884  0.00  0.00    -0.251 OA
BRANCH  20  22
ATOM     22  O   LIG    1       31.526 -20.186   7.492  0.00  0.00    -0.481 OA
ATOM     23  H   LIG    1       31.693 -20.333   6.538  0.00  0.00    +0.295 HD
ENDBRANCH  20  22
ENDBRANCH  19  20
ENDBRANCH  18  19
ENDBRANCH  17  18
ENDBRANCH  16  17
ENDBRANCH  14  15
ENDBRANCH   2  14
TORSDOF 14
ENDMDL
MODEL 9
REMARK VINA RESULT:      -8.0      3.013      5.437
REMARK  Name = *****
REMARK                            x       y       z     vdW  Elec       q    Type
REMARK                         _______ _______ _______ _____ _____    ______ ____
ROOT
ATOM      1  C   LIG    1       23.708 -21.095   7.553  0.00  0.00    -0.027 C 
ATOM      2  C   LIG    1       24.967 -20.640   7.632  0.00  0.00    -0.027 C 
ENDROOT
BRANCH   1   3
ATOM      3  C   LIG    1       22.996 -21.898   6.512  0.00  0.00    +0.054 C 
BRANCH   3   5
ATOM      4  C   LIG    1       23.576 -24.394   6.472  0.00  0.00    -0.027 C 
ATOM      5  C   LIG    1       22.787 -23.355   6.797  0.00  0.00    -0.027 C 
BRANCH   4   6
ATOM      6  C   LIG    1       24.923 -24.366   5.804  0.00  0.00    +0.054 C 
BRANCH   6   8
ATOM      7  C   LIG    1       26.360 -26.427   6.250  0.00  0.00    -0.027 C 
ATOM      8  C   LIG    1       25.965 -25.170   6.527  0.00  0.00    -0.027 C 
BRANCH   7   9
ATOM      9  C   LIG    1       25.853 -27.302   5.127  0.00  0.00    +0.054 C 
BRANCH   9  11
ATOM     10  C   LIG    1       24.157 -28.936   6.160  0.00  0.00    -0.031 C 
ATOM     11  C   LIG    1       24.488 -27.863   5.420  0.00  0.00    -0.027 C 
BRANCH  10  13
ATOM     12  C   LIG    1       25.321 -29.363   8.329  0.00  0.00    +0.008 C 
ATOM     13  C   LIG    1       25.027 -29.890   6.931  0.00  0.00    +0.023 C 
ENDBRANCH  10  13
ENDBRANCH   9  11
ENDBRANCH   7   9
ENDBRANCH   6   8
ENDBRANCH   4   6
ENDBRANCH   3   5
ENDBRANCH   1   3
BRANCH   2  14
ATOM     14  C   LIG    1       26.099 -20.737   6.648  0.00  0.00    +0.054 C 
BRANCH  14  15
ATOM     15  C   LIG    1       27.151 -21.668   7.193  0.00  0.00    -0.027 C 
ATOM     16  C   LIG    1       28.447 -21.422   7.436  0.00  0.00    -0.031 C 
BRANCH  16  17
ATOM     17  C   LIG    1       29.195 -20.144   7.215  0.00  0.00    +0.027 C 
BRANCH  17  18
ATOM     18  C   LIG    1       30.589 -20.161   7.857  0.00  0.00    +0.015 C 
BRANCH  18  19
ATOM     19  C   LIG    1       31.470 -18.956   7.521  0.00  0.00    +0.121 C 
BRANCH  19  20
ATOM     20  C   LIG    1       31.930 -18.193   8.731  0.00  0.00    +0.305 C 
ATOM     21  O   LIG    1       31.948 -18.662   9.880  0.00  0.00    -0.251 OA
BRANCH  20  22
ATOM     22  O   LIG    1       32.297 -16.926   8.476  0.00  0.00    -0.481 OA
ATOM     23  H   LIG    1       33.108 -16.647   8.950  0.00  0.00    +0.295 HD
ENDBRANCH  20  22
ENDBRANCH  19  20
ENDBRANCH  18  19
ENDBRANCH  17  18
ENDBRANCH  16  17
ENDBRANCH  14  15
ENDBRANCH   2  14
TORSDOF 14
ENDMDL
