MODEL 1
REMARK VINA RESULT:      -7.9      0.000      0.000
REMARK  Name = *****
REMARK                            x       y       z     vdW  Elec       q    Type
REMARK                         _______ _______ _______ _____ _____    ______ ____
ROOT
ATOM      1  C   LIG    1       25.767 -20.351   6.442  0.00  0.00    +0.253 C 
ATOM      2  C   LIG    1       25.504 -21.153   5.160  0.00  0.00    +0.195 C 
ATOM      3  C   LIG    1       24.023 -21.480   5.284  0.00  0.00    +0.178 C 
ATOM      4  C   LIG    1       23.823 -21.648   6.785  0.00  0.00    +0.178 C 
ATOM      5  O   LIG    1       24.767 -20.754   7.420  0.00  0.00    -0.346 OA
ENDROOT
BRANCH   1  10
ATOM      6  C   LIG    1       30.522 -19.982   7.345  0.00  0.00    +0.147 A 
ATOM      7  C   LIG    1       29.216 -20.482   7.484  0.00  0.00    +0.147 A 
ATOM      8  N   LIG    1       28.678 -21.431   8.328  0.00  0.00    -0.231 NA
ATOM      9  C   LIG    1       27.395 -21.419   8.047  0.00  0.00    +0.203 A 
ATOM     10  N   LIG    1       27.085 -20.576   7.011  0.00  0.00    -0.285 N 
ATOM     11  C   LIG    1       28.249 -19.955   6.640  0.00  0.00    +0.167 A 
ATOM     12  N   LIG    1       28.431 -19.031   5.684  0.00  0.00    -0.216 NA
ATOM     13  C   LIG    1       29.726 -18.655   5.619  0.00  0.00    +0.225 A 
ATOM     14  N   LIG    1       30.764 -19.069   6.379  0.00  0.00    -0.219 NA
BRANCH   6  15
ATOM     15  N   LIG    1       31.577 -20.390   8.151  0.00  0.00    -0.341 N 
ATOM     16  H   LIG    1       31.279 -20.848   9.005  0.00  0.00    +0.144 HD
ATOM     17  H   LIG    1       32.322 -20.818   7.619  0.00  0.00    +0.144 HD
ENDBRANCH   6  15
ENDBRANCH   1  10
BRANCH   2  18
ATOM     18  O   LIG    1       25.757 -20.429   3.956  0.00  0.00    -0.385 OA
ATOM     19  H   LIG    1       26.714 -20.214   3.975  0.00  0.00    +0.210 HD
ENDBRANCH   2  18
BRANCH   3  20
ATOM     20  O   LIG    1       23.284 -20.339   4.803  0.00  0.00    -0.386 OA
ATOM     21  H   LIG    1       23.792 -19.944   4.070  0.00  0.00    +0.210 HD
ENDBRANCH   3  20
BRANCH   4  22
ATOM     22  C   LIG    1       24.058 -23.083   7.278  0.00  0.00    +0.206 C 
BRANCH  22  23
ATOM     23  O   LIG    1       23.548 -24.021   6.343  0.00  0.00    -0.284 OA
BRANCH  23  24
ATOM     24  P   LIG    1       24.491 -25.228   5.893  0.00  0.00    +0.472 P 
ATOM     25  O   LIG    1       23.989 -26.598   6.207  0.00  0.00    -0.228 OA
BRANCH  24  26
ATOM     26  O   LIG    1       25.886 -24.951   6.612  0.00  0.00    -0.303 OA
ATOM     27  H   LIG    1       25.957 -24.001   6.829  0.00  0.00    +0.222 HD
ENDBRANCH  24  26
BRANCH  24  28
ATOM     28  O   LIG    1       24.875 -24.951   4.378  0.00  0.00    -0.303 OA
ATOM     29  H   LIG    1       24.274 -24.318   3.943  0.00  0.00    +0.222 HD
ENDBRANCH  24  28
ENDBRANCH  23  24
ENDBRANCH  22  23
ENDBRANCH   4  22
TORSDOF 9
ENDMDL
MODEL 2
REMARK VINA RESULT:      -7.8      4.941      7.344
REMARK  Name = *****
REMARK                            x       y       z     vdW  Elec       q    Type
REMARK                         _______ _______ _______ _____ _____    ______ ____
ROOT
ATOM      1  C   LIG    1       28.977 -20.407   6.565  0.00  0.00    +0.253 C 
ATOM      2  C   LIG    1       29.229 -18.910   6.342  0.00  0.00    +0.195 C 
ATOM      3  C   LIG    1       30.715 -18.786   6.645  0.00  0.00    +0.178 C 
ATOM      4  C   LIG    1       30.939 -19.822   7.741  0.00  0.00    +0.178 C 
ATOM      5  O   LIG    1       29.995 -20.888   7.486  0.00  0.00    -0.346 OA
ENDROOT
BRANCH   1  10
ATOM      6  C   LIG    1       24.192 -21.108   6.989  0.00  0.00    +0.147 A 
ATOM      7  C   LIG    1       25.530 -21.037   7.414  0.00  0.00    +0.147 A 
ATOM      8  N   LIG    1       26.124 -21.290   8.633  0.00  0.00    -0.231 NA
ATOM      9  C   LIG    1       27.407 -21.127   8.404  0.00  0.00    +0.203 A 
ATOM     10  N   LIG    1       27.670 -20.702   7.127  0.00  0.00    -0.285 N 
ATOM     11  C   LIG    1       26.469 -20.646   6.470  0.00  0.00    +0.167 A 
ATOM     12  N   LIG    1       26.233 -20.306   5.193  0.00  0.00    -0.216 NA
ATOM     13  C   LIG    1       24.916 -20.375   4.912  0.00  0.00    +0.225 A 
ATOM     14  N   LIG    1       23.899 -20.750   5.720  0.00  0.00    -0.219 NA
BRANCH   6  15
ATOM     15  N   LIG    1       23.157 -21.523   7.818  0.00  0.00    -0.341 N 
ATOM     16  H   LIG    1       23.032 -20.934   8.633  0.00  0.00    +0.144 HD
ATOM     17  H   LIG    1       22.335 -21.794   7.297  0.00  0.00    +0.144 HD
ENDBRANCH   6  15
ENDBRANCH   1  10
BRANCH   2  18
ATOM     18  O   LIG    1       28.950 -18.461   5.016  0.00  0.00    -0.385 OA
ATOM     19  H   LIG    1       28.808 -19.275   4.488  0.00  0.00    +0.210 HD
ENDBRANCH   2  18
BRANCH   3  20
ATOM     20  O   LIG    1       31.434 -19.154   5.451  0.00  0.00    -0.386 OA
ATOM     21  H   LIG    1       30.779 -19.423   4.781  0.00  0.00    +0.210 HD
ENDBRANCH   3  20
BRANCH   4  22
ATOM     22  C   LIG    1       30.727 -19.270   9.158  0.00  0.00    +0.206 C 
BRANCH  22  23
ATOM     23  O   LIG    1       31.914 -18.656   9.637  0.00  0.00    -0.284 OA
BRANCH  23  24
ATOM     24  P   LIG    1       31.880 -17.092   9.955  0.00  0.00    +0.472 P 
ATOM     25  O   LIG    1       30.538 -16.521  10.271  0.00  0.00    -0.228 OA
BRANCH  24  26
ATOM     26  O   LIG    1       32.510 -16.396   8.667  0.00  0.00    -0.303 OA
ATOM     27  H   LIG    1       33.483 -16.489   8.690  0.00  0.00    +0.222 HD
ENDBRANCH  24  26
BRANCH  24  28
ATOM     28  O   LIG    1       33.024 -16.832  11.025  0.00  0.00    -0.303 OA
ATOM     29  H   LIG    1       33.177 -15.884  11.195  0.00  0.00    +0.222 HD
ENDBRANCH  24  28
ENDBRANCH  23  24
ENDBRANCH  22  23
ENDBRANCH   4  22
TORSDOF 9
ENDMDL
MODEL 3
REMARK VINA RESULT:      -6.9      4.904      7.406
REMARK  Name = *****
REMARK                            x       y       z     vdW  Elec       q    Type
REMARK                         _______ _______ _______ _____ _____    ______ ____
ROOT
ATOM      1  C   LIG    1       29.210 -20.057   6.488  0.00  0.00    +0.253 C 
ATOM      2  C   LIG    1       29.761 -18.654   6.201  0.00  0.00    +0.195 C 
ATOM      3  C   LIG    1       30.841 -18.510   7.263  0.00  0.00    +0.178 C 
ATOM      4  C   LIG    1       30.277 -19.285   8.448  0.00  0.00    +0.178 C 
ATOM      5  O   LIG    1       29.478 -20.353   7.887  0.00  0.00    -0.346 OA
ENDROOT
BRANCH   1  10
ATOM      6  C   LIG    1       24.495 -20.997   7.157  0.00  0.00    +0.147 A 
ATOM      7  C   LIG    1       25.642 -20.574   6.464  0.00  0.00    +0.147 A 
ATOM      8  N   LIG    1       25.812 -20.039   5.204  0.00  0.00    -0.231 NA
ATOM      9  C   LIG    1       27.096 -19.772   5.139  0.00  0.00    +0.203 A 
ATOM     10  N   LIG    1       27.781 -20.182   6.255  0.00  0.00    -0.285 N 
ATOM     11  C   LIG    1       26.856 -20.695   7.125  0.00  0.00    +0.167 A 
ATOM     12  N   LIG    1       27.057 -21.194   8.355  0.00  0.00    -0.216 NA
ATOM     13  C   LIG    1       25.893 -21.600   8.905  0.00  0.00    +0.225 A 
ATOM     14  N   LIG    1       24.646 -21.532   8.388  0.00  0.00    -0.219 NA
BRANCH   6  15
ATOM     15  N   LIG    1       23.214 -20.895   6.630  0.00  0.00    -0.341 N 
ATOM     16  H   LIG    1       22.786 -19.989   6.782  0.00  0.00    +0.144 HD
ATOM     17  H   LIG    1       23.145 -21.303   5.709  0.00  0.00    +0.144 HD
ENDBRANCH   6  15
ENDBRANCH   1  10
BRANCH   2  18
ATOM     18  O   LIG    1       30.319 -18.499   4.897  0.00  0.00    -0.385 OA
ATOM     19  H   LIG    1       30.876 -19.294   4.754  0.00  0.00    +0.210 HD
ENDBRANCH   2  18
BRANCH   3  20
ATOM     20  O   LIG    1       32.031 -19.153   6.762  0.00  0.00    -0.386 OA
ATOM     21  H   LIG    1       32.501 -19.541   7.524  0.00  0.00    +0.210 HD
ENDBRANCH   3  20
BRANCH   4  22
ATOM     22  C   LIG    1       29.412 -18.429   9.384  0.00  0.00    +0.206 C 
BRANCH  22  23
ATOM     23  O   LIG    1       30.058 -17.198   9.673  0.00  0.00    -0.284 OA
BRANCH  23  24
ATOM     24  P   LIG    1       31.199 -17.187  10.790  0.00  0.00    +0.472 P 
ATOM     25  O   LIG    1       32.602 -17.272  10.288  0.00  0.00    -0.228 OA
BRANCH  24  26
ATOM     26  O   LIG    1       30.856 -18.419  11.742  0.00  0.00    -0.303 OA
ATOM     27  H   LIG    1       31.399 -18.366  12.552  0.00  0.00    +0.222 HD
ENDBRANCH  24  26
BRANCH  24  28
ATOM     28  O   LIG    1       30.869 -15.967  11.750  0.00  0.00    -0.303 OA
ATOM     29  H   LIG    1       31.535 -15.844  12.452  0.00  0.00    +0.222 HD
ENDBRANCH  24  28
ENDBRANCH  23  24
ENDBRANCH  22  23
ENDBRANCH   4  22
TORSDOF 9
ENDMDL
MODEL 4
REMARK VINA RESULT:      -6.7      5.015      7.627
REMARK  Name = *****
REMARK                            x       y       z     vdW  Elec       q    Type
REMARK                         _______ _______ _______ _____ _____    ______ ____
ROOT
ATOM      1  C   LIG    1       28.361 -20.605   8.055  0.00  0.00    +0.253 C 
ATOM      2  C   LIG    1       29.741 -21.091   7.591  0.00  0.00    +0.195 C 
ATOM      3  C   LIG    1       30.673 -20.392   8.569  0.00  0.00    +0.178 C 
ATOM      4  C   LIG    1       29.972 -19.067   8.840  0.00  0.00    +0.178 C 
ATOM      5  O   LIG    1       28.553 -19.332   8.733  0.00  0.00    -0.346 OA
ENDROOT
BRANCH   1  10
ATOM      6  C   LIG    1       24.219 -20.383   5.533  0.00  0.00    +0.147 A 
ATOM      7  C   LIG    1       25.603 -20.283   5.755  0.00  0.00    +0.147 A 
ATOM      8  N   LIG    1       26.640 -19.885   4.937  0.00  0.00    -0.231 NA
ATOM      9  C   LIG    1       27.697 -19.927   5.717  0.00  0.00    +0.203 A 
ATOM     10  N   LIG    1       27.415 -20.411   6.969  0.00  0.00    -0.285 N 
ATOM     11  C   LIG    1       26.065 -20.638   7.014  0.00  0.00    +0.167 A 
ATOM     12  N   LIG    1       25.331 -21.089   8.043  0.00  0.00    -0.216 NA
ATOM     13  C   LIG    1       24.028 -21.178   7.703  0.00  0.00    +0.225 A 
ATOM     14  N   LIG    1       23.439 -20.857   6.529  0.00  0.00    -0.219 NA
BRANCH   6  15
ATOM     15  N   LIG    1       23.618 -20.021   4.334  0.00  0.00    -0.341 N 
ATOM     16  H   LIG    1       24.171 -19.373   3.785  0.00  0.00    +0.144 HD
ATOM     17  H   LIG    1       23.205 -20.812   3.860  0.00  0.00    +0.144 HD
ENDBRANCH   6  15
ENDBRANCH   1  10
BRANCH   2  18
ATOM     18  O   LIG    1       29.916 -22.506   7.658  0.00  0.00    -0.385 OA
ATOM     19  H   LIG    1       30.252 -22.771   6.776  0.00  0.00    +0.210 HD
ENDBRANCH   2  18
BRANCH   3  20
ATOM     20  O   LIG    1       30.721 -21.189   9.769  0.00  0.00    -0.386 OA
ATOM     21  H   LIG    1       30.956 -20.599  10.509  0.00  0.00    +0.210 HD
ENDBRANCH   3  20
BRANCH   4  22
ATOM     22  C   LIG    1       30.364 -17.953   7.857  0.00  0.00    +0.206 C 
BRANCH  22  23
ATOM     23  O   LIG    1       31.698 -17.528   8.093  0.00  0.00    -0.284 OA
BRANCH  23  24
ATOM     24  P   LIG    1       32.027 -16.802   9.475  0.00  0.00    +0.472 P 
ATOM     25  O   LIG    1       32.629 -17.662  10.536  0.00  0.00    -0.228 OA
BRANCH  24  26
ATOM     26  O   LIG    1       30.638 -16.185   9.957  0.00  0.00    -0.303 OA
ATOM     27  H   LIG    1       30.298 -16.702  10.714  0.00  0.00    +0.222 HD
ENDBRANCH  24  26
BRANCH  24  28
ATOM     28  O   LIG    1       32.827 -15.482   9.104  0.00  0.00    -0.303 OA
ATOM     29  H   LIG    1       33.785 -15.634   9.000  0.00  0.00    +0.222 HD
ENDBRANCH  24  28
ENDBRANCH  23  24
ENDBRANCH  22  23
ENDBRANCH   4  22
TORSDOF 9
ENDMDL
MODEL 5
REMARK VINA RESULT:      -6.5      1.701      2.765
REMARK  Name = *****
REMARK                            x       y       z     vdW  Elec       q    Type
REMARK                         _______ _______ _______ _____ _____    ______ ____
ROOT
ATOM      1  C   LIG    1       24.821 -21.487   6.772  0.00  0.00    +0.253 C 
ATOM      2  C   LIG    1       23.622 -21.697   5.837  0.00  0.00    +0.195 C 
ATOM      3  C   LIG    1       23.166 -23.100   6.211  0.00  0.00    +0.178 C 
ATOM      4  C   LIG    1       24.466 -23.813   6.564  0.00  0.00    +0.178 C 
ATOM      5  O   LIG    1       25.343 -22.802   7.114  0.00  0.00    -0.346 OA
ENDROOT
BRANCH   1  10
ATOM      6  C   LIG    1       29.069 -19.226   6.135  0.00  0.00    +0.147 A 
ATOM      7  C   LIG    1       27.773 -19.657   5.804  0.00  0.00    +0.147 A 
ATOM      8  N   LIG    1       27.012 -19.498   4.665  0.00  0.00    -0.231 NA
ATOM      9  C   LIG    1       25.918 -20.182   4.912  0.00  0.00    +0.203 A 
ATOM     10  N   LIG    1       25.893 -20.704   6.180  0.00  0.00    -0.285 N 
ATOM     11  C   LIG    1       27.087 -20.383   6.768  0.00  0.00    +0.167 A 
ATOM     12  N   LIG    1       27.523 -20.701   7.997  0.00  0.00    -0.216 NA
ATOM     13  C   LIG    1       28.759 -20.205   8.213  0.00  0.00    +0.225 A 
ATOM     14  N   LIG    1       29.544 -19.498   7.369  0.00  0.00    -0.219 NA
BRANCH   6  15
ATOM     15  N   LIG    1       29.881 -18.527   5.250  0.00  0.00    -0.341 N 
ATOM     16  H   LIG    1       29.370 -18.096   4.489  0.00  0.00    +0.144 HD
ATOM     17  H   LIG    1       30.579 -17.974   5.727  0.00  0.00    +0.144 HD
ENDBRANCH   6  15
ENDBRANCH   1  10
BRANCH   2  18
ATOM     18  O   LIG    1       22.562 -20.760   6.025  0.00  0.00    -0.385 OA
ATOM     19  H   LIG    1       22.474 -20.289   5.169  0.00  0.00    +0.210 HD
ENDBRANCH   2  18
BRANCH   3  20
ATOM     20  O   LIG    1       22.324 -22.986   7.376  0.00  0.00    -0.386 OA
ATOM     21  H   LIG    1       21.922 -23.860   7.539  0.00  0.00    +0.210 HD
ENDBRANCH   3  20
BRANCH   4  22
ATOM     22  C   LIG    1       25.142 -24.485   5.360  0.00  0.00    +0.206 C 
BRANCH  22  23
ATOM     23  O   LIG    1       26.242 -25.275   5.783  0.00  0.00    -0.284 OA
BRANCH  23  24
ATOM     24  P   LIG    1       26.128 -26.862   5.650  0.00  0.00    +0.472 P 
ATOM     25  O   LIG    1       24.818 -27.381   5.157  0.00  0.00    -0.228 OA
BRANCH  24  26
ATOM     26  O   LIG    1       26.455 -27.422   7.106  0.00  0.00    -0.303 OA
ATOM     27  H   LIG    1       27.159 -26.879   7.513  0.00  0.00    +0.222 HD
ENDBRANCH  24  26
BRANCH  24  28
ATOM     28  O   LIG    1       27.416 -27.334   4.851  0.00  0.00    -0.303 OA
ATOM     29  H   LIG    1       28.236 -27.264   5.375  0.00  0.00    +0.222 HD
ENDBRANCH  24  28
ENDBRANCH  23  24
ENDBRANCH  22  23
ENDBRANCH   4  22
TORSDOF 9
ENDMDL
MODEL 6
REMARK VINA RESULT:      -6.5      2.091      3.970
REMARK  Name = *****
REMARK                            x       y       z     vdW  Elec       q    Type
REMARK                         _______ _______ _______ _____ _____    ______ ____
ROOT
ATOM      1  C   LIG    1       27.373 -21.553   7.070  0.00  0.00    +0.253 C 
ATOM      2  C   LIG    1       26.166 -21.230   7.960  0.00  0.00    +0.195 C 
ATOM      3  C   LIG    1       25.003 -21.743   7.122  0.00  0.00    +0.178 C 
ATOM      4  C   LIG    1       25.457 -21.482   5.691  0.00  0.00    +0.178 C 
ATOM      5  O   LIG    1       26.899 -21.611   5.696  0.00  0.00    -0.346 OA
ENDROOT
BRANCH   1  10
ATOM      6  C   LIG    1       31.526 -19.336   8.253  0.00  0.00    +0.147 A 
ATOM      7  C   LIG    1       30.279 -19.491   7.626  0.00  0.00    +0.147 A 
ATOM      8  N   LIG    1       29.584 -18.688   6.746  0.00  0.00    -0.231 NA
ATOM      9  C   LIG    1       28.514 -19.390   6.447  0.00  0.00    +0.203 A 
ATOM     10  N   LIG    1       28.437 -20.566   7.149  0.00  0.00    -0.285 N 
ATOM     11  C   LIG    1       29.573 -20.652   7.910  0.00  0.00    +0.167 A 
ATOM     12  N   LIG    1       29.946 -21.638   8.740  0.00  0.00    -0.216 NA
ATOM     13  C   LIG    1       31.138 -21.362   9.310  0.00  0.00    +0.225 A 
ATOM     14  N   LIG    1       31.936 -20.288   9.119  0.00  0.00    -0.219 NA
BRANCH   6  15
ATOM     15  N   LIG    1       32.354 -18.243   8.027  0.00  0.00    -0.341 N 
ATOM     16  H   LIG    1       32.023 -17.632   7.290  0.00  0.00    +0.144 HD
ATOM     17  H   LIG    1       32.672 -17.820   8.887  0.00  0.00    +0.144 HD
ENDBRANCH   6  15
ENDBRANCH   1  10
BRANCH   2  18
ATOM     18  O   LIG    1       26.187 -21.876   9.232  0.00  0.00    -0.385 OA
ATOM     19  H   LIG    1       26.058 -22.830   9.045  0.00  0.00    +0.210 HD
ENDBRANCH   2  18
BRANCH   3  20
ATOM     20  O   LIG    1       24.887 -23.160   7.361  0.00  0.00    -0.386 OA
ATOM     21  H   LIG    1       24.538 -23.571   6.549  0.00  0.00    +0.210 HD
ENDBRANCH   3  20
BRANCH   4  22
ATOM     22  C   LIG    1       25.065 -20.093   5.167  0.00  0.00    +0.206 C 
BRANCH  22  23
ATOM     23  O   LIG    1       23.986 -20.192   4.250  0.00  0.00    -0.284 OA
BRANCH  23  24
ATOM     24  P   LIG    1       22.512 -19.888   4.781  0.00  0.00    +0.472 P 
ATOM     25  O   LIG    1       21.797 -18.764   4.109  0.00  0.00    -0.228 OA
BRANCH  24  26
ATOM     26  O   LIG    1       22.686 -19.605   6.340  0.00  0.00    -0.303 OA
ATOM     27  H   LIG    1       21.875 -19.184   6.687  0.00  0.00    +0.222 HD
ENDBRANCH  24  26
BRANCH  24  28
ATOM     28  O   LIG    1       21.755 -21.283   4.813  0.00  0.00    -0.303 OA
ATOM     29  H   LIG    1       22.342 -22.039   4.626  0.00  0.00    +0.222 HD
ENDBRANCH  24  28
ENDBRANCH  23  24
ENDBRANCH  22  23
ENDBRANCH   4  22
TORSDOF 9
ENDMDL
MODEL 7
REMARK VINA RESULT:      -6.4      1.250      2.145
REMARK  Name = *****
REMARK                            x       y       z     vdW  Elec       q    Type
REMARK                         _______ _______ _______ _____ _____    ______ ____
ROOT
ATOM      1  C   LIG    1       25.594 -20.831   6.373  0.00  0.00    +0.253 C 
ATOM      2  C   LIG    1       25.089 -21.430   5.053  0.00  0.00    +0.195 C 
ATOM      3  C   LIG    1       24.202 -22.568   5.537  0.00  0.00    +0.178 C 
ATOM      4  C   LIG    1       24.900 -23.046   6.804  0.00  0.00    +0.178 C 
ATOM      5  O   LIG    1       25.535 -21.880   7.379  0.00  0.00    -0.346 OA
ENDROOT
BRANCH   1  10
ATOM      6  C   LIG    1       30.297 -20.123   7.342  0.00  0.00    +0.147 A 
ATOM      7  C   LIG    1       29.078 -19.951   6.665  0.00  0.00    +0.147 A 
ATOM      8  N   LIG    1       28.737 -19.199   5.560  0.00  0.00    -0.231 NA
ATOM      9  C   LIG    1       27.475 -19.497   5.348  0.00  0.00    +0.203 A 
ATOM     10  N   LIG    1       26.958 -20.334   6.304  0.00  0.00    -0.285 N 
ATOM     11  C   LIG    1       27.982 -20.644   7.158  0.00  0.00    +0.167 A 
ATOM     12  N   LIG    1       27.956 -21.450   8.231  0.00  0.00    -0.216 NA
ATOM     13  C   LIG    1       29.169 -21.508   8.820  0.00  0.00    +0.225 A 
ATOM     14  N   LIG    1       30.318 -20.903   8.445  0.00  0.00    -0.219 NA
BRANCH   6  15
ATOM     15  N   LIG    1       31.481 -19.521   6.932  0.00  0.00    -0.341 N 
ATOM     16  H   LIG    1       32.310 -20.035   7.206  0.00  0.00    +0.144 HD
ATOM     17  H   LIG    1       31.427 -19.179   5.984  0.00  0.00    +0.144 HD
ENDBRANCH   6  15
ENDBRANCH   1  10
BRANCH   2  18
ATOM     18  O   LIG    1       24.340 -20.521   4.247  0.00  0.00    -0.385 OA
ATOM     19  H   LIG    1       23.816 -19.982   4.876  0.00  0.00    +0.210 HD
ENDBRANCH   2  18
BRANCH   3  20
ATOM     20  O   LIG    1       22.912 -22.008   5.855  0.00  0.00    -0.386 OA
ATOM     21  H   LIG    1       22.976 -21.039   5.758  0.00  0.00    +0.210 HD
ENDBRANCH   3  20
BRANCH   4  22
ATOM     22  C   LIG    1       25.952 -24.136   6.550  0.00  0.00    +0.206 C 
BRANCH  22  23
ATOM     23  O   LIG    1       25.500 -25.389   7.040  0.00  0.00    -0.284 OA
BRANCH  23  24
ATOM     24  P   LIG    1       25.037 -26.491   5.982  0.00  0.00    +0.472 P 
ATOM     25  O   LIG    1       25.119 -27.909   6.441  0.00  0.00    -0.228 OA
BRANCH  24  26
ATOM     26  O   LIG    1       25.958 -26.248   4.704  0.00  0.00    -0.303 OA
ATOM     27  H   LIG    1       25.568 -25.543   4.151  0.00  0.00    +0.222 HD
ENDBRANCH  24  26
BRANCH  24  28
ATOM     28  O   LIG    1       23.628 -26.012   5.430  0.00  0.00    -0.303 OA
ATOM     29  H   LIG    1       22.907 -26.636   5.635  0.00  0.00    +0.222 HD
ENDBRANCH  24  28
ENDBRANCH  23  24
ENDBRANCH  22  23
ENDBRANCH   4  22
TORSDOF 9
ENDMDL
MODEL 8
REMARK VINA RESULT:      -6.2      4.561      6.531
REMARK  Name = *****
REMARK                            x       y       z     vdW  Elec       q    Type
REMARK                         _______ _______ _______ _____ _____    ______ ____
ROOT
ATOM      1  C   LIG    1       24.644 -26.329   5.716  0.00  0.00    +0.253 C 
ATOM      2  C   LIG    1       25.840 -27.149   5.213  0.00  0.00    +0.195 C 
ATOM      3  C   LIG    1       25.401 -28.574   5.516  0.00  0.00    +0.178 C 
ATOM      4  C   LIG    1       24.585 -28.429   6.795  0.00  0.00    +0.178 C 
ATOM      5  O   LIG    1       23.969 -27.121   6.733  0.00  0.00    -0.346 OA
ENDROOT
BRANCH   1  10
ATOM      6  C   LIG    1       24.359 -21.891   7.662  0.00  0.00    +0.147 A 
ATOM      7  C   LIG    1       24.987 -23.051   7.179  0.00  0.00    +0.147 A 
ATOM      8  N   LIG    1       26.314 -23.426   7.126  0.00  0.00    -0.231 NA
ATOM      9  C   LIG    1       26.282 -24.647   6.641  0.00  0.00    +0.203 A 
ATOM     10  N   LIG    1       25.017 -25.050   6.299  0.00  0.00    -0.285 N 
ATOM     11  C   LIG    1       24.166 -24.035   6.647  0.00  0.00    +0.167 A 
ATOM     12  N   LIG    1       22.830 -23.989   6.524  0.00  0.00    -0.216 NA
ATOM     13  C   LIG    1       22.345 -22.817   6.984  0.00  0.00    +0.225 A 
ATOM     14  N   LIG    1       23.018 -21.783   7.537  0.00  0.00    -0.219 NA
BRANCH   6  15
ATOM     15  N   LIG    1       25.056 -20.846   8.256  0.00  0.00    -0.341 N 
ATOM     16  H   LIG    1       26.013 -21.082   8.493  0.00  0.00    +0.144 HD
ATOM     17  H   LIG    1       24.885 -19.962   7.797  0.00  0.00    +0.144 HD
ENDBRANCH   6  15
ENDBRANCH   1  10
BRANCH   2  18
ATOM     18  O   LIG    1       26.111 -26.995   3.821  0.00  0.00    -0.385 OA
ATOM     19  H   LIG    1       25.530 -26.264   3.519  0.00  0.00    +0.210 HD
ENDBRANCH   2  18
BRANCH   3  20
ATOM     20  O   LIG    1       24.559 -29.009   4.430  0.00  0.00    -0.386 OA
ATOM     21  H   LIG    1       24.316 -28.222   3.908  0.00  0.00    +0.210 HD
ENDBRANCH   3  20
BRANCH   4  22
ATOM     22  C   LIG    1       25.426 -28.544   8.075  0.00  0.00    +0.206 C 
BRANCH  22  23
ATOM     23  O   LIG    1       25.160 -29.770   8.738  0.00  0.00    -0.284 OA
BRANCH  23  24
ATOM     24  P   LIG    1       26.399 -30.643   9.239  0.00  0.00    +0.472 P 
ATOM     25  O   LIG    1       26.158 -31.478  10.452  0.00  0.00    -0.228 OA
BRANCH  24  26
ATOM     26  O   LIG    1       27.569 -29.590   9.492  0.00  0.00    -0.303 OA
ATOM     27  H   LIG    1       27.789 -29.570  10.444  0.00  0.00    +0.222 HD
ENDBRANCH  24  26
BRANCH  24  28
ATOM     28  O   LIG    1       26.953 -31.404   7.960  0.00  0.00    -0.303 OA
ATOM     29  H   LIG    1       26.732 -30.953   7.124  0.00  0.00    +0.222 HD
ENDBRANCH  24  28
ENDBRANCH  23  24
ENDBRANCH  22  23
ENDBRANCH   4  22
TORSDOF 9
ENDMDL
MODEL 9
REMARK VINA RESULT:      -6.1      5.032      7.351
REMARK  Name = *****
REMARK                            x       y       z     vdW  Elec       q    Type
REMARK                         _______ _______ _______ _____ _____    ______ ____
ROOT
ATOM      1  C   LIG    1       24.332 -27.983   6.216  0.00  0.00    +0.253 C 
ATOM      2  C   LIG    1       25.027 -29.101   5.427  0.00  0.00    +0.195 C 
ATOM      3  C   LIG    1       24.662 -30.338   6.234  0.00  0.00    +0.178 C 
ATOM      4  C   LIG    1       24.616 -29.824   7.668  0.00  0.00    +0.178 C 
ATOM      5  O   LIG    1       24.183 -28.445   7.588  0.00  0.00    -0.346 OA
ENDROOT
BRANCH   1  10
ATOM      6  C   LIG    1       25.385 -23.256   6.539  0.00  0.00    +0.147 A 
ATOM      7  C   LIG    1       25.638 -24.626   6.355  0.00  0.00    +0.147 A 
ATOM      8  N   LIG    1       26.807 -25.325   6.140  0.00  0.00    -0.231 NA
ATOM      9  C   LIG    1       26.429 -26.583   6.120  0.00  0.00    +0.203 A 
ATOM     10  N   LIG    1       25.069 -26.731   6.228  0.00  0.00    -0.285 N 
ATOM     11  C   LIG    1       24.543 -25.477   6.389  0.00  0.00    +0.167 A 
ATOM     12  N   LIG    1       23.258 -25.129   6.558  0.00  0.00    -0.216 NA
ATOM     13  C   LIG    1       23.134 -23.791   6.686  0.00  0.00    +0.225 A 
ATOM     14  N   LIG    1       24.105 -22.850   6.687  0.00  0.00    -0.219 NA
BRANCH   6  15
ATOM     15  N   LIG    1       26.392 -22.299   6.569  0.00  0.00    -0.341 N 
ATOM     16  H   LIG    1       27.000 -22.378   7.377  0.00  0.00    +0.144 HD
ATOM     17  H   LIG    1       26.820 -22.166   5.664  0.00  0.00    +0.144 HD
ENDBRANCH   6  15
ENDBRANCH   1  10
BRANCH   2  18
ATOM     18  O   LIG    1       24.577 -29.233   4.079  0.00  0.00    -0.385 OA
ATOM     19  H   LIG    1       24.913 -28.439   3.611  0.00  0.00    +0.210 HD
ENDBRANCH   2  18
BRANCH   3  20
ATOM     20  O   LIG    1       23.351 -30.762   5.810  0.00  0.00    -0.386 OA
ATOM     21  H   LIG    1       23.458 -31.572   5.277  0.00  0.00    +0.210 HD
ENDBRANCH   3  20
BRANCH   4  22
ATOM     22  C   LIG    1       25.969 -29.900   8.390  0.00  0.00    +0.206 C 
BRANCH  22  23
ATOM     23  O   LIG    1       26.188 -28.730   9.163  0.00  0.00    -0.284 OA
BRANCH  23  24
ATOM     24  P   LIG    1       26.715 -28.901  10.660  0.00  0.00    +0.472 P 
ATOM     25  O   LIG    1       27.105 -27.643  11.361  0.00  0.00    -0.228 OA
BRANCH  24  26
ATOM     26  O   LIG    1       27.950 -29.903  10.551  0.00  0.00    -0.303 OA
ATOM     27  H   LIG    1       28.477 -29.861  11.373  0.00  0.00    +0.222 HD
ENDBRANCH  24  26
BRANCH  24  28
ATOM     28  O   LIG    1       25.652 -29.817  11.403  0.00  0.00    -0.303 OA
ATOM     29  H   LIG    1       25.135 -29.333  12.074  0.00  0.00    +0.222 HD
ENDBRANCH  24  28
ENDBRANCH  23  24
ENDBRANCH  22  23
ENDBRANCH   4  22
TORSDOF 9
ENDMDL
