MODEL 1
REMARK VINA RESULT:      -5.8      0.000      0.000
REMARK  Name = *****
REMARK                            x       y       z     vdW  Elec       q    Type
REMARK                         _______ _______ _______ _____ _____    ______ ____
ROOT
ATOM      1  O   LIG    1       26.354 -17.845   2.858  0.00  0.00    -0.287 OA
ATOM      2  C   LIG    1       25.356 -17.395   3.420  0.00  0.00    +0.193 C 
ENDROOT
BRANCH   2   3
ATOM      3  C   LIG    1       24.306 -18.338   3.887  0.00  0.00    +0.022 A 
ATOM      4  C   LIG    1       24.681 -19.655   4.180  0.00  0.00    +0.012 A 
ATOM      5  C   LIG    1       23.734 -20.570   4.641  0.00  0.00    +0.001 A 
ATOM      6  C   LIG    1       22.410 -20.170   4.821  0.00  0.00    +0.000 A 
ATOM      7  C   LIG    1       22.034 -18.854   4.551  0.00  0.00    +0.001 A 
ATOM      8  C   LIG    1       22.982 -17.934   4.094  0.00  0.00    +0.012 A 
ENDBRANCH   2   3
BRANCH   2   9
ATOM      9  C   LIG    1       25.241 -15.926   3.610  0.00  0.00    +0.022 A 
ATOM     10  C   LIG    1       24.067 -15.327   4.082  0.00  0.00    +0.012 A 
ATOM     11  C   LIG    1       24.004 -13.939   4.229  0.00  0.00    +0.001 A 
ATOM     12  C   LIG    1       25.102 -13.148   3.891  0.00  0.00    +0.000 A 
ATOM     13  C   LIG    1       26.264 -13.738   3.396  0.00  0.00    +0.001 A 
ATOM     14  C   LIG    1       26.332 -15.124   3.250  0.00  0.00    +0.012 A 
ENDBRANCH   2   9
TORSDOF 2
ENDMDL
MODEL 2
REMARK VINA RESULT:      -5.8      3.201      4.868
REMARK  Name = *****
REMARK                            x       y       z     vdW  Elec       q    Type
REMARK                         _______ _______ _______ _____ _____    ______ ____
ROOT
ATOM      1  O   LIG    1       26.063 -18.559   3.492  0.00  0.00    -0.287 OA
ATOM      2  C   LIG    1       25.712 -19.353   4.363  0.00  0.00    +0.193 C 
ENDROOT
BRANCH   2   3
ATOM      3  C   LIG    1       24.276 -19.722   4.465  0.00  0.00    +0.022 A 
ATOM      4  C   LIG    1       23.317 -18.728   4.230  0.00  0.00    +0.012 A 
ATOM      5  C   LIG    1       21.957 -19.033   4.293  0.00  0.00    +0.001 A 
ATOM      6  C   LIG    1       21.549 -20.335   4.584  0.00  0.00    +0.000 A 
ATOM      7  C   LIG    1       22.498 -21.334   4.799  0.00  0.00    +0.001 A 
ATOM      8  C   LIG    1       23.861 -21.032   4.731  0.00  0.00    +0.012 A 
ENDBRANCH   2   3
BRANCH   2   9
ATOM      9  C   LIG    1       26.739 -19.912   5.280  0.00  0.00    +0.022 A 
ATOM     10  C   LIG    1       26.439 -20.914   6.211  0.00  0.00    +0.012 A 
ATOM     11  C   LIG    1       27.436 -21.396   7.061  0.00  0.00    +0.001 A 
ATOM     12  C   LIG    1       28.727 -20.870   6.997  0.00  0.00    +0.000 A 
ATOM     13  C   LIG    1       29.023 -19.854   6.089  0.00  0.00    +0.001 A 
ATOM     14  C   LIG    1       28.030 -19.371   5.236  0.00  0.00    +0.012 A 
ENDBRANCH   2   9
TORSDOF 2
ENDMDL
MODEL 3
REMARK VINA RESULT:      -5.8      0.012      5.058
REMARK  Name = *****
REMARK                            x       y       z     vdW  Elec       q    Type
REMARK                         _______ _______ _______ _____ _____    ______ ____
ROOT
ATOM      1  O   LIG    1       26.347 -17.856   2.854  0.00  0.00    -0.287 OA
ATOM      2  C   LIG    1       25.356 -17.400   3.420  0.00  0.00    +0.193 C 
ENDROOT
BRANCH   2   3
ATOM      3  C   LIG    1       25.246 -15.929   3.608  0.00  0.00    +0.022 A 
ATOM      4  C   LIG    1       26.339 -15.131   3.244  0.00  0.00    +0.012 A 
ATOM      5  C   LIG    1       26.275 -13.745   3.383  0.00  0.00    +0.001 A 
ATOM      6  C   LIG    1       25.115 -13.148   3.878  0.00  0.00    +0.000 A 
ATOM      7  C   LIG    1       24.017 -13.935   4.222  0.00  0.00    +0.001 A 
ATOM      8  C   LIG    1       24.076 -15.323   4.079  0.00  0.00    +0.012 A 
ENDBRANCH   2   3
BRANCH   2   9
ATOM      9  C   LIG    1       24.304 -18.338   3.893  0.00  0.00    +0.022 A 
ATOM     10  C   LIG    1       22.981 -17.929   4.097  0.00  0.00    +0.012 A 
ATOM     11  C   LIG    1       22.032 -18.845   4.557  0.00  0.00    +0.001 A 
ATOM     12  C   LIG    1       22.405 -20.162   4.830  0.00  0.00    +0.000 A 
ATOM     13  C   LIG    1       23.727 -20.566   4.653  0.00  0.00    +0.001 A 
ATOM     14  C   LIG    1       24.678 -19.654   4.191  0.00  0.00    +0.012 A 
ENDBRANCH   2   9
TORSDOF 2
ENDMDL
MODEL 4
REMARK VINA RESULT:      -5.8      3.319      5.664
REMARK  Name = *****
REMARK                            x       y       z     vdW  Elec       q    Type
REMARK                         _______ _______ _______ _____ _____    ______ ____
ROOT
ATOM      1  O   LIG    1       26.155 -18.553   3.543  0.00  0.00    -0.287 OA
ATOM      2  C   LIG    1       25.955 -19.323   4.481  0.00  0.00    +0.193 C 
ENDROOT
BRANCH   2   3
ATOM      3  C   LIG    1       27.094 -19.701   5.359  0.00  0.00    +0.022 A 
ATOM      4  C   LIG    1       26.926 -20.782   6.234  0.00  0.00    +0.012 A 
ATOM      5  C   LIG    1       27.974 -21.185   7.062  0.00  0.00    +0.001 A 
ATOM      6  C   LIG    1       29.197 -20.516   7.013  0.00  0.00    +0.000 A 
ATOM      7  C   LIG    1       29.377 -19.453   6.129  0.00  0.00    +0.001 A 
ATOM      8  C   LIG    1       28.331 -19.050   5.295  0.00  0.00    +0.012 A 
ENDBRANCH   2   3
BRANCH   2   9
ATOM      9  C   LIG    1       24.581 -19.846   4.699  0.00  0.00    +0.022 A 
ATOM     10  C   LIG    1       24.347 -21.120   5.232  0.00  0.00    +0.012 A 
ATOM     11  C   LIG    1       23.036 -21.572   5.405  0.00  0.00    +0.001 A 
ATOM     12  C   LIG    1       21.962 -20.764   5.032  0.00  0.00    +0.000 A 
ATOM     13  C   LIG    1       22.192 -19.506   4.476  0.00  0.00    +0.001 A 
ATOM     14  C   LIG    1       23.499 -19.049   4.305  0.00  0.00    +0.012 A 
ENDBRANCH   2   9
TORSDOF 2
ENDMDL
MODEL 5
REMARK VINA RESULT:      -5.7      0.788      1.482
REMARK  Name = *****
REMARK                            x       y       z     vdW  Elec       q    Type
REMARK                         _______ _______ _______ _____ _____    ______ ____
ROOT
ATOM      1  O   LIG    1       26.927 -17.107   3.296  0.00  0.00    -0.287 OA
ATOM      2  C   LIG    1       25.748 -16.792   3.451  0.00  0.00    +0.193 C 
ENDROOT
BRANCH   2   3
ATOM      3  C   LIG    1       24.748 -17.858   3.720  0.00  0.00    +0.022 A 
ATOM      4  C   LIG    1       25.173 -19.193   3.678  0.00  0.00    +0.012 A 
ATOM      5  C   LIG    1       24.275 -20.226   3.944  0.00  0.00    +0.001 A 
ATOM      6  C   LIG    1       22.949 -19.931   4.261  0.00  0.00    +0.000 A 
ATOM      7  C   LIG    1       22.524 -18.605   4.325  0.00  0.00    +0.001 A 
ATOM      8  C   LIG    1       23.423 -17.567   4.064  0.00  0.00    +0.012 A 
ENDBRANCH   2   3
BRANCH   2   9
ATOM      9  C   LIG    1       25.371 -15.358   3.364  0.00  0.00    +0.022 A 
ATOM     10  C   LIG    1       26.080 -14.449   2.569  0.00  0.00    +0.012 A 
ATOM     11  C   LIG    1       25.694 -13.107   2.533  0.00  0.00    +0.001 A 
ATOM     12  C   LIG    1       24.615 -12.667   3.299  0.00  0.00    +0.000 A 
ATOM     13  C   LIG    1       23.922 -13.564   4.112  0.00  0.00    +0.001 A 
ATOM     14  C   LIG    1       24.302 -14.906   4.149  0.00  0.00    +0.012 A 
ENDBRANCH   2   9
TORSDOF 2
ENDMDL
MODEL 6
REMARK VINA RESULT:      -5.7      0.801      5.145
REMARK  Name = *****
REMARK                            x       y       z     vdW  Elec       q    Type
REMARK                         _______ _______ _______ _____ _____    ______ ____
ROOT
ATOM      1  O   LIG    1       26.961 -17.100   3.298  0.00  0.00    -0.287 OA
ATOM      2  C   LIG    1       25.780 -16.793   3.449  0.00  0.00    +0.193 C 
ENDROOT
BRANCH   2   3
ATOM      3  C   LIG    1       25.390 -15.362   3.355  0.00  0.00    +0.022 A 
ATOM      4  C   LIG    1       24.321 -14.913   4.141  0.00  0.00    +0.012 A 
ATOM      5  C   LIG    1       23.932 -13.574   4.102  0.00  0.00    +0.001 A 
ATOM      6  C   LIG    1       24.616 -12.675   3.283  0.00  0.00    +0.000 A 
ATOM      7  C   LIG    1       25.694 -13.111   2.514  0.00  0.00    +0.001 A 
ATOM      8  C   LIG    1       26.089 -14.450   2.555  0.00  0.00    +0.012 A 
ENDBRANCH   2   3
BRANCH   2   9
ATOM      9  C   LIG    1       24.788 -17.867   3.718  0.00  0.00    +0.022 A 
ATOM     10  C   LIG    1       23.455 -17.584   4.038  0.00  0.00    +0.012 A 
ATOM     11  C   LIG    1       22.565 -18.629   4.297  0.00  0.00    +0.001 A 
ATOM     12  C   LIG    1       23.005 -19.952   4.254  0.00  0.00    +0.000 A 
ATOM     13  C   LIG    1       24.338 -20.236   3.961  0.00  0.00    +0.001 A 
ATOM     14  C   LIG    1       25.230 -19.196   3.699  0.00  0.00    +0.012 A 
ENDBRANCH   2   9
TORSDOF 2
ENDMDL
MODEL 7
REMARK VINA RESULT:      -5.6      0.403      1.337
REMARK  Name = *****
REMARK                            x       y       z     vdW  Elec       q    Type
REMARK                         _______ _______ _______ _____ _____    ______ ____
ROOT
ATOM      1  O   LIG    1       26.101 -18.076   2.582  0.00  0.00    -0.287 OA
ATOM      2  C   LIG    1       25.258 -17.664   3.377  0.00  0.00    +0.193 C 
ENDROOT
BRANCH   2   3
ATOM      3  C   LIG    1       24.352 -18.641   4.037  0.00  0.00    +0.022 A 
ATOM      4  C   LIG    1       22.976 -18.377   4.033  0.00  0.00    +0.012 A 
ATOM      5  C   LIG    1       22.086 -19.275   4.621  0.00  0.00    +0.001 A 
ATOM      6  C   LIG    1       22.565 -20.445   5.210  0.00  0.00    +0.000 A 
ATOM      7  C   LIG    1       23.931 -20.725   5.199  0.00  0.00    +0.001 A 
ATOM      8  C   LIG    1       24.825 -19.830   4.605  0.00  0.00    +0.012 A 
ENDBRANCH   2   3
BRANCH   2   9
ATOM      9  C   LIG    1       25.179 -16.205   3.648  0.00  0.00    +0.022 A 
ATOM     10  C   LIG    1       23.994 -15.590   4.070  0.00  0.00    +0.012 A 
ATOM     11  C   LIG    1       23.967 -14.212   4.297  0.00  0.00    +0.001 A 
ATOM     12  C   LIG    1       25.113 -13.445   4.088  0.00  0.00    +0.000 A 
ATOM     13  C   LIG    1       26.288 -14.050   3.642  0.00  0.00    +0.001 A 
ATOM     14  C   LIG    1       26.320 -15.426   3.417  0.00  0.00    +0.012 A 
ENDBRANCH   2   9
TORSDOF 2
ENDMDL
MODEL 8
REMARK VINA RESULT:      -5.6      0.487      5.159
REMARK  Name = *****
REMARK                            x       y       z     vdW  Elec       q    Type
REMARK                         _______ _______ _______ _____ _____    ______ ____
ROOT
ATOM      1  O   LIG    1       26.090 -18.167   2.604  0.00  0.00    -0.287 OA
ATOM      2  C   LIG    1       25.247 -17.755   3.399  0.00  0.00    +0.193 C 
ENDROOT
BRANCH   2   3
ATOM      3  C   LIG    1       25.159 -16.295   3.664  0.00  0.00    +0.022 A 
ATOM      4  C   LIG    1       26.297 -15.510   3.437  0.00  0.00    +0.012 A 
ATOM      5  C   LIG    1       26.255 -14.133   3.652  0.00  0.00    +0.001 A 
ATOM      6  C   LIG    1       25.074 -13.531   4.087  0.00  0.00    +0.000 A 
ATOM      7  C   LIG    1       23.932 -14.303   4.295  0.00  0.00    +0.001 A 
ATOM      8  C   LIG    1       23.969 -15.683   4.075  0.00  0.00    +0.012 A 
ENDBRANCH   2   3
BRANCH   2   9
ATOM      9  C   LIG    1       24.348 -18.735   4.063  0.00  0.00    +0.022 A 
ATOM     10  C   LIG    1       24.833 -19.909   4.651  0.00  0.00    +0.012 A 
ATOM     11  C   LIG    1       23.946 -20.806   5.250  0.00  0.00    +0.001 A 
ATOM     12  C   LIG    1       22.576 -20.543   5.248  0.00  0.00    +0.000 A 
ATOM     13  C   LIG    1       22.086 -19.387   4.640  0.00  0.00    +0.001 A 
ATOM     14  C   LIG    1       22.969 -18.487   4.043  0.00  0.00    +0.012 A 
ENDBRANCH   2   9
TORSDOF 2
ENDMDL
MODEL 9
REMARK VINA RESULT:      -5.6      1.634      5.647
REMARK  Name = *****
REMARK                            x       y       z     vdW  Elec       q    Type
REMARK                         _______ _______ _______ _____ _____    ______ ____
ROOT
ATOM      1  O   LIG    1       22.589 -15.163   5.158  0.00  0.00    -0.287 OA
ATOM      2  C   LIG    1       23.428 -15.678   4.421  0.00  0.00    +0.193 C 
ENDROOT
BRANCH   2   3
ATOM      3  C   LIG    1       24.396 -14.803   3.709  0.00  0.00    +0.022 A 
ATOM      4  C   LIG    1       23.933 -13.588   3.189  0.00  0.00    +0.012 A 
ATOM      5  C   LIG    1       24.810 -12.725   2.532  0.00  0.00    +0.001 A 
ATOM      6  C   LIG    1       26.155 -13.068   2.398  0.00  0.00    +0.000 A 
ATOM      7  C   LIG    1       26.627 -14.267   2.932  0.00  0.00    +0.001 A 
ATOM      8  C   LIG    1       25.752 -15.131   3.596  0.00  0.00    +0.012 A 
ENDBRANCH   2   3
BRANCH   2   9
ATOM      9  C   LIG    1       23.440 -17.157   4.272  0.00  0.00    +0.022 A 
ATOM     10  C   LIG    1       24.533 -17.840   3.725  0.00  0.00    +0.012 A 
ATOM     11  C   LIG    1       24.491 -19.230   3.593  0.00  0.00    +0.001 A 
ATOM     12  C   LIG    1       23.355 -19.936   3.989  0.00  0.00    +0.000 A 
ATOM     13  C   LIG    1       22.255 -19.257   4.510  0.00  0.00    +0.001 A 
ATOM     14  C   LIG    1       22.294 -17.869   4.647  0.00  0.00    +0.012 A 
ENDBRANCH   2   9
TORSDOF 2
ENDMDL
