MODEL 1
REMARK VINA RESULT:      -6.5      0.000      0.000
REMARK  Name = *****
REMARK                            x       y       z     vdW  Elec       q    Type
REMARK                         _______ _______ _______ _____ _____    ______ ____
ROOT
ATOM      1  C   LIG    1       25.108 -21.405   6.356  0.00  0.00    -0.007 C 
ATOM      2  C   LIG    1       23.708 -21.328   7.029  0.00  0.00    +0.009 C 
ATOM      3  C   LIG    1       22.743 -22.451   6.647  0.00  0.00    +0.001 C 
ATOM      4  C   LIG    1       23.362 -23.833   6.808  0.00  0.00    +0.000 C 
ATOM      5  C   LIG    1       24.695 -23.944   6.083  0.00  0.00    +0.001 C 
ATOM      6  C   LIG    1       25.665 -22.848   6.524  0.00  0.00    +0.009 C 
ENDROOT
BRANCH   1   7
ATOM      7  C   LIG    1       24.991 -21.001   4.858  0.00  0.00    +0.085 C 
BRANCH   7   8
ATOM      8  N   LIG    1       26.147 -20.236   4.375  0.00  0.00    -0.329 NA
ATOM      9  H   LIG    1       26.924 -20.374   5.029  0.00  0.00    +0.118 HD
ATOM     10  H   LIG    1       26.484 -20.672   3.511  0.00  0.00    +0.118 HD
ENDBRANCH   7   8
ENDBRANCH   1   7
BRANCH   1  11
ATOM     11  C   LIG    1       26.076 -20.431   7.094  0.00  0.00    +0.128 C 
BRANCH  11  12
ATOM     12  C   LIG    1       26.526 -20.908   8.457  0.00  0.00    +0.305 C 
ATOM     13  O   LIG    1       25.830 -20.871   9.471  0.00  0.00    -0.251 OA
BRANCH  12  14
ATOM     14  O   LIG    1       27.804 -21.356   8.466  0.00  0.00    -0.481 OA
ATOM     15  H   LIG    1       27.860 -22.347   8.473  0.00  0.00    +0.295 HD
ENDBRANCH  12  14
ENDBRANCH  11  12
ENDBRANCH   1  11
TORSDOF 5
ENDMDL
MODEL 2
REMARK VINA RESULT:      -6.4      1.974      3.181
REMARK  Name = *****
REMARK                            x       y       z     vdW  Elec       q    Type
REMARK                         _______ _______ _______ _____ _____    ______ ____
ROOT
ATOM      1  C   LIG    1       24.078 -21.982   6.731  0.00  0.00    -0.007 C 
ATOM      2  C   LIG    1       24.795 -22.069   5.355  0.00  0.00    +0.009 C 
ATOM      3  C   LIG    1       24.017 -21.477   4.179  0.00  0.00    +0.001 C 
ATOM      4  C   LIG    1       23.522 -20.065   4.458  0.00  0.00    +0.000 C 
ATOM      5  C   LIG    1       22.746 -19.985   5.764  0.00  0.00    +0.001 C 
ATOM      6  C   LIG    1       23.565 -20.527   6.936  0.00  0.00    +0.009 C 
ENDROOT
BRANCH   1   7
ATOM      7  C   LIG    1       22.916 -23.016   6.783  0.00  0.00    +0.085 C 
BRANCH   7   8
ATOM      8  N   LIG    1       23.342 -24.380   6.445  0.00  0.00    -0.329 NA
ATOM      9  H   LIG    1       23.966 -24.333   5.634  0.00  0.00    +0.118 HD
ATOM     10  H   LIG    1       23.952 -24.721   7.194  0.00  0.00    +0.118 HD
ENDBRANCH   7   8
ENDBRANCH   1   7
BRANCH   1  11
ATOM     11  C   LIG    1       25.109 -22.287   7.859  0.00  0.00    +0.128 C 
BRANCH  11  12
ATOM     12  C   LIG    1       26.024 -21.132   8.201  0.00  0.00    +0.305 C 
ATOM     13  O   LIG    1       26.892 -20.687   7.451  0.00  0.00    -0.251 OA
BRANCH  12  14
ATOM     14  O   LIG    1       25.818 -20.645   9.448  0.00  0.00    -0.481 OA
ATOM     15  H   LIG    1       26.327 -21.142  10.139  0.00  0.00    +0.295 HD
ENDBRANCH  12  14
ENDBRANCH  11  12
ENDBRANCH   1  11
TORSDOF 5
ENDMDL
MODEL 3
REMARK VINA RESULT:      -6.3      4.503      5.985
REMARK  Name = *****
REMARK                            x       y       z     vdW  Elec       q    Type
REMARK                         _______ _______ _______ _____ _____    ______ ____
ROOT
ATOM      1  C   LIG    1       30.298 -19.769   7.973  0.00  0.00    -0.007 C 
ATOM      2  C   LIG    1       29.195 -20.857   7.840  0.00  0.00    +0.009 C 
ATOM      3  C   LIG    1       27.949 -20.426   7.066  0.00  0.00    +0.001 C 
ATOM      4  C   LIG    1       28.285 -19.809   5.715  0.00  0.00    +0.000 C 
ATOM      5  C   LIG    1       29.303 -18.686   5.844  0.00  0.00    +0.001 C 
ATOM      6  C   LIG    1       30.565 -19.155   6.568  0.00  0.00    +0.009 C 
ENDROOT
BRANCH   1   7
ATOM      7  C   LIG    1       29.847 -18.689   8.999  0.00  0.00    +0.085 C 
BRANCH   7   8
ATOM      8  N   LIG    1       30.629 -18.714  10.242  0.00  0.00    -0.329 NA
ATOM      9  H   LIG    1       30.028 -19.062  10.995  0.00  0.00    +0.118 HD
ATOM     10  H   LIG    1       31.347 -19.439  10.156  0.00  0.00    +0.118 HD
ENDBRANCH   7   8
ENDBRANCH   1   7
BRANCH   1  11
ATOM     11  C   LIG    1       31.617 -20.444   8.457  0.00  0.00    +0.128 C 
BRANCH  11  12
ATOM     12  C   LIG    1       31.423 -21.778   9.144  0.00  0.00    +0.305 C 
ATOM     13  O   LIG    1       30.773 -21.940  10.175  0.00  0.00    -0.251 OA
BRANCH  12  14
ATOM     14  O   LIG    1       32.074 -22.792   8.524  0.00  0.00    -0.481 OA
ATOM     15  H   LIG    1       33.057 -22.659   8.508  0.00  0.00    +0.295 HD
ENDBRANCH  12  14
ENDBRANCH  11  12
ENDBRANCH   1  11
TORSDOF 5
ENDMDL
MODEL 4
REMARK VINA RESULT:      -6.2      1.040      1.384
REMARK  Name = *****
REMARK                            x       y       z     vdW  Elec       q    Type
REMARK                         _______ _______ _______ _____ _____    ______ ____
ROOT
ATOM      1  C   LIG    1       24.602 -22.194   6.577  0.00  0.00    -0.007 C 
ATOM      2  C   LIG    1       23.355 -23.069   6.881  0.00  0.00    +0.009 C 
ATOM      3  C   LIG    1       23.425 -24.504   6.356  0.00  0.00    +0.001 C 
ATOM      4  C   LIG    1       24.711 -25.211   6.759  0.00  0.00    +0.000 C 
ATOM      5  C   LIG    1       25.944 -24.399   6.390  0.00  0.00    +0.001 C 
ATOM      6  C   LIG    1       25.879 -22.988   6.976  0.00  0.00    +0.009 C 
ENDROOT
BRANCH   1   7
ATOM      7  C   LIG    1       24.613 -21.803   5.070  0.00  0.00    +0.085 C 
BRANCH   7   8
ATOM      8  N   LIG    1       25.691 -20.869   4.724  0.00  0.00    -0.329 NA
ATOM      9  H   LIG    1       25.654 -20.076   5.372  0.00  0.00    +0.118 HD
ATOM     10  H   LIG    1       26.587 -21.315   4.946  0.00  0.00    +0.118 HD
ENDBRANCH   7   8
ENDBRANCH   1   7
BRANCH   1  11
ATOM     11  C   LIG    1       24.545 -20.909   7.457  0.00  0.00    +0.128 C 
BRANCH  11  12
ATOM     12  C   LIG    1       25.801 -20.641   8.257  0.00  0.00    +0.305 C 
ATOM     13  O   LIG    1       25.900 -20.809   9.471  0.00  0.00    -0.251 OA
BRANCH  12  14
ATOM     14  O   LIG    1       26.815 -20.155   7.502  0.00  0.00    -0.481 OA
ATOM     15  H   LIG    1       26.861 -19.164   7.518  0.00  0.00    +0.295 HD
ENDBRANCH  12  14
ENDBRANCH  11  12
ENDBRANCH   1  11
TORSDOF 5
ENDMDL
MODEL 5
REMARK VINA RESULT:      -6.1      2.737      3.775
REMARK  Name = *****
REMARK                            x       y       z     vdW  Elec       q    Type
REMARK                         _______ _______ _______ _____ _____    ______ ____
ROOT
ATOM      1  C   LIG    1       24.754 -21.621   6.834  0.00  0.00    -0.007 C 
ATOM      2  C   LIG    1       23.238 -21.277   6.831  0.00  0.00    +0.009 C 
ATOM      3  C   LIG    1       22.863 -20.007   6.067  0.00  0.00    +0.001 C 
ATOM      4  C   LIG    1       23.441 -19.980   4.659  0.00  0.00    +0.000 C 
ATOM      5  C   LIG    1       24.941 -20.234   4.658  0.00  0.00    +0.001 C 
ATOM      6  C   LIG    1       25.288 -21.539   5.375  0.00  0.00    +0.009 C 
ENDROOT
BRANCH   1   7
ATOM      7  C   LIG    1       25.511 -20.646   7.782  0.00  0.00    +0.085 C 
BRANCH   7   8
ATOM      8  N   LIG    1       25.788 -21.224   9.102  0.00  0.00    -0.329 NA
ATOM      9  H   LIG    1       25.495 -22.205   9.095  0.00  0.00    +0.118 HD
ATOM     10  H   LIG    1       26.805 -21.281   9.221  0.00  0.00    +0.118 HD
ENDBRANCH   7   8
ENDBRANCH   1   7
BRANCH   1  11
ATOM     11  C   LIG    1       24.938 -23.089   7.327  0.00  0.00    +0.128 C 
BRANCH  11  12
ATOM     12  C   LIG    1       24.485 -24.142   6.341  0.00  0.00    +0.305 C 
ATOM     13  O   LIG    1       25.198 -24.628   5.465  0.00  0.00    -0.251 OA
BRANCH  12  14
ATOM     14  O   LIG    1       23.182 -24.484   6.493  0.00  0.00    -0.481 OA
ATOM     15  H   LIG    1       23.049 -25.174   7.193  0.00  0.00    +0.295 HD
ENDBRANCH  12  14
ENDBRANCH  11  12
ENDBRANCH   1  11
TORSDOF 5
ENDMDL
MODEL 6
REMARK VINA RESULT:      -6.1      1.818      3.177
REMARK  Name = *****
REMARK                            x       y       z     vdW  Elec       q    Type
REMARK                         _______ _______ _______ _____ _____    ______ ____
ROOT
ATOM      1  C   LIG    1       24.257 -21.010   6.229  0.00  0.00    -0.007 C 
ATOM      2  C   LIG    1       25.345 -20.469   5.260  0.00  0.00    +0.009 C 
ATOM      3  C   LIG    1       24.845 -20.103   3.862  0.00  0.00    +0.001 C 
ATOM      4  C   LIG    1       23.628 -19.189   3.897  0.00  0.00    +0.000 C 
ATOM      5  C   LIG    1       22.523 -19.751   4.779  0.00  0.00    +0.001 C 
ATOM      6  C   LIG    1       23.031 -20.053   6.189  0.00  0.00    +0.009 C 
ENDROOT
BRANCH   1   7
ATOM      7  C   LIG    1       23.870 -22.462   5.823  0.00  0.00    +0.085 C 
BRANCH   7   8
ATOM      8  N   LIG    1       24.952 -23.176   5.135  0.00  0.00    -0.329 NA
ATOM      9  H   LIG    1       25.687 -23.387   5.817  0.00  0.00    +0.118 HD
ATOM     10  H   LIG    1       24.605 -24.103   4.866  0.00  0.00    +0.118 HD
ENDBRANCH   7   8
ENDBRANCH   1   7
BRANCH   1  11
ATOM     11  C   LIG    1       24.823 -20.999   7.681  0.00  0.00    +0.128 C 
BRANCH  11  12
ATOM     12  C   LIG    1       26.302 -21.299   7.779  0.00  0.00    +0.305 C 
ATOM     13  O   LIG    1       26.822 -22.357   7.427  0.00  0.00    -0.251 OA
BRANCH  12  14
ATOM     14  O   LIG    1       27.012 -20.287   8.335  0.00  0.00    -0.481 OA
ATOM     15  H   LIG    1       27.284 -20.482   9.269  0.00  0.00    +0.295 HD
ENDBRANCH  12  14
ENDBRANCH  11  12
ENDBRANCH   1  11
TORSDOF 5
ENDMDL
MODEL 7
REMARK VINA RESULT:      -6.1      2.830      4.132
REMARK  Name = *****
REMARK                            x       y       z     vdW  Elec       q    Type
REMARK                         _______ _______ _______ _____ _____    ______ ____
ROOT
ATOM      1  C   LIG    1       24.809 -21.284   6.811  0.00  0.00    -0.007 C 
ATOM      2  C   LIG    1       25.495 -21.021   8.181  0.00  0.00    +0.009 C 
ATOM      3  C   LIG    1       27.024 -21.025   8.152  0.00  0.00    +0.001 C 
ATOM      4  C   LIG    1       27.590 -20.122   7.065  0.00  0.00    +0.000 C 
ATOM      5  C   LIG    1       26.985 -20.428   5.703  0.00  0.00    +0.001 C 
ATOM      6  C   LIG    1       25.458 -20.359   5.741  0.00  0.00    +0.009 C 
ENDROOT
BRANCH   1   7
ATOM      7  C   LIG    1       24.949 -22.788   6.436  0.00  0.00    +0.085 C 
BRANCH   7   8
ATOM      8  N   LIG    1       24.797 -23.041   4.998  0.00  0.00    -0.329 NA
ATOM      9  H   LIG    1       25.562 -23.650   4.693  0.00  0.00    +0.118 HD
ATOM     10  H   LIG    1       23.963 -23.619   4.859  0.00  0.00    +0.118 HD
ENDBRANCH   7   8
ENDBRANCH   1   7
BRANCH   1  11
ATOM     11  C   LIG    1       23.302 -20.903   6.919  0.00  0.00    +0.128 C 
BRANCH  11  12
ATOM     12  C   LIG    1       22.686 -20.410   5.628  0.00  0.00    +0.305 C 
ATOM     13  O   LIG    1       22.496 -19.225   5.356  0.00  0.00    -0.251 OA
BRANCH  12  14
ATOM     14  O   LIG    1       22.322 -21.416   4.797  0.00  0.00    -0.481 OA
ATOM     15  H   LIG    1       22.248 -21.122   3.853  0.00  0.00    +0.295 HD
ENDBRANCH  12  14
ENDBRANCH  11  12
ENDBRANCH   1  11
TORSDOF 5
ENDMDL
MODEL 8
REMARK VINA RESULT:      -6.0      2.892      3.691
REMARK  Name = *****
REMARK                            x       y       z     vdW  Elec       q    Type
REMARK                         _______ _______ _______ _____ _____    ______ ____
ROOT
ATOM      1  C   LIG    1       25.275 -22.436   6.763  0.00  0.00    -0.007 C 
ATOM      2  C   LIG    1       23.994 -22.077   7.567  0.00  0.00    +0.009 C 
ATOM      3  C   LIG    1       23.351 -20.739   7.199  0.00  0.00    +0.001 C 
ATOM      4  C   LIG    1       23.126 -20.591   5.701  0.00  0.00    +0.000 C 
ATOM      5  C   LIG    1       24.397 -20.860   4.908  0.00  0.00    +0.001 C 
ATOM      6  C   LIG    1       24.989 -22.229   5.248  0.00  0.00    +0.009 C 
ENDROOT
BRANCH   1   7
ATOM      7  C   LIG    1       26.464 -21.559   7.252  0.00  0.00    +0.085 C 
BRANCH   7   8
ATOM      8  N   LIG    1       26.616 -21.555   8.712  0.00  0.00    -0.329 NA
ATOM      9  H   LIG    1       25.778 -21.135   9.125  0.00  0.00    +0.118 HD
ATOM     10  H   LIG    1       26.582 -22.526   9.041  0.00  0.00    +0.118 HD
ENDBRANCH   7   8
ENDBRANCH   1   7
BRANCH   1  11
ATOM     11  C   LIG    1       25.603 -23.944   6.984  0.00  0.00    +0.128 C 
BRANCH  11  12
ATOM     12  C   LIG    1       24.833 -24.890   6.090  0.00  0.00    +0.305 C 
ATOM     13  O   LIG    1       23.664 -25.226   6.276  0.00  0.00    -0.251 OA
BRANCH  12  14
ATOM     14  O   LIG    1       25.575 -25.372   5.064  0.00  0.00    -0.481 OA
ATOM     15  H   LIG    1       25.025 -25.833   4.380  0.00  0.00    +0.295 HD
ENDBRANCH  12  14
ENDBRANCH  11  12
ENDBRANCH   1  11
TORSDOF 5
ENDMDL
MODEL 9
REMARK VINA RESULT:      -5.9      2.092      2.736
REMARK  Name = *****
REMARK                            x       y       z     vdW  Elec       q    Type
REMARK                         _______ _______ _______ _____ _____    ______ ____
ROOT
ATOM      1  C   LIG    1       26.075 -21.173   6.793  0.00  0.00    -0.007 C 
ATOM      2  C   LIG    1       26.732 -22.513   7.227  0.00  0.00    +0.009 C 
ATOM      3  C   LIG    1       25.776 -23.703   7.322  0.00  0.00    +0.001 C 
ATOM      4  C   LIG    1       24.935 -23.878   6.065  0.00  0.00    +0.000 C 
ATOM      5  C   LIG    1       24.221 -22.592   5.678  0.00  0.00    +0.001 C 
ATOM      6  C   LIG    1       25.204 -21.430   5.530  0.00  0.00    +0.009 C 
ENDROOT
BRANCH   1   7
ATOM      7  C   LIG    1       25.234 -20.597   7.969  0.00  0.00    +0.085 C 
BRANCH   7   8
ATOM      8  N   LIG    1       25.885 -20.753   9.275  0.00  0.00    -0.329 NA
ATOM      9  H   LIG    1       25.981 -21.754   9.472  0.00  0.00    +0.118 HD
ATOM     10  H   LIG    1       26.855 -20.433   9.191  0.00  0.00    +0.118 HD
ENDBRANCH   7   8
ENDBRANCH   1   7
BRANCH   1  11
ATOM     11  C   LIG    1       27.198 -20.165   6.401  0.00  0.00    +0.128 C 
BRANCH  11  12
ATOM     12  C   LIG    1       28.467 -20.293   7.214  0.00  0.00    +0.305 C 
ATOM     13  O   LIG    1       28.606 -19.860   8.357  0.00  0.00    -0.251 OA
BRANCH  12  14
ATOM     14  O   LIG    1       29.467 -20.910   6.540  0.00  0.00    -0.481 OA
ATOM     15  H   LIG    1       29.867 -21.658   7.054  0.00  0.00    +0.295 HD
ENDBRANCH  12  14
ENDBRANCH  11  12
ENDBRANCH   1  11
TORSDOF 5
ENDMDL
