MODEL 1
REMARK VINA RESULT:      -3.7      0.000      0.000
REMARK  Name = *****
REMARK                            x       y       z     vdW  Elec       q    Type
REMARK                         _______ _______ _______ _____ _____    ______ ____
ROOT
ATOM      1  C   LIG    1       24.649 -15.583   3.917  0.00  0.00    +0.125 A 
ATOM      2  C   LIG    1       25.874 -16.048   3.441  0.00  0.00    +0.069 A 
ATOM      3 CL   LIG    1       27.199 -15.025   3.018  0.00  0.00    -0.082 Cl
ATOM      4  C   LIG    1       26.068 -17.430   3.264  0.00  0.00    +0.047 A 
ATOM      5  C   LIG    1       25.072 -18.366   3.578  0.00  0.00    +0.057 A 
ATOM      6  N   LIG    1       25.298 -19.705   3.292  0.00  0.00    -0.324 N 
ATOM      7  H   LIG    1       26.279 -19.983   3.269  0.00  0.00    +0.148 HD
ATOM      8  C   LIG    1       24.408 -20.767   3.755  0.00  0.00    +0.192 C 
ATOM      9  N   LIG    1       23.020 -20.356   3.547  0.00  0.00    -0.167 NA
ATOM     10  H   LIG    1       22.344 -21.106   3.682  0.00  0.00    +0.150 HD
ATOM     11  S   LIG    1       22.561 -18.990   4.388  0.00  0.00    +0.062 S 
ATOM     12  O   LIG    1       22.642 -19.306   5.796  0.00  0.00    -0.153 OA
ATOM     13  O   LIG    1       21.340 -18.513   3.785  0.00  0.00    -0.153 OA
ATOM     14  C   LIG    1       23.853 -17.863   4.028  0.00  0.00    +0.128 A 
ATOM     15  C   LIG    1       23.626 -16.493   4.207  0.00  0.00    +0.060 A 
ENDROOT
BRANCH   1  16
ATOM     16  S   LIG    1       24.347 -13.866   4.190  0.00  0.00    +0.057 S 
ATOM     17  O   LIG    1       23.132 -13.728   4.960  0.00  0.00    -0.153 OA
ATOM     18  O   LIG    1       25.575 -13.225   4.591  0.00  0.00    -0.153 OA
BRANCH  16  19
ATOM     19  N   LIG    1       23.954 -13.296   2.664  0.00  0.00    -0.203 NA
ATOM     20  H   LIG    1       22.948 -13.372   2.510  0.00  0.00    +0.144 HD
ATOM     21  H   LIG    1       24.318 -12.349   2.541  0.00  0.00    +0.144 HD
ENDBRANCH  16  19
ENDBRANCH   1  16
BRANCH   8  22
ATOM     22  C   LIG    1       24.757 -21.298   5.182  0.00  0.00    +0.207 C 
ATOM     23 CL   LIG    1       25.770 -20.120   6.070  0.00  0.00    -0.101 Cl
ATOM     24 CL   LIG    1       23.249 -21.571   6.125  0.00  0.00    -0.101 Cl
ENDBRANCH   8  22
TORSDOF 3
ENDMDL
MODEL 2
REMARK VINA RESULT:      -2.3      4.034      6.761
REMARK  Name = *****
REMARK                            x       y       z     vdW  Elec       q    Type
REMARK                         _______ _______ _______ _____ _____    ______ ____
ROOT
ATOM      1  C   LIG    1       27.834 -17.643   4.755  0.00  0.00    +0.125 A 
ATOM      2  C   LIG    1       26.704 -18.046   4.044  0.00  0.00    +0.069 A 
ATOM      3 CL   LIG    1       26.137 -19.675   3.972  0.00  0.00    -0.082 Cl
ATOM      4  C   LIG    1       25.972 -17.095   3.311  0.00  0.00    +0.047 A 
ATOM      5  C   LIG    1       26.325 -15.737   3.294  0.00  0.00    +0.057 A 
ATOM      6  N   LIG    1       25.614 -14.870   2.476  0.00  0.00    -0.324 N 
ATOM      7  H   LIG    1       24.657 -15.157   2.271  0.00  0.00    +0.148 HD
ATOM      8  C   LIG    1       25.781 -13.421   2.537  0.00  0.00    +0.192 C 
ATOM      9  N   LIG    1       27.206 -13.104   2.616  0.00  0.00    -0.167 NA
ATOM     10  H   LIG    1       27.417 -12.115   2.486  0.00  0.00    +0.150 HD
ATOM     11  S   LIG    1       27.983 -13.700   3.967  0.00  0.00    +0.062 S 
ATOM     12  O   LIG    1       27.399 -13.049   5.118  0.00  0.00    -0.153 OA
ATOM     13  O   LIG    1       29.399 -13.645   3.699  0.00  0.00    -0.153 OA
ATOM     14  C   LIG    1       27.472 -15.376   3.997  0.00  0.00    +0.128 A 
ATOM     15  C   LIG    1       28.227 -16.300   4.729  0.00  0.00    +0.060 A 
ENDROOT
BRANCH   1  16
ATOM     16  S   LIG    1       28.781 -18.776   5.719  0.00  0.00    +0.057 S 
ATOM     17  O   LIG    1       29.475 -19.676   4.825  0.00  0.00    -0.153 OA
ATOM     18  O   LIG    1       29.475 -18.055   6.757  0.00  0.00    -0.153 OA
BRANCH  16  19
ATOM     19  N   LIG    1       27.612 -19.725   6.458  0.00  0.00    -0.203 NA
ATOM     20  H   LIG    1       27.040 -20.189   5.751  0.00  0.00    +0.144 HD
ATOM     21  H   LIG    1       28.052 -20.368   7.119  0.00  0.00    +0.144 HD
ENDBRANCH  16  19
ENDBRANCH   1  16
BRANCH   8  22
ATOM     22  C   LIG    1       24.868 -12.729   3.599  0.00  0.00    +0.207 C 
ATOM     23 CL   LIG    1       23.813 -11.504   2.831  0.00  0.00    -0.101 Cl
ATOM     24 CL   LIG    1       23.823 -13.951   4.405  0.00  0.00    -0.101 Cl
ENDBRANCH   8  22
TORSDOF 3
ENDMDL
MODEL 3
REMARK VINA RESULT:      -2.2      2.874      3.543
REMARK  Name = *****
REMARK                            x       y       z     vdW  Elec       q    Type
REMARK                         _______ _______ _______ _____ _____    ______ ____
ROOT
ATOM      1  C   LIG    1       25.165 -14.839   3.395  0.00  0.00    +0.125 A 
ATOM      2  C   LIG    1       24.003 -14.365   4.003  0.00  0.00    +0.069 A 
ATOM      3 CL   LIG    1       23.608 -12.692   4.163  0.00  0.00    -0.082 Cl
ATOM      4  C   LIG    1       23.086 -15.281   4.550  0.00  0.00    +0.047 A 
ATOM      5  C   LIG    1       23.288 -16.668   4.478  0.00  0.00    +0.057 A 
ATOM      6  N   LIG    1       22.389 -17.509   5.119  0.00  0.00    -0.324 N 
ATOM      7  H   LIG    1       21.450 -17.130   5.236  0.00  0.00    +0.148 HD
ATOM      8  C   LIG    1       22.407 -18.958   4.940  0.00  0.00    +0.192 C 
ATOM      9  N   LIG    1       23.789 -19.432   5.000  0.00  0.00    -0.167 NA
ATOM     10  H   LIG    1       23.875 -20.447   5.059  0.00  0.00    +0.150 HD
ATOM     11  S   LIG    1       24.791 -18.823   3.813  0.00  0.00    +0.062 S 
ATOM     12  O   LIG    1       24.295 -19.304   2.544  0.00  0.00    -0.153 OA
ATOM     13  O   LIG    1       26.148 -19.066   4.241  0.00  0.00    -0.153 OA
ATOM     14  C   LIG    1       24.471 -17.102   3.884  0.00  0.00    +0.128 A 
ATOM     15  C   LIG    1       25.407 -16.216   3.339  0.00  0.00    +0.060 A 
ENDROOT
BRANCH   1  16
ATOM     16  S   LIG    1       26.344 -13.749   2.663  0.00  0.00    +0.057 S 
ATOM     17  O   LIG    1       27.220 -14.520   1.812  0.00  0.00    -0.153 OA
ATOM     18  O   LIG    1       25.667 -12.569   2.184  0.00  0.00    -0.153 OA
BRANCH  16  19
ATOM     19  N   LIG    1       27.302 -13.290   3.961  0.00  0.00    -0.203 NA
ATOM     20  H   LIG    1       26.832 -12.563   4.502  0.00  0.00    +0.144 HD
ATOM     21  H   LIG    1       27.559 -14.112   4.511  0.00  0.00    +0.144 HD
ENDBRANCH  16  19
ENDBRANCH   1  16
BRANCH   8  22
ATOM     22  C   LIG    1       21.570 -19.449   3.715  0.00  0.00    +0.207 C 
ATOM     23 CL   LIG    1       20.807 -21.030   4.059  0.00  0.00    -0.101 Cl
ATOM     24 CL   LIG    1       20.270 -18.263   3.341  0.00  0.00    -0.101 Cl
ENDBRANCH   8  22
TORSDOF 3
ENDMDL
MODEL 4
REMARK VINA RESULT:      -2.1      2.688      6.360
REMARK  Name = *****
REMARK                            x       y       z     vdW  Elec       q    Type
REMARK                         _______ _______ _______ _____ _____    ______ ____
ROOT
ATOM      1  C   LIG    1       24.722 -17.883   3.831  0.00  0.00    +0.125 A 
ATOM      2  C   LIG    1       23.424 -17.509   4.178  0.00  0.00    +0.069 A 
ATOM      3 CL   LIG    1       22.176 -18.625   4.601  0.00  0.00    -0.082 Cl
ATOM      4  C   LIG    1       23.071 -16.148   4.172  0.00  0.00    +0.047 A 
ATOM      5  C   LIG    1       23.995 -15.142   3.854  0.00  0.00    +0.057 A 
ATOM      6  N   LIG    1       23.555 -13.828   3.778  0.00  0.00    -0.324 N 
ATOM      7  H   LIG    1       22.734 -13.613   4.343  0.00  0.00    +0.148 HD
ATOM      8  C   LIG    1       24.474 -12.700   3.645  0.00  0.00    +0.192 C 
ATOM      9  N   LIG    1       25.495 -13.027   2.652  0.00  0.00    -0.167 NA
ATOM     10  H   LIG    1       26.069 -12.231   2.373  0.00  0.00    +0.150 HD
ATOM     11  S   LIG    1       26.452 -14.338   3.037  0.00  0.00    +0.062 S 
ATOM     12  O   LIG    1       27.196 -13.992   4.226  0.00  0.00    -0.153 OA
ATOM     13  O   LIG    1       27.111 -14.751   1.821  0.00  0.00    -0.153 OA
ATOM     14  C   LIG    1       25.275 -15.554   3.489  0.00  0.00    +0.128 A 
ATOM     15  C   LIG    1       25.655 -16.902   3.477  0.00  0.00    +0.060 A 
ENDROOT
BRANCH   1  16
ATOM     16  S   LIG    1       25.241 -19.569   3.845  0.00  0.00    +0.057 S 
ATOM     17  O   LIG    1       24.555 -20.255   4.917  0.00  0.00    -0.153 OA
ATOM     18  O   LIG    1       25.239 -20.079   2.496  0.00  0.00    -0.153 OA
BRANCH  16  19
ATOM     19  N   LIG    1       26.837 -19.476   4.348  0.00  0.00    -0.203 NA
ATOM     20  H   LIG    1       27.268 -20.401   4.315  0.00  0.00    +0.144 HD
ATOM     21  H   LIG    1       27.335 -18.771   3.801  0.00  0.00    +0.144 HD
ENDBRANCH  16  19
ENDBRANCH   1  16
BRANCH   8  22
ATOM     22  C   LIG    1       24.999 -12.155   5.012  0.00  0.00    +0.207 C 
ATOM     23 CL   LIG    1       23.665 -11.447   5.970  0.00  0.00    -0.101 Cl
ATOM     24 CL   LIG    1       25.735 -13.490   5.966  0.00  0.00    -0.101 Cl
ENDBRANCH   8  22
TORSDOF 3
ENDMDL
