MODEL 1
REMARK VINA RESULT:      -7.5      0.000      0.000
REMARK  Name = *****
REMARK                            x       y       z     vdW  Elec       q    Type
REMARK                         _______ _______ _______ _____ _____    ______ ____
ROOT
ATOM      1  C   LIG    1       25.562 -30.648   6.291  0.00  0.00    +0.213 C 
ENDROOT
BRANCH   1   2
ATOM      2  C   LIG    1       24.975 -31.780   5.438  0.00  0.00    -0.025 A 
ATOM      3  C   LIG    1       25.611 -32.229   4.267  0.00  0.00    +0.005 A 
ATOM      4  C   LIG    1       25.039 -33.237   3.483  0.00  0.00    +0.000 A 
ATOM      5  C   LIG    1       23.837 -33.825   3.867  0.00  0.00    +0.000 A 
ATOM      6  C   LIG    1       23.216 -33.422   5.047  0.00  0.00    +0.000 A 
ATOM      7  C   LIG    1       23.782 -32.411   5.830  0.00  0.00    +0.005 A 
ENDBRANCH   1   2
BRANCH   1  10
ATOM      8  N   LIG    1       26.426 -30.326   8.577  0.00  0.00    -0.301 N 
ATOM      9  H   LIG    1       25.952 -29.429   8.529  0.00  0.00    +0.150 HD
ATOM     10  C   LIG    1       26.289 -31.207   7.519  0.00  0.00    +0.232 C 
ATOM     11  O   LIG    1       26.737 -32.349   7.592  0.00  0.00    -0.275 OA
BRANCH   8  17
ATOM     12  C   LIG    1       23.998 -28.904  11.705  0.00  0.00    +0.025 C 
ATOM     13  C   LIG    1       25.372 -28.609  12.337  0.00  0.00    +0.042 C 
ATOM     14  CA  LIG    1       25.995 -29.881  12.963  0.00  0.00    +0.201 C 
ATOM     15  N   LIG    1       26.778 -30.557  11.917  0.00  0.00    -0.271 N 
ATOM     16  C   LIG    1       27.441 -29.677  10.919  0.00  0.00    +0.165 C 
ATOM     17  CA  LIG    1       27.086 -30.745   9.846  0.00  0.00    +0.190 C 
ATOM     18  C   LIG    1       26.155 -31.294  10.947  0.00  0.00    +0.240 C 
ATOM     19  O   LIG    1       25.142 -31.967  10.989  0.00  0.00    -0.273 OA
ATOM     20  S   LIG    1       26.498 -28.103  10.952  0.00  0.00    -0.127 S 
ATOM     21  C   LIG    1       25.197 -27.440  13.313  0.00  0.00    +0.025 C 
BRANCH  14  22
ATOM     22  C   LIG    1       26.907 -29.675  14.194  0.00  0.00    +0.327 C 
ATOM     23  O   LIG    1       28.063 -29.281  14.175  0.00  0.00    -0.249 OA
BRANCH  22  24
ATOM     24  OXT LIG    1       26.254 -29.814  15.376  0.00  0.00    -0.479 OA
ATOM     25  HXT LIG    1       26.691 -30.473  15.950  0.00  0.00    +0.295 HD
ENDBRANCH  22  24
ENDBRANCH  14  22
ENDBRANCH   8  17
ENDBRANCH   1  10
BRANCH   1  26
ATOM     26  C   LIG    1       24.528 -29.590   6.652  0.00  0.00    +0.329 C 
ATOM     27  O   LIG    1       23.799 -29.631   7.639  0.00  0.00    -0.249 OA
BRANCH  26  28
ATOM     28  O   LIG    1       24.458 -28.606   5.652  0.00  0.00    -0.425 OA
BRANCH  28  29
ATOM     29  C   LIG    1       24.828 -27.288   6.009  0.00  0.00    +0.132 A 
ATOM     30  C   LIG    1       23.827 -26.313   6.110  0.00  0.00    +0.050 A 
ATOM     31  C   LIG    1       24.220 -25.008   6.389  0.00  0.00    -0.041 A 
ATOM     32  C   LIG    1       23.369 -23.781   6.524  0.00  0.00    +0.036 C 
ATOM     33  C   LIG    1       24.344 -22.801   7.199  0.00  0.00    +0.009 C 
ATOM     34  C   LIG    1       25.755 -23.210   6.759  0.00  0.00    +0.036 C 
ATOM     35  C   LIG    1       25.574 -24.678   6.537  0.00  0.00    -0.044 A 
ATOM     36  C   LIG    1       26.565 -25.635   6.417  0.00  0.00    +0.007 A 
ATOM     37  C   LIG    1       26.185 -26.945   6.138  0.00  0.00    +0.046 A 
ENDBRANCH  28  29
ENDBRANCH  26  28
ENDBRANCH   1  26
TORSDOF 8
ENDMDL
MODEL 2
REMARK VINA RESULT:      -7.1      3.241      4.813
REMARK  Name = *****
REMARK                            x       y       z     vdW  Elec       q    Type
REMARK                         _______ _______ _______ _____ _____    ______ ____
ROOT
ATOM      1  C   LIG    1       24.570 -29.930   7.884  0.00  0.00    +0.213 C 
ENDROOT
BRANCH   1   2
ATOM      2  C   LIG    1       25.698 -29.735   8.906  0.00  0.00    -0.025 A 
ATOM      3  C   LIG    1       26.479 -30.813   9.360  0.00  0.00    +0.005 A 
ATOM      4  C   LIG    1       27.477 -30.620  10.320  0.00  0.00    +0.000 A 
ATOM      5  C   LIG    1       27.724 -29.347  10.826  0.00  0.00    +0.000 A 
ATOM      6  C   LIG    1       26.989 -28.261  10.356  0.00  0.00    +0.000 A 
ATOM      7  C   LIG    1       25.986 -28.451   9.400  0.00  0.00    +0.005 A 
ENDBRANCH   1   2
BRANCH   1  10
ATOM      8  N   LIG    1       23.140 -30.924   9.627  0.00  0.00    -0.301 N 
ATOM      9  H   LIG    1       23.357 -30.082  10.153  0.00  0.00    +0.150 HD
ATOM     10  C   LIG    1       23.609 -31.036   8.331  0.00  0.00    +0.232 C 
ATOM     11  O   LIG    1       23.263 -31.976   7.618  0.00  0.00    -0.275 OA
BRANCH   8  17
ATOM     12  C   LIG    1       21.173 -29.004  12.813  0.00  0.00    +0.025 C 
ATOM     13  C   LIG    1       21.329 -30.397  13.454  0.00  0.00    +0.042 C 
ATOM     14  CA  LIG    1       20.245 -31.380  12.949  0.00  0.00    +0.201 C 
ATOM     15  N   LIG    1       20.763 -32.034  11.738  0.00  0.00    -0.271 N 
ATOM     16  C   LIG    1       22.229 -32.276  11.696  0.00  0.00    +0.165 C 
ATOM     17  CA  LIG    1       22.176 -31.913  10.185  0.00  0.00    +0.190 C 
ATOM     18  C   LIG    1       20.775 -31.373  10.539  0.00  0.00    +0.240 C 
ATOM     19  O   LIG    1       20.008 -30.547  10.081  0.00  0.00    -0.273 OA
ATOM     20  S   LIG    1       22.957 -31.071  12.872  0.00  0.00    -0.127 S 
ATOM     21  C   LIG    1       21.361 -30.211  14.976  0.00  0.00    +0.025 C 
BRANCH  14  22
ATOM     22  C   LIG    1       19.790 -32.479  13.936  0.00  0.00    +0.327 C 
ATOM     23  O   LIG    1       20.467 -33.414  14.334  0.00  0.00    -0.249 OA
BRANCH  22  24
ATOM     24  OXT LIG    1       18.572 -32.235  14.487  0.00  0.00    -0.479 OA
ATOM     25  HXT LIG    1       18.593 -31.444  15.060  0.00  0.00    +0.295 HD
ENDBRANCH  22  24
ENDBRANCH  14  22
ENDBRANCH   8  17
ENDBRANCH   1  10
BRANCH   1  26
ATOM     26  C   LIG    1       25.093 -30.142   6.469  0.00  0.00    +0.329 C 
ATOM     27  O   LIG    1       25.885 -31.022   6.140  0.00  0.00    -0.249 OA
BRANCH  26  28
ATOM     28  O   LIG    1       24.617 -29.139   5.610  0.00  0.00    -0.425 OA
BRANCH  28  29
ATOM     29  C   LIG    1       24.977 -27.804   5.906  0.00  0.00    +0.132 A 
ATOM     30  C   LIG    1       23.960 -26.865   6.122  0.00  0.00    +0.050 A 
ATOM     31  C   LIG    1       24.333 -25.543   6.338  0.00  0.00    -0.041 A 
ATOM     32  C   LIG    1       23.459 -24.346   6.566  0.00  0.00    +0.036 C 
ATOM     33  C   LIG    1       24.472 -23.321   7.106  0.00  0.00    +0.009 C 
ATOM     34  C   LIG    1       25.831 -23.684   6.498  0.00  0.00    +0.036 C 
ATOM     35  C   LIG    1       25.681 -25.160   6.313  0.00  0.00    -0.044 A 
ATOM     36  C   LIG    1       26.686 -26.082   6.080  0.00  0.00    +0.007 A 
ATOM     37  C   LIG    1       26.325 -27.409   5.863  0.00  0.00    +0.046 A 
ENDBRANCH  28  29
ENDBRANCH  26  28
ENDBRANCH   1  26
TORSDOF 8
ENDMDL
MODEL 3
REMARK VINA RESULT:      -7.0      2.491      3.177
REMARK  Name = *****
REMARK                            x       y       z     vdW  Elec       q    Type
REMARK                         _______ _______ _______ _____ _____    ______ ____
ROOT
ATOM      1  C   LIG    1       25.824 -29.475   7.019  0.00  0.00    +0.213 C 
ENDROOT
BRANCH   1   2
ATOM      2  C   LIG    1       25.992 -30.939   6.590  0.00  0.00    -0.025 A 
ATOM      3  C   LIG    1       25.790 -31.347   5.259  0.00  0.00    +0.005 A 
ATOM      4  C   LIG    1       25.911 -32.692   4.896  0.00  0.00    +0.000 A 
ATOM      5  C   LIG    1       26.256 -33.646   5.850  0.00  0.00    +0.000 A 
ATOM      6  C   LIG    1       26.501 -33.253   7.164  0.00  0.00    +0.000 A 
ATOM      7  C   LIG    1       26.375 -31.909   7.531  0.00  0.00    +0.005 A 
ENDBRANCH   1   2
BRANCH   1  10
ATOM      8  N   LIG    1       24.710 -29.778   9.196  0.00  0.00    -0.301 N 
ATOM      9  H   LIG    1       23.990 -30.251   8.657  0.00  0.00    +0.150 HD
ATOM     10  C   LIG    1       25.851 -29.345   8.545  0.00  0.00    +0.232 C 
ATOM     11  O   LIG    1       26.798 -28.886   9.180  0.00  0.00    -0.275 OA
BRANCH   8  17
ATOM     12  C   LIG    1       23.180 -33.512  10.389  0.00  0.00    +0.025 C 
ATOM     13  C   LIG    1       22.400 -32.624  11.378  0.00  0.00    +0.042 C 
ATOM     14  CA  LIG    1       23.271 -32.228  12.595  0.00  0.00    +0.201 C 
ATOM     15  N   LIG    1       23.977 -30.983  12.253  0.00  0.00    -0.271 N 
ATOM     16  C   LIG    1       23.248 -30.033  11.372  0.00  0.00    +0.165 C 
ATOM     17  CA  LIG    1       24.610 -29.737  10.682  0.00  0.00    +0.190 C 
ATOM     18  C   LIG    1       25.071 -31.006  11.430  0.00  0.00    +0.240 C 
ATOM     19  O   LIG    1       25.939 -31.845  11.288  0.00  0.00    -0.273 OA
ATOM     20  S   LIG    1       22.005 -31.048  10.483  0.00  0.00    -0.127 S 
ATOM     21  C   LIG    1       21.100 -33.354  11.737  0.00  0.00    +0.025 C 
BRANCH  14  22
ATOM     22  C   LIG    1       22.535 -32.014  13.937  0.00  0.00    +0.327 C 
ATOM     23  O   LIG    1       21.747 -31.116  14.191  0.00  0.00    -0.249 OA
BRANCH  22  24
ATOM     24  OXT LIG    1       22.706 -33.038  14.813  0.00  0.00    -0.479 OA
ATOM     25  HXT LIG    1       23.386 -33.666  14.499  0.00  0.00    +0.295 HD
ENDBRANCH  22  24
ENDBRANCH  14  22
ENDBRANCH   8  17
ENDBRANCH   1  10
BRANCH   1  26
ATOM     26  C   LIG    1       24.600 -28.818   6.395  0.00  0.00    +0.329 C 
ATOM     27  O   LIG    1       23.442 -29.186   6.572  0.00  0.00    -0.249 OA
BRANCH  26  28
ATOM     28  O   LIG    1       24.983 -27.792   5.516  0.00  0.00    -0.425 OA
BRANCH  28  29
ATOM     29  C   LIG    1       24.976 -26.470   6.018  0.00  0.00    +0.132 A 
ATOM     30  C   LIG    1       23.762 -25.771   6.052  0.00  0.00    +0.050 A 
ATOM     31  C   LIG    1       23.788 -24.447   6.477  0.00  0.00    -0.041 A 
ATOM     32  C   LIG    1       22.652 -23.473   6.584  0.00  0.00    +0.036 C 
ATOM     33  C   LIG    1       23.273 -22.369   7.458  0.00  0.00    +0.009 C 
ATOM     34  C   LIG    1       24.782 -22.390   7.188  0.00  0.00    +0.036 C 
ATOM     35  C   LIG    1       24.993 -23.828   6.835  0.00  0.00    -0.044 A 
ATOM     36  C   LIG    1       26.195 -24.510   6.782  0.00  0.00    +0.007 A 
ATOM     37  C   LIG    1       26.183 -25.835   6.357  0.00  0.00    +0.046 A 
ENDBRANCH  28  29
ENDBRANCH  26  28
ENDBRANCH   1  26
TORSDOF 8
ENDMDL
MODEL 4
REMARK VINA RESULT:      -6.8      1.840      2.197
REMARK  Name = *****
REMARK                            x       y       z     vdW  Elec       q    Type
REMARK                         _______ _______ _______ _____ _____    ______ ____
ROOT
ATOM      1  C   LIG    1       25.578 -30.657   6.457  0.00  0.00    +0.213 C 
ENDROOT
BRANCH   1   2
ATOM      2  C   LIG    1       25.091 -31.783   5.535  0.00  0.00    -0.025 A 
ATOM      3  C   LIG    1       25.795 -32.143   4.373  0.00  0.00    +0.005 A 
ATOM      4  C   LIG    1       25.315 -33.147   3.527  0.00  0.00    +0.000 A 
ATOM      5  C   LIG    1       24.137 -33.821   3.838  0.00  0.00    +0.000 A 
ATOM      6  C   LIG    1       23.450 -33.506   5.008  0.00  0.00    +0.000 A 
ATOM      7  C   LIG    1       23.925 -32.498   5.854  0.00  0.00    +0.005 A 
ENDBRANCH   1   2
BRANCH   1  10
ATOM      8  N   LIG    1       25.364 -30.646   8.913  0.00  0.00    -0.301 N 
ATOM      9  H   LIG    1       24.593 -30.005   8.750  0.00  0.00    +0.150 HD
ATOM     10  C   LIG    1       26.002 -31.209   7.821  0.00  0.00    +0.232 C 
ATOM     11  O   LIG    1       26.851 -32.085   7.975  0.00  0.00    -0.275 OA
BRANCH   8  17
ATOM     12  C   LIG    1       21.687 -31.840  10.573  0.00  0.00    +0.025 C 
ATOM     13  C   LIG    1       22.284 -31.155  11.819  0.00  0.00    +0.042 C 
ATOM     14  CA  LIG    1       23.286 -32.081  12.551  0.00  0.00    +0.201 C 
ATOM     15  N   LIG    1       24.615 -31.855  11.964  0.00  0.00    -0.271 N 
ATOM     16  C   LIG    1       24.904 -30.473  11.500  0.00  0.00    +0.165 C 
ATOM     17  CA  LIG    1       25.658 -31.108  10.298  0.00  0.00    +0.190 C 
ATOM     18  C   LIG    1       24.943 -32.398  10.751  0.00  0.00    +0.240 C 
ATOM     19  O   LIG    1       24.604 -33.445  10.233  0.00  0.00    -0.273 OA
ATOM     20  S   LIG    1       23.264 -29.702  11.210  0.00  0.00    -0.127 S 
ATOM     21  C   LIG    1       21.118 -30.666  12.686  0.00  0.00    +0.025 C 
BRANCH  14  22
ATOM     22  C   LIG    1       23.398 -31.910  14.083  0.00  0.00    +0.327 C 
ATOM     23  O   LIG    1       23.843 -30.935  14.668  0.00  0.00    -0.249 OA
BRANCH  22  24
ATOM     24  OXT LIG    1       22.786 -32.903  14.780  0.00  0.00    -0.479 OA
ATOM     25  HXT LIG    1       22.598 -33.674  14.211  0.00  0.00    +0.295 HD
ENDBRANCH  22  24
ENDBRANCH  14  22
ENDBRANCH   8  17
ENDBRANCH   1  10
BRANCH   1  26
ATOM     26  C   LIG    1       24.572 -29.518   6.571  0.00  0.00    +0.329 C 
ATOM     27  O   LIG    1       23.650 -29.478   7.381  0.00  0.00    -0.249 OA
BRANCH  26  28
ATOM     28  O   LIG    1       24.788 -28.564   5.564  0.00  0.00    -0.425 OA
BRANCH  28  29
ATOM     29  C   LIG    1       25.037 -27.233   5.971  0.00  0.00    +0.132 A 
ATOM     30  C   LIG    1       23.959 -26.342   6.050  0.00  0.00    +0.050 A 
ATOM     31  C   LIG    1       24.234 -25.019   6.380  0.00  0.00    -0.041 A 
ATOM     32  C   LIG    1       23.284 -23.866   6.506  0.00  0.00    +0.036 C 
ATOM     33  C   LIG    1       24.149 -22.833   7.250  0.00  0.00    +0.009 C 
ATOM     34  C   LIG    1       25.605 -23.119   6.865  0.00  0.00    +0.036 C 
ATOM     35  C   LIG    1       25.550 -24.589   6.598  0.00  0.00    -0.044 A 
ATOM     36  C   LIG    1       26.618 -25.462   6.500  0.00  0.00    +0.007 A 
ATOM     37  C   LIG    1       26.355 -26.790   6.171  0.00  0.00    +0.046 A 
ENDBRANCH  28  29
ENDBRANCH  26  28
ENDBRANCH   1  26
TORSDOF 8
ENDMDL
MODEL 5
REMARK VINA RESULT:      -6.7      2.735      3.279
REMARK  Name = *****
REMARK                            x       y       z     vdW  Elec       q    Type
REMARK                         _______ _______ _______ _____ _____    ______ ____
ROOT
ATOM      1  C   LIG    1       25.130 -31.214   6.801  0.00  0.00    +0.213 C 
ENDROOT
BRANCH   1   2
ATOM      2  C   LIG    1       26.052 -32.115   5.968  0.00  0.00    -0.025 A 
ATOM      3  C   LIG    1       27.220 -32.680   6.510  0.00  0.00    +0.005 A 
ATOM      4  C   LIG    1       28.066 -33.468   5.723  0.00  0.00    +0.000 A 
ATOM      5  C   LIG    1       27.750 -33.719   4.391  0.00  0.00    +0.000 A 
ATOM      6  C   LIG    1       26.575 -33.201   3.850  0.00  0.00    +0.000 A 
ATOM      7  C   LIG    1       25.729 -32.409   4.632  0.00  0.00    +0.005 A 
ENDBRANCH   1   2
BRANCH   1  10
ATOM      8  N   LIG    1       24.187 -31.866   8.983  0.00  0.00    -0.301 N 
ATOM      9  H   LIG    1       24.779 -31.128   9.354  0.00  0.00    +0.150 HD
ATOM     10  C   LIG    1       24.135 -32.049   7.613  0.00  0.00    +0.232 C 
ATOM     11  O   LIG    1       23.337 -32.842   7.117  0.00  0.00    -0.275 OA
BRANCH   8  17
ATOM     12  C   LIG    1       23.253 -29.200  12.102  0.00  0.00    +0.025 C 
ATOM     13  C   LIG    1       23.373 -30.490  12.938  0.00  0.00    +0.042 C 
ATOM     14  CA  LIG    1       22.086 -31.347  12.848  0.00  0.00    +0.201 C 
ATOM     15  N   LIG    1       22.230 -32.249  11.695  0.00  0.00    -0.271 N 
ATOM     16  C   LIG    1       23.605 -32.730  11.401  0.00  0.00    +0.165 C 
ATOM     17  CA  LIG    1       23.257 -32.591   9.892  0.00  0.00    +0.190 C 
ATOM     18  C   LIG    1       22.053 -31.783  10.419  0.00  0.00    +0.240 C 
ATOM     19  O   LIG    1       21.313 -30.921   9.985  0.00  0.00    -0.273 OA
ATOM     20  S   LIG    1       24.727 -31.499  12.170  0.00  0.00    -0.127 S 
ATOM     21  C   LIG    1       23.772 -30.088  14.363  0.00  0.00    +0.025 C 
BRANCH  14  22
ATOM     22  C   LIG    1       21.731 -32.199  14.087  0.00  0.00    +0.327 C 
ATOM     23  O   LIG    1       22.349 -33.170  14.495  0.00  0.00    -0.249 OA
BRANCH  22  24
ATOM     24  OXT LIG    1       20.722 -31.672  14.830  0.00  0.00    -0.479 OA
ATOM     25  HXT LIG    1       19.849 -31.969  14.506  0.00  0.00    +0.295 HD
ENDBRANCH  22  24
ENDBRANCH  14  22
ENDBRANCH   8  17
ENDBRANCH   1  10
BRANCH   1  26
ATOM     26  C   LIG    1       24.449 -30.139   5.964  0.00  0.00    +0.329 C 
ATOM     27  O   LIG    1       23.241 -30.074   5.757  0.00  0.00    -0.249 OA
BRANCH  26  28
ATOM     28  O   LIG    1       25.403 -29.285   5.386  0.00  0.00    -0.425 OA
BRANCH  28  29
ATOM     29  C   LIG    1       25.436 -27.946   5.840  0.00  0.00    +0.132 A 
ATOM     30  C   LIG    1       25.069 -26.926   4.952  0.00  0.00    +0.050 A 
ATOM     31  C   LIG    1       25.179 -25.612   5.392  0.00  0.00    -0.041 A 
ATOM     32  C   LIG    1       24.883 -24.344   4.648  0.00  0.00    +0.036 C 
ATOM     33  C   LIG    1       24.837 -23.317   5.793  0.00  0.00    +0.009 C 
ATOM     34  C   LIG    1       25.764 -23.843   6.894  0.00  0.00    +0.036 C 
ATOM     35  C   LIG    1       25.668 -25.319   6.673  0.00  0.00    -0.044 A 
ATOM     36  C   LIG    1       26.050 -26.323   7.544  0.00  0.00    +0.007 A 
ATOM     37  C   LIG    1       25.944 -27.643   7.114  0.00  0.00    +0.046 A 
ENDBRANCH  28  29
ENDBRANCH  26  28
ENDBRANCH   1  26
TORSDOF 8
ENDMDL
MODEL 6
REMARK VINA RESULT:      -6.7      3.210      7.290
REMARK  Name = *****
REMARK                            x       y       z     vdW  Elec       q    Type
REMARK                         _______ _______ _______ _____ _____    ______ ____
ROOT
ATOM      1  C   LIG    1       24.577 -24.069   7.180  0.00  0.00    +0.213 C 
ENDROOT
BRANCH   1   2
ATOM      2  C   LIG    1       25.534 -22.911   7.493  0.00  0.00    -0.025 A 
ATOM      3  C   LIG    1       26.877 -22.928   7.074  0.00  0.00    +0.005 A 
ATOM      4  C   LIG    1       27.742 -21.880   7.402  0.00  0.00    +0.000 A 
ATOM      5  C   LIG    1       27.277 -20.791   8.134  0.00  0.00    +0.000 A 
ATOM      6  C   LIG    1       25.939 -20.738   8.520  0.00  0.00    +0.000 A 
ATOM      7  C   LIG    1       25.072 -21.787   8.199  0.00  0.00    +0.005 A 
ENDBRANCH   1   2
BRANCH   1  10
ATOM      8  N   LIG    1       24.761 -26.477   6.688  0.00  0.00    -0.301 N 
ATOM      9  H   LIG    1       23.859 -26.545   7.151  0.00  0.00    +0.150 HD
ATOM     10  C   LIG    1       25.318 -25.225   6.500  0.00  0.00    +0.232 C 
ATOM     11  O   LIG    1       26.341 -25.088   5.833  0.00  0.00    -0.275 OA
BRANCH   8  17
ATOM     12  C   LIG    1       23.629 -29.745   9.085  0.00  0.00    +0.025 C 
ATOM     13  C   LIG    1       25.076 -30.180   8.782  0.00  0.00    +0.042 C 
ATOM     14  CA  LIG    1       25.193 -30.831   7.382  0.00  0.00    +0.201 C 
ATOM     15  N   LIG    1       25.462 -29.758   6.412  0.00  0.00    -0.271 N 
ATOM     16  C   LIG    1       26.280 -28.618   6.900  0.00  0.00    +0.165 C 
ATOM     17  CA  LIG    1       25.360 -27.688   6.060  0.00  0.00    +0.190 C 
ATOM     18  C   LIG    1       24.454 -28.935   5.986  0.00  0.00    +0.240 C 
ATOM     19  O   LIG    1       23.271 -29.154   5.810  0.00  0.00    -0.273 OA
ATOM     20  S   LIG    1       26.098 -28.632   8.726  0.00  0.00    -0.127 S 
ATOM     21  C   LIG    1       25.549 -31.069   9.939  0.00  0.00    +0.025 C 
BRANCH  14  22
ATOM     22  C   LIG    1       26.274 -31.921   7.210  0.00  0.00    +0.327 C 
ATOM     23  O   LIG    1       26.432 -32.898   7.926  0.00  0.00    -0.249 OA
BRANCH  22  24
ATOM     24  OXT LIG    1       26.977 -31.804   6.053  0.00  0.00    -0.479 OA
ATOM     25  HXT LIG    1       27.922 -31.629   6.227  0.00  0.00    +0.295 HD
ENDBRANCH  22  24
ENDBRANCH  14  22
ENDBRANCH   8  17
ENDBRANCH   1  10
BRANCH   1  26
ATOM     26  C   LIG    1       23.349 -23.619   6.400  0.00  0.00    +0.329 C 
ATOM     27  O   LIG    1       22.195 -23.678   6.817  0.00  0.00    -0.249 OA
BRANCH  26  28
ATOM     28  O   LIG    1       23.707 -23.211   5.105  0.00  0.00    -0.425 OA
BRANCH  28  29
ATOM     29  C   LIG    1       23.810 -21.821   4.866  0.00  0.00    +0.132 A 
ATOM     30  C   LIG    1       22.638 -21.053   4.856  0.00  0.00    +0.050 A 
ATOM     31  C   LIG    1       22.752 -19.702   4.544  0.00  0.00    -0.041 A 
ATOM     32  C   LIG    1       21.670 -18.669   4.438  0.00  0.00    +0.036 C 
ATOM     33  C   LIG    1       22.485 -17.364   4.456  0.00  0.00    +0.009 C 
ATOM     34  C   LIG    1       23.857 -17.694   3.857  0.00  0.00    +0.036 C 
ATOM     35  C   LIG    1       23.994 -19.137   4.225  0.00  0.00    -0.044 A 
ATOM     36  C   LIG    1       25.149 -19.898   4.214  0.00  0.00    +0.007 A 
ATOM     37  C   LIG    1       25.048 -21.252   4.525  0.00  0.00    +0.046 A 
ENDBRANCH  28  29
ENDBRANCH  26  28
ENDBRANCH   1  26
TORSDOF 8
ENDMDL
MODEL 7
REMARK VINA RESULT:      -6.7      3.195      8.013
REMARK  Name = *****
REMARK                            x       y       z     vdW  Elec       q    Type
REMARK                         _______ _______ _______ _____ _____    ______ ____
ROOT
ATOM      1  C   LIG    1       25.104 -30.024  14.091  0.00  0.00    +0.213 C 
ENDROOT
BRANCH   1   2
ATOM      2  C   LIG    1       25.600 -28.641  13.648  0.00  0.00    -0.025 A 
ATOM      3  C   LIG    1       25.349 -27.487  14.410  0.00  0.00    +0.005 A 
ATOM      4  C   LIG    1       25.777 -26.231  13.970  0.00  0.00    +0.000 A 
ATOM      5  C   LIG    1       26.481 -26.111  12.775  0.00  0.00    +0.000 A 
ATOM      6  C   LIG    1       26.775 -27.250  12.029  0.00  0.00    +0.000 A 
ATOM      7  C   LIG    1       26.343 -28.507  12.463  0.00  0.00    +0.005 A 
ENDBRANCH   1   2
BRANCH   1  10
ATOM      8  N   LIG    1       24.799 -31.051  11.871  0.00  0.00    -0.301 N 
ATOM      9  H   LIG    1       24.181 -30.265  11.696  0.00  0.00    +0.150 HD
ATOM     10  C   LIG    1       25.490 -31.099  13.069  0.00  0.00    +0.232 C 
ATOM     11  O   LIG    1       26.342 -31.962  13.267  0.00  0.00    -0.275 OA
BRANCH   8  17
ATOM     12  C   LIG    1       25.764 -28.750   8.484  0.00  0.00    +0.025 C 
ATOM     13  C   LIG    1       24.938 -29.846   7.782  0.00  0.00    +0.042 C 
ATOM     14  CA  LIG    1       25.775 -31.128   7.551  0.00  0.00    +0.201 C 
ATOM     15  N   LIG    1       25.628 -31.978   8.743  0.00  0.00    -0.271 N 
ATOM     16  C   LIG    1       24.313 -31.922   9.434  0.00  0.00    +0.165 C 
ATOM     17  CA  LIG    1       25.093 -32.017  10.776  0.00  0.00    +0.190 C 
ATOM     18  C   LIG    1       26.315 -31.692   9.892  0.00  0.00    +0.240 C 
ATOM     19  O   LIG    1       27.415 -31.200  10.057  0.00  0.00    -0.273 OA
ATOM     20  S   LIG    1       23.574 -30.314   8.949  0.00  0.00    -0.127 S 
ATOM     21  C   LIG    1       24.341 -29.237   6.508  0.00  0.00    +0.025 C 
BRANCH  14  22
ATOM     22  C   LIG    1       25.421 -31.974   6.307  0.00  0.00    +0.327 C 
ATOM     23  O   LIG    1       24.394 -32.613   6.139  0.00  0.00    -0.249 OA
BRANCH  22  24
ATOM     24  OXT LIG    1       26.304 -31.822   5.286  0.00  0.00    -0.479 OA
ATOM     25  HXT LIG    1       26.542 -30.883   5.158  0.00  0.00    +0.295 HD
ENDBRANCH  22  24
ENDBRANCH  14  22
ENDBRANCH   8  17
ENDBRANCH   1  10
BRANCH   1  26
ATOM     26  C   LIG    1       23.617 -30.035  14.421  0.00  0.00    +0.329 C 
ATOM     27  O   LIG    1       23.142 -30.379  15.500  0.00  0.00    -0.249 OA
BRANCH  26  28
ATOM     28  O   LIG    1       22.857 -29.683  13.294  0.00  0.00    -0.425 OA
BRANCH  28  29
ATOM     29  C   LIG    1       21.842 -28.715  13.469  0.00  0.00    +0.132 A 
ATOM     30  C   LIG    1       20.589 -29.132  13.936  0.00  0.00    +0.050 A 
ATOM     31  C   LIG    1       19.581 -28.178  14.031  0.00  0.00    -0.041 A 
ATOM     32  C   LIG    1       18.158 -28.356  14.469  0.00  0.00    +0.036 C 
ATOM     33  C   LIG    1       17.724 -26.900  14.710  0.00  0.00    +0.009 C 
ATOM     34  C   LIG    1       18.563 -26.029  13.768  0.00  0.00    +0.036 C 
ATOM     35  C   LIG    1       19.807 -26.850  13.646  0.00  0.00    -0.044 A 
ATOM     36  C   LIG    1       21.037 -26.440  13.165  0.00  0.00    +0.007 A 
ATOM     37  C   LIG    1       22.054 -27.385  13.066  0.00  0.00    +0.046 A 
ENDBRANCH  28  29
ENDBRANCH  26  28
ENDBRANCH   1  26
TORSDOF 8
ENDMDL
MODEL 8
REMARK VINA RESULT:      -6.4      5.531      9.831
REMARK  Name = *****
REMARK                            x       y       z     vdW  Elec       q    Type
REMARK                         _______ _______ _______ _____ _____    ______ ____
ROOT
ATOM      1  C   LIG    1       23.670 -21.861   6.932  0.00  0.00    +0.213 C 
ENDROOT
BRANCH   1   2
ATOM      2  C   LIG    1       23.808 -20.875   5.764  0.00  0.00    -0.025 A 
ATOM      3  C   LIG    1       24.983 -20.802   4.994  0.00  0.00    +0.005 A 
ATOM      4  C   LIG    1       25.102 -19.870   3.958  0.00  0.00    +0.000 A 
ATOM      5  C   LIG    1       24.046 -19.013   3.662  0.00  0.00    +0.000 A 
ATOM      6  C   LIG    1       22.860 -19.101   4.388  0.00  0.00    +0.000 A 
ATOM      7  C   LIG    1       22.739 -20.028   5.428  0.00  0.00    +0.005 A 
ENDBRANCH   1   2
BRANCH   1  10
ATOM      8  N   LIG    1       26.113 -21.916   7.248  0.00  0.00    -0.301 N 
ATOM      9  H   LIG    1       26.150 -21.942   6.234  0.00  0.00    +0.150 HD
ATOM     10  C   LIG    1       24.882 -21.780   7.865  0.00  0.00    +0.232 C 
ATOM     11  O   LIG    1       24.805 -21.615   9.081  0.00  0.00    -0.275 OA
BRANCH   8  17
ATOM     12  C   LIG    1       28.036 -18.385   6.007  0.00  0.00    +0.025 C 
ATOM     13  C   LIG    1       29.280 -19.288   6.123  0.00  0.00    +0.042 C 
ATOM     14  CA  LIG    1       29.755 -19.417   7.591  0.00  0.00    +0.201 C 
ATOM     15  N   LIG    1       29.045 -20.556   8.192  0.00  0.00    -0.271 N 
ATOM     16  C   LIG    1       28.737 -21.693   7.286  0.00  0.00    +0.165 C 
ATOM     17  CA  LIG    1       27.379 -21.828   8.030  0.00  0.00    +0.190 C 
ATOM     18  C   LIG    1       27.739 -20.435   8.586  0.00  0.00    +0.240 C 
ATOM     19  O   LIG    1       27.132 -19.483   9.037  0.00  0.00    -0.273 OA
ATOM     20  S   LIG    1       28.755 -20.987   5.593  0.00  0.00    -0.127 S 
ATOM     21  C   LIG    1       30.340 -18.749   5.155  0.00  0.00    +0.025 C 
BRANCH  14  22
ATOM     22  C   LIG    1       31.271 -19.617   7.816  0.00  0.00    +0.327 C 
ATOM     23  O   LIG    1       32.074 -18.748   8.118  0.00  0.00    -0.249 OA
BRANCH  22  24
ATOM     24  OXT LIG    1       31.646 -20.922   7.814  0.00  0.00    -0.479 OA
ATOM     25  HXT LIG    1       31.874 -21.226   6.913  0.00  0.00    +0.295 HD
ENDBRANCH  22  24
ENDBRANCH  14  22
ENDBRANCH   8  17
ENDBRANCH   1  10
BRANCH   1  26
ATOM     26  C   LIG    1       23.380 -23.282   6.467  0.00  0.00    +0.329 C 
ATOM     27  O   LIG    1       22.359 -23.910   6.733  0.00  0.00    -0.249 OA
BRANCH  26  28
ATOM     28  O   LIG    1       24.479 -23.808   5.769  0.00  0.00    -0.425 OA
BRANCH  28  29
ATOM     29  C   LIG    1       24.848 -25.144   6.048  0.00  0.00    +0.132 A 
ATOM     30  C   LIG    1       24.129 -26.181   5.441  0.00  0.00    +0.050 A 
ATOM     31  C   LIG    1       24.458 -27.487   5.786  0.00  0.00    -0.041 A 
ATOM     32  C   LIG    1       23.838 -28.768   5.311  0.00  0.00    +0.036 C 
ATOM     33  C   LIG    1       24.888 -29.802   5.755  0.00  0.00    +0.009 C 
ATOM     34  C   LIG    1       25.584 -29.221   6.991  0.00  0.00    +0.036 C 
ATOM     35  C   LIG    1       25.458 -27.754   6.731  0.00  0.00    -0.044 A 
ATOM     36  C   LIG    1       26.155 -26.731   7.347  0.00  0.00    +0.007 A 
ATOM     37  C   LIG    1       25.835 -25.419   7.010  0.00  0.00    +0.046 A 
ENDBRANCH  28  29
ENDBRANCH  26  28
ENDBRANCH   1  26
TORSDOF 8
ENDMDL
MODEL 9
REMARK VINA RESULT:      -6.3      3.191      4.410
REMARK  Name = *****
REMARK                            x       y       z     vdW  Elec       q    Type
REMARK                         _______ _______ _______ _____ _____    ______ ____
ROOT
ATOM      1  C   LIG    1       26.435 -32.488   8.819  0.00  0.00    +0.213 C 
ENDROOT
BRANCH   1   2
ATOM      2  C   LIG    1       26.898 -32.817   7.393  0.00  0.00    -0.025 A 
ATOM      3  C   LIG    1       26.142 -32.446   6.266  0.00  0.00    +0.005 A 
ATOM      4  C   LIG    1       26.563 -32.789   4.978  0.00  0.00    +0.000 A 
ATOM      5  C   LIG    1       27.752 -33.487   4.792  0.00  0.00    +0.000 A 
ATOM      6  C   LIG    1       28.534 -33.825   5.894  0.00  0.00    +0.000 A 
ATOM      7  C   LIG    1       28.114 -33.489   7.185  0.00  0.00    +0.005 A 
ENDBRANCH   1   2
BRANCH   1  10
ATOM      8  N   LIG    1       24.494 -32.727  10.318  0.00  0.00    -0.301 N 
ATOM      9  H   LIG    1       25.064 -32.215  10.985  0.00  0.00    +0.150 HD
ATOM     10  C   LIG    1       24.983 -32.924   9.039  0.00  0.00    +0.232 C 
ATOM     11  O   LIG    1       24.275 -33.424   8.167  0.00  0.00    -0.275 OA
BRANCH   8  17
ATOM     12  C   LIG    1       22.823 -29.308  12.113  0.00  0.00    +0.025 C 
ATOM     13  C   LIG    1       22.189 -30.374  13.028  0.00  0.00    +0.042 C 
ATOM     14  CA  LIG    1       20.952 -31.029  12.365  0.00  0.00    +0.201 C 
ATOM     15  N   LIG    1       21.422 -32.183  11.584  0.00  0.00    -0.271 N 
ATOM     16  C   LIG    1       22.593 -32.917  12.131  0.00  0.00    +0.165 C 
ATOM     17  CA  LIG    1       23.089 -33.079  10.666  0.00  0.00    +0.190 C 
ATOM     18  C   LIG    1       22.025 -32.002  10.368  0.00  0.00    +0.240 C 
ATOM     19  O   LIG    1       21.838 -31.163   9.507  0.00  0.00    -0.273 OA
ATOM     20  S   LIG    1       23.448 -31.721  13.230  0.00  0.00    -0.127 S 
ATOM     21  C   LIG    1       21.911 -29.719  14.387  0.00  0.00    +0.025 C 
BRANCH  14  22
ATOM     22  C   LIG    1       19.829 -31.511  13.312  0.00  0.00    +0.327 C 
ATOM     23  O   LIG    1       19.896 -32.454  14.086  0.00  0.00    -0.249 OA
BRANCH  22  24
ATOM     24  OXT LIG    1       18.761 -30.673  13.349  0.00  0.00    -0.479 OA
ATOM     25  HXT LIG    1       17.935 -31.138  13.111  0.00  0.00    +0.295 HD
ENDBRANCH  22  24
ENDBRANCH  14  22
ENDBRANCH   8  17
ENDBRANCH   1  10
BRANCH   1  26
ATOM     26  C   LIG    1       26.673 -31.029   9.189  0.00  0.00    +0.329 C 
ATOM     27  O   LIG    1       27.756 -30.562   9.531  0.00  0.00    -0.249 OA
BRANCH  26  28
ATOM     28  O   LIG    1       25.466 -30.312   9.175  0.00  0.00    -0.425 OA
BRANCH  28  29
ATOM     29  C   LIG    1       25.237 -29.446   8.081  0.00  0.00    +0.132 A 
ATOM     30  C   LIG    1       25.823 -28.173   8.097  0.00  0.00    +0.050 A 
ATOM     31  C   LIG    1       25.525 -27.309   7.049  0.00  0.00    -0.041 A 
ATOM     32  C   LIG    1       25.988 -25.899   6.834  0.00  0.00    +0.036 C 
ATOM     33  C   LIG    1       25.630 -25.678   5.354  0.00  0.00    +0.009 C 
ATOM     34  C   LIG    1       24.426 -26.578   5.053  0.00  0.00    +0.036 C 
ATOM     35  C   LIG    1       24.647 -27.692   6.025  0.00  0.00    -0.044 A 
ATOM     36  C   LIG    1       24.052 -28.941   6.018  0.00  0.00    +0.007 A 
ATOM     37  C   LIG    1       24.342 -29.815   7.062  0.00  0.00    +0.046 A 
ENDBRANCH  28  29
ENDBRANCH  26  28
ENDBRANCH   1  26
TORSDOF 8
ENDMDL
