MODEL 1
REMARK VINA RESULT:      -7.7      0.000      0.000
REMARK  Name = *****
REMARK                            x       y       z     vdW  Elec       q    Type
REMARK                         _______ _______ _______ _____ _____    ______ ____
ROOT
ATOM      1  C   LIG    1       25.390 -21.437   7.274  0.00  0.00    +0.094 C 
ENDROOT
BRANCH   1   2
ATOM      2  C   LIG    1       24.634 -20.731   6.158  0.00  0.00    -0.038 A 
ATOM      3  C   LIG    1       25.313 -20.355   4.988  0.00  0.00    +0.004 A 
ATOM      4  C   LIG    1       24.655 -19.648   3.978  0.00  0.00    +0.000 A 
ATOM      5  C   LIG    1       23.309 -19.319   4.118  0.00  0.00    +0.000 A 
ATOM      6  C   LIG    1       22.618 -19.702   5.262  0.00  0.00    +0.000 A 
ATOM      7  C   LIG    1       23.272 -20.410   6.270  0.00  0.00    +0.004 A 
ENDBRANCH   1   2
BRANCH   1   8
ATOM      8  C   LIG    1       26.025 -22.755   6.790  0.00  0.00    +0.245 C 
BRANCH   8   9
ATOM      9  O   LIG    1       25.280 -23.903   7.224  0.00  0.00    -0.450 OA
BRANCH   9  13
ATOM     10  N   LIG    1       24.928 -24.207   5.073  0.00  0.00    -0.295 N 
ATOM     11  H   LIG    1       25.740 -23.617   5.001  0.00  0.00    +0.148 HD
ATOM     12  H   LIG    1       24.290 -24.282   4.296  0.00  0.00    +0.148 HD
ATOM     13  C   LIG    1       24.405 -24.392   6.309  0.00  0.00    +0.398 C 
ATOM     14  O   LIG    1       23.308 -24.866   6.521  0.00  0.00    -0.227 OA
ENDBRANCH   9  13
ENDBRANCH   8   9
ENDBRANCH   1   8
BRANCH   1  15
ATOM     15  C   LIG    1       26.361 -20.499   8.022  0.00  0.00    +0.245 C 
BRANCH  15  16
ATOM     16  O   LIG    1       27.647 -21.089   8.285  0.00  0.00    -0.450 OA
BRANCH  16  17
ATOM     17  C   LIG    1       28.719 -20.391   7.849  0.00  0.00    +0.398 C 
ATOM     18  O   LIG    1       29.209 -19.397   8.365  0.00  0.00    -0.227 OA
ATOM     19  N   LIG    1       29.236 -20.963   6.739  0.00  0.00    -0.295 N 
ATOM     20  H   LIG    1       30.092 -20.581   6.364  0.00  0.00    +0.148 HD
ATOM     21  H   LIG    1       28.859 -21.827   6.386  0.00  0.00    +0.148 HD
ENDBRANCH  16  17
ENDBRANCH  15  16
ENDBRANCH   1  15
TORSDOF 7
ENDMDL
MODEL 2
REMARK VINA RESULT:      -7.6      0.991      4.351
REMARK  Name = *****
REMARK                            x       y       z     vdW  Elec       q    Type
REMARK                         _______ _______ _______ _____ _____    ______ ____
ROOT
ATOM      1  C   LIG    1       25.637 -21.571   6.282  0.00  0.00    +0.094 C 
ENDROOT
BRANCH   1   2
ATOM      2  C   LIG    1       24.660 -20.681   5.527  0.00  0.00    -0.038 A 
ATOM      3  C   LIG    1       25.078 -20.028   4.355  0.00  0.00    +0.004 A 
ATOM      4  C   LIG    1       24.219 -19.155   3.683  0.00  0.00    +0.000 A 
ATOM      5  C   LIG    1       22.930 -18.932   4.163  0.00  0.00    +0.000 A 
ATOM      6  C   LIG    1       22.497 -19.587   5.311  0.00  0.00    +0.000 A 
ATOM      7  C   LIG    1       23.352 -20.460   5.982  0.00  0.00    +0.004 A 
ENDBRANCH   1   2
BRANCH   1   8
ATOM      8  C   LIG    1       26.793 -20.758   6.896  0.00  0.00    +0.245 C 
BRANCH   8   9
ATOM      9  O   LIG    1       27.544 -21.525   7.850  0.00  0.00    -0.450 OA
BRANCH   9  13
ATOM     10  N   LIG    1       29.231 -20.925   6.571  0.00  0.00    -0.295 N 
ATOM     11  H   LIG    1       28.535 -21.017   5.851  0.00  0.00    +0.148 HD
ATOM     12  H   LIG    1       30.210 -20.982   6.335  0.00  0.00    +0.148 HD
ATOM     13  C   LIG    1       28.884 -21.312   7.822  0.00  0.00    +0.398 C 
ATOM     14  O   LIG    1       29.676 -21.488   8.726  0.00  0.00    -0.227 OA
ENDBRANCH   9  13
ENDBRANCH   8   9
ENDBRANCH   1   8
BRANCH   1  15
ATOM     15  C   LIG    1       24.934 -22.524   7.269  0.00  0.00    +0.245 C 
BRANCH  15  16
ATOM     16  O   LIG    1       24.960 -23.904   6.859  0.00  0.00    -0.450 OA
BRANCH  16  17
ATOM     17  C   LIG    1       23.772 -24.434   6.489  0.00  0.00    +0.398 C 
ATOM     18  O   LIG    1       22.659 -24.035   6.802  0.00  0.00    -0.227 OA
ATOM     19  N   LIG    1       23.962 -25.489   5.667  0.00  0.00    -0.295 N 
ATOM     20  H   LIG    1       23.147 -25.921   5.255  0.00  0.00    +0.148 HD
ATOM     21  H   LIG    1       24.888 -25.742   5.364  0.00  0.00    +0.148 HD
ENDBRANCH  16  17
ENDBRANCH  15  16
ENDBRANCH   1  15
TORSDOF 7
ENDMDL
MODEL 3
REMARK VINA RESULT:      -7.5      0.402      4.544
REMARK  Name = *****
REMARK                            x       y       z     vdW  Elec       q    Type
REMARK                         _______ _______ _______ _____ _____    ______ ____
ROOT
ATOM      1  C   LIG    1       25.799 -21.413   6.880  0.00  0.00    +0.094 C 
ENDROOT
BRANCH   1   2
ATOM      2  C   LIG    1       24.903 -20.645   5.918  0.00  0.00    -0.038 A 
ATOM      3  C   LIG    1       23.544 -20.470   6.225  0.00  0.00    +0.004 A 
ATOM      4  C   LIG    1       22.689 -19.826   5.327  0.00  0.00    +0.000 A 
ATOM      5  C   LIG    1       23.183 -19.337   4.119  0.00  0.00    +0.000 A 
ATOM      6  C   LIG    1       24.530 -19.484   3.811  0.00  0.00    +0.000 A 
ATOM      7  C   LIG    1       25.386 -20.126   4.708  0.00  0.00    +0.004 A 
ENDBRANCH   1   2
BRANCH   1   8
ATOM      8  C   LIG    1       26.553 -20.470   7.836  0.00  0.00    +0.245 C 
BRANCH   8   9
ATOM      9  O   LIG    1       27.810 -21.021   8.257  0.00  0.00    -0.450 OA
BRANCH   9  13
ATOM     10  N   LIG    1       29.406 -20.907   6.747  0.00  0.00    -0.295 N 
ATOM     11  H   LIG    1       29.040 -21.810   6.497  0.00  0.00    +0.148 HD
ATOM     12  H   LIG    1       30.349 -20.657   6.491  0.00  0.00    +0.148 HD
ATOM     13  C   LIG    1       28.901 -20.320   7.858  0.00  0.00    +0.398 C 
ATOM     14  O   LIG    1       29.404 -19.364   8.412  0.00  0.00    -0.227 OA
ENDBRANCH   9  13
ENDBRANCH   8   9
ENDBRANCH   1   8
BRANCH   1  15
ATOM     15  C   LIG    1       25.064 -22.575   7.579  0.00  0.00    +0.245 C 
BRANCH  15  16
ATOM     16  O   LIG    1       25.347 -23.865   7.008  0.00  0.00    -0.450 OA
BRANCH  16  17
ATOM     17  C   LIG    1       24.374 -24.397   6.234  0.00  0.00    +0.398 C 
ATOM     18  O   LIG    1       23.276 -24.793   6.600  0.00  0.00    -0.227 OA
ATOM     19  N   LIG    1       24.757 -24.411   4.939  0.00  0.00    -0.295 N 
ATOM     20  H   LIG    1       24.082 -24.709   4.249  0.00  0.00    +0.148 HD
ATOM     21  H   LIG    1       25.633 -24.003   4.659  0.00  0.00    +0.148 HD
ENDBRANCH  16  17
ENDBRANCH  15  16
ENDBRANCH   1  15
TORSDOF 7
ENDMDL
MODEL 4
REMARK VINA RESULT:      -7.2      3.677      4.672
REMARK  Name = *****
REMARK                            x       y       z     vdW  Elec       q    Type
REMARK                         _______ _______ _______ _____ _____    ______ ____
ROOT
ATOM      1  C   LIG    1       28.291 -20.132   7.491  0.00  0.00    +0.094 C 
ENDROOT
BRANCH   1   2
ATOM      2  C   LIG    1       26.883 -20.308   6.942  0.00  0.00    -0.038 A 
ATOM      3  C   LIG    1       25.827 -20.601   7.820  0.00  0.00    +0.004 A 
ATOM      4  C   LIG    1       24.538 -20.832   7.332  0.00  0.00    +0.000 A 
ATOM      5  C   LIG    1       24.285 -20.760   5.964  0.00  0.00    +0.000 A 
ATOM      6  C   LIG    1       25.317 -20.451   5.084  0.00  0.00    +0.000 A 
ATOM      7  C   LIG    1       26.603 -20.218   5.570  0.00  0.00    +0.004 A 
ENDBRANCH   1   2
BRANCH   1   8
ATOM      8  C   LIG    1       28.816 -21.425   8.145  0.00  0.00    +0.245 C 
BRANCH   8   9
ATOM      9  O   LIG    1       30.241 -21.547   8.029  0.00  0.00    -0.450 OA
BRANCH   9  13
ATOM     10  N   LIG    1       32.042 -21.064   9.197  0.00  0.00    -0.295 N 
ATOM     11  H   LIG    1       32.323 -20.645   8.327  0.00  0.00    +0.148 HD
ATOM     12  H   LIG    1       32.740 -21.331   9.875  0.00  0.00    +0.148 HD
ATOM     13  C   LIG    1       30.890 -21.775   9.199  0.00  0.00    +0.398 C 
ATOM     14  O   LIG    1       30.554 -22.528  10.092  0.00  0.00    -0.227 OA
ENDBRANCH   9  13
ENDBRANCH   8   9
ENDBRANCH   1   8
BRANCH   1  15
ATOM     15  C   LIG    1       29.256 -19.500   6.466  0.00  0.00    +0.245 C 
BRANCH  15  16
ATOM     16  O   LIG    1       29.764 -18.215   6.867  0.00  0.00    -0.450 OA
BRANCH  16  17
ATOM     17  C   LIG    1       30.758 -18.231   7.784  0.00  0.00    +0.398 C 
ATOM     18  O   LIG    1       31.907 -18.615   7.617  0.00  0.00    -0.227 OA
ATOM     19  N   LIG    1       30.326 -17.717   8.956  0.00  0.00    -0.295 N 
ATOM     20  H   LIG    1       31.000 -17.598   9.699  0.00  0.00    +0.148 HD
ATOM     21  H   LIG    1       29.399 -17.334   9.037  0.00  0.00    +0.148 HD
ENDBRANCH  16  17
ENDBRANCH  15  16
ENDBRANCH   1  15
TORSDOF 7
ENDMDL
MODEL 5
REMARK VINA RESULT:      -7.2      2.260      4.986
REMARK  Name = *****
REMARK                            x       y       z     vdW  Elec       q    Type
REMARK                         _______ _______ _______ _____ _____    ______ ____
ROOT
ATOM      1  C   LIG    1       24.414 -21.439   7.434  0.00  0.00    +0.094 C 
ENDROOT
BRANCH   1   2
ATOM      2  C   LIG    1       24.594 -22.894   7.026  0.00  0.00    -0.038 A 
ATOM      3  C   LIG    1       23.468 -23.672   6.712  0.00  0.00    +0.004 A 
ATOM      4  C   LIG    1       23.604 -25.027   6.399  0.00  0.00    +0.000 A 
ATOM      5  C   LIG    1       24.866 -25.618   6.384  0.00  0.00    +0.000 A 
ATOM      6  C   LIG    1       25.992 -24.855   6.673  0.00  0.00    +0.000 A 
ATOM      7  C   LIG    1       25.858 -23.502   6.983  0.00  0.00    +0.004 A 
ENDBRANCH   1   2
BRANCH   1   8
ATOM      8  C   LIG    1       25.681 -20.871   8.102  0.00  0.00    +0.245 C 
BRANCH   8   9
ATOM      9  O   LIG    1       26.538 -20.211   7.159  0.00  0.00    -0.450 OA
BRANCH   9  13
ATOM     10  N   LIG    1       28.495 -20.923   6.446  0.00  0.00    -0.295 N 
ATOM     11  H   LIG    1       27.919 -21.390   5.766  0.00  0.00    +0.148 HD
ATOM     12  H   LIG    1       29.422 -21.267   6.643  0.00  0.00    +0.148 HD
ATOM     13  C   LIG    1       27.862 -20.273   7.452  0.00  0.00    +0.398 C 
ATOM     14  O   LIG    1       28.411 -19.880   8.461  0.00  0.00    -0.227 OA
ENDBRANCH   9  13
ENDBRANCH   8   9
ENDBRANCH   1   8
BRANCH   1  15
ATOM     15  C   LIG    1       23.849 -20.566   6.294  0.00  0.00    +0.245 C 
BRANCH  15  16
ATOM     16  O   LIG    1       24.252 -20.998   4.982  0.00  0.00    -0.450 OA
BRANCH  16  17
ATOM     17  C   LIG    1       24.738 -20.037   4.165  0.00  0.00    +0.398 C 
ATOM     18  O   LIG    1       24.095 -19.191   3.560  0.00  0.00    -0.227 OA
ATOM     19  N   LIG    1       26.087 -20.098   4.115  0.00  0.00    -0.295 N 
ATOM     20  H   LIG    1       26.575 -19.379   3.601  0.00  0.00    +0.148 HD
ATOM     21  H   LIG    1       26.591 -20.754   4.688  0.00  0.00    +0.148 HD
ENDBRANCH  16  17
ENDBRANCH  15  16
ENDBRANCH   1  15
TORSDOF 7
ENDMDL
MODEL 6
REMARK VINA RESULT:      -7.0      2.898      4.342
REMARK  Name = *****
REMARK                            x       y       z     vdW  Elec       q    Type
REMARK                         _______ _______ _______ _____ _____    ______ ____
ROOT
ATOM      1  C   LIG    1       25.622 -21.637   6.727  0.00  0.00    +0.094 C 
ENDROOT
BRANCH   1   2
ATOM      2  C   LIG    1       27.023 -21.045   6.789  0.00  0.00    -0.038 A 
ATOM      3  C   LIG    1       27.401 -20.057   5.864  0.00  0.00    +0.004 A 
ATOM      4  C   LIG    1       28.702 -19.548   5.859  0.00  0.00    +0.000 A 
ATOM      5  C   LIG    1       29.637 -20.007   6.784  0.00  0.00    +0.000 A 
ATOM      6  C   LIG    1       29.271 -20.970   7.718  0.00  0.00    +0.000 A 
ATOM      7  C   LIG    1       27.973 -21.479   7.726  0.00  0.00    +0.004 A 
ENDBRANCH   1   2
BRANCH   1   8
ATOM      8  C   LIG    1       25.642 -23.170   6.881  0.00  0.00    +0.245 C 
BRANCH   8   9
ATOM      9  O   LIG    1       25.040 -23.832   5.758  0.00  0.00    -0.450 OA
BRANCH   9  13
ATOM     10  N   LIG    1       24.166 -25.808   5.348  0.00  0.00    -0.295 N 
ATOM     11  H   LIG    1       24.846 -25.800   4.607  0.00  0.00    +0.148 HD
ATOM     12  H   LIG    1       23.358 -26.408   5.282  0.00  0.00    +0.148 HD
ATOM     13  C   LIG    1       24.022 -24.672   6.071  0.00  0.00    +0.398 C 
ATOM     14  O   LIG    1       23.092 -24.453   6.819  0.00  0.00    -0.227 OA
ENDBRANCH   9  13
ENDBRANCH   8   9
ENDBRANCH   1   8
BRANCH   1  15
ATOM     15  C   LIG    1       24.629 -20.916   7.663  0.00  0.00    +0.245 C 
BRANCH  15  16
ATOM     16  O   LIG    1       23.249 -21.163   7.341  0.00  0.00    -0.450 OA
BRANCH  16  17
ATOM     17  C   LIG    1       22.846 -20.766   6.113  0.00  0.00    +0.398 C 
ATOM     18  O   LIG    1       22.853 -19.626   5.670  0.00  0.00    -0.227 OA
ATOM     19  N   LIG    1       22.446 -21.828   5.381  0.00  0.00    -0.295 N 
ATOM     20  H   LIG    1       22.200 -21.671   4.414  0.00  0.00    +0.148 HD
ATOM     21  H   LIG    1       22.530 -22.762   5.746  0.00  0.00    +0.148 HD
ENDBRANCH  16  17
ENDBRANCH  15  16
ENDBRANCH   1  15
TORSDOF 7
ENDMDL
MODEL 7
REMARK VINA RESULT:      -6.9      2.722      4.721
REMARK  Name = *****
REMARK                            x       y       z     vdW  Elec       q    Type
REMARK                         _______ _______ _______ _____ _____    ______ ____
ROOT
ATOM      1  C   LIG    1       25.128 -21.778   7.617  0.00  0.00    +0.094 C 
ENDROOT
BRANCH   1   2
ATOM      2  C   LIG    1       26.476 -21.248   7.148  0.00  0.00    -0.038 A 
ATOM      3  C   LIG    1       27.644 -21.609   7.840  0.00  0.00    +0.004 A 
ATOM      4  C   LIG    1       28.883 -21.082   7.467  0.00  0.00    +0.000 A 
ATOM      5  C   LIG    1       28.974 -20.200   6.393  0.00  0.00    +0.000 A 
ATOM      6  C   LIG    1       27.829 -19.849   5.686  0.00  0.00    +0.000 A 
ATOM      7  C   LIG    1       26.591 -20.376   6.055  0.00  0.00    +0.004 A 
ENDBRANCH   1   2
BRANCH   1   8
ATOM      8  C   LIG    1       23.974 -20.839   7.217  0.00  0.00    +0.245 C 
BRANCH   8   9
ATOM      9  O   LIG    1       23.024 -21.489   6.358  0.00  0.00    -0.450 OA
BRANCH   9  13
ATOM     10  N   LIG    1       23.636 -21.610   4.248  0.00  0.00    -0.295 N 
ATOM     11  H   LIG    1       24.287 -22.280   4.622  0.00  0.00    +0.148 HD
ATOM     12  H   LIG    1       23.831 -21.156   3.369  0.00  0.00    +0.148 HD
ATOM     13  C   LIG    1       22.881 -20.919   5.135  0.00  0.00    +0.398 C 
ATOM     14  O   LIG    1       22.242 -19.924   4.857  0.00  0.00    -0.227 OA
ENDBRANCH   9  13
ENDBRANCH   8   9
ENDBRANCH   1   8
BRANCH   1  15
ATOM     15  C   LIG    1       24.906 -23.258   7.241  0.00  0.00    +0.245 C 
BRANCH  15  16
ATOM     16  O   LIG    1       25.439 -23.612   5.952  0.00  0.00    -0.450 OA
BRANCH  16  17
ATOM     17  C   LIG    1       25.007 -24.784   5.435  0.00  0.00    +0.398 C 
ATOM     18  O   LIG    1       25.632 -25.541   4.705  0.00  0.00    -0.227 OA
ATOM     19  N   LIG    1       23.756 -25.057   5.864  0.00  0.00    -0.295 N 
ATOM     20  H   LIG    1       23.352 -25.948   5.613  0.00  0.00    +0.148 HD
ATOM     21  H   LIG    1       23.300 -24.455   6.529  0.00  0.00    +0.148 HD
ENDBRANCH  16  17
ENDBRANCH  15  16
ENDBRANCH   1  15
TORSDOF 7
ENDMDL
MODEL 8
REMARK VINA RESULT:      -6.9      2.791      5.060
REMARK  Name = *****
REMARK                            x       y       z     vdW  Elec       q    Type
REMARK                         _______ _______ _______ _____ _____    ______ ____
ROOT
ATOM      1  C   LIG    1       25.499 -21.397   7.124  0.00  0.00    +0.094 C 
ENDROOT
BRANCH   1   2
ATOM      2  C   LIG    1       26.950 -20.946   7.044  0.00  0.00    -0.038 A 
ATOM      3  C   LIG    1       27.341 -20.034   6.050  0.00  0.00    +0.004 A 
ATOM      4  C   LIG    1       28.679 -19.657   5.915  0.00  0.00    +0.000 A 
ATOM      5  C   LIG    1       29.642 -20.176   6.778  0.00  0.00    +0.000 A 
ATOM      6  C   LIG    1       29.268 -21.065   7.779  0.00  0.00    +0.000 A 
ATOM      7  C   LIG    1       27.931 -21.441   7.916  0.00  0.00    +0.004 A 
ENDBRANCH   1   2
BRANCH   1   8
ATOM      8  C   LIG    1       24.644 -20.772   6.005  0.00  0.00    +0.245 C 
BRANCH   8   9
ATOM      9  O   LIG    1       23.250 -20.737   6.347  0.00  0.00    -0.450 OA
BRANCH   9  13
ATOM     10  N   LIG    1       21.794 -21.623   4.956  0.00  0.00    -0.295 N 
ATOM     11  H   LIG    1       22.144 -22.478   5.356  0.00  0.00    +0.148 HD
ATOM     12  H   LIG    1       21.349 -21.637   4.051  0.00  0.00    +0.148 HD
ATOM     13  C   LIG    1       22.415 -20.473   5.310  0.00  0.00    +0.398 C 
ATOM     14  O   LIG    1       22.270 -19.415   4.734  0.00  0.00    -0.227 OA
ENDBRANCH   9  13
ENDBRANCH   8   9
ENDBRANCH   1   8
BRANCH   1  15
ATOM     15  C   LIG    1       25.356 -22.928   7.254  0.00  0.00    +0.245 C 
BRANCH  15  16
ATOM     16  O   LIG    1       24.834 -23.562   6.073  0.00  0.00    -0.450 OA
BRANCH  16  17
ATOM     17  C   LIG    1       23.764 -24.367   6.257  0.00  0.00    +0.398 C 
ATOM     18  O   LIG    1       22.710 -24.076   6.805  0.00  0.00    -0.227 OA
ATOM     19  N   LIG    1       23.987 -25.582   5.710  0.00  0.00    -0.295 N 
ATOM     20  H   LIG    1       23.227 -26.248   5.709  0.00  0.00    +0.148 HD
ATOM     21  H   LIG    1       24.832 -25.764   5.194  0.00  0.00    +0.148 HD
ENDBRANCH  16  17
ENDBRANCH  15  16
ENDBRANCH   1  15
TORSDOF 7
ENDMDL
MODEL 9
REMARK VINA RESULT:      -6.8      1.777      4.351
REMARK  Name = *****
REMARK                            x       y       z     vdW  Elec       q    Type
REMARK                         _______ _______ _______ _____ _____    ______ ____
ROOT
ATOM      1  C   LIG    1       25.390 -22.700   6.149  0.00  0.00    +0.094 C 
ENDROOT
BRANCH   1   2
ATOM      2  C   LIG    1       24.517 -21.578   5.604  0.00  0.00    -0.038 A 
ATOM      3  C   LIG    1       24.829 -20.993   4.366  0.00  0.00    +0.004 A 
ATOM      4  C   LIG    1       24.082 -19.919   3.878  0.00  0.00    +0.000 A 
ATOM      5  C   LIG    1       23.007 -19.423   4.612  0.00  0.00    +0.000 A 
ATOM      6  C   LIG    1       22.674 -20.004   5.831  0.00  0.00    +0.000 A 
ATOM      7  C   LIG    1       23.417 -21.079   6.319  0.00  0.00    +0.004 A 
ENDBRANCH   1   2
BRANCH   1   8
ATOM      8  C   LIG    1       25.510 -22.636   7.684  0.00  0.00    +0.245 C 
BRANCH   8   9
ATOM      9  O   LIG    1       26.755 -22.057   8.103  0.00  0.00    -0.450 OA
BRANCH   9  13
ATOM     10  N   LIG    1       27.579 -20.033   7.845  0.00  0.00    -0.295 N 
ATOM     11  H   LIG    1       28.259 -20.533   7.298  0.00  0.00    +0.148 HD
ATOM     12  H   LIG    1       27.808 -19.129   8.228  0.00  0.00    +0.148 HD
ATOM     13  C   LIG    1       26.670 -20.770   8.526  0.00  0.00    +0.398 C 
ATOM     14  O   LIG    1       25.956 -20.330   9.405  0.00  0.00    -0.227 OA
ENDBRANCH   9  13
ENDBRANCH   8   9
ENDBRANCH   1   8
BRANCH   1  15
ATOM     15  C   LIG    1       24.993 -24.085   5.598  0.00  0.00    +0.245 C 
BRANCH  15  16
ATOM     16  O   LIG    1       25.544 -25.184   6.346  0.00  0.00    -0.450 OA
BRANCH  16  17
ATOM     17  C   LIG    1       25.905 -26.269   5.625  0.00  0.00    +0.398 C 
ATOM     18  O   LIG    1       25.916 -26.372   4.406  0.00  0.00    -0.227 OA
ATOM     19  N   LIG    1       26.304 -27.267   6.442  0.00  0.00    -0.295 N 
ATOM     20  H   LIG    1       26.678 -28.105   6.019  0.00  0.00    +0.148 HD
ATOM     21  H   LIG    1       26.361 -27.123   7.437  0.00  0.00    +0.148 HD
ENDBRANCH  16  17
ENDBRANCH  15  16
ENDBRANCH   1  15
TORSDOF 7
ENDMDL
