MODEL 1
REMARK VINA RESULT:      -7.5      0.000      0.000
REMARK  Name = *****
REMARK                            x       y       z     vdW  Elec       q    Type
REMARK                         _______ _______ _______ _____ _____    ______ ____
ROOT
ATOM      1  S   LIG    1       29.643 -20.245   7.840  0.00  0.00    +0.103 S 
ATOM      2  O   LIG    1       29.954 -21.483   8.527  0.00  0.00    -0.146 OA
ATOM      3  O   LIG    1       30.279 -19.906   6.574  0.00  0.00    -0.146 OA
ENDROOT
BRANCH   1   4
ATOM      4  C   LIG    1       27.891 -20.341   7.474  0.00  0.00    +0.113 A 
ATOM      5  C   LIG    1       26.980 -20.531   8.521  0.00  0.00    +0.030 A 
ATOM      6  C   LIG    1       25.619 -20.670   8.228  0.00  0.00    +0.022 A 
ATOM      7  C   LIG    1       25.183 -20.626   6.902  0.00  0.00    +0.041 A 
ATOM      8 CL   LIG    1       23.512 -20.823   6.544  0.00  0.00    -0.084 Cl
ATOM      9  C   LIG    1       26.092 -20.429   5.863  0.00  0.00    +0.022 A 
ATOM     10  C   LIG    1       27.451 -20.285   6.147  0.00  0.00    +0.030 A 
ENDBRANCH   1   4
BRANCH   1  12
ATOM     11  C   LIG    1       30.879 -18.745   9.413  0.00  0.00    +0.298 C 
ATOM     12  N   LIG    1       29.747 -18.990   8.862  0.00  0.00    -0.076 NA
BRANCH  11  13
ATOM     13  N   LIG    1       31.162 -17.761  10.312  0.00  0.00    -0.298 N 
ATOM     14  H   LIG    1       30.948 -17.972  11.280  0.00  0.00    +0.150 HD
BRANCH  13  15
ATOM     15  C   LIG    1       32.271 -16.834  10.153  0.00  0.00    +0.105 C 
BRANCH  15  17
ATOM     16  C   LIG    1       31.958 -16.164  12.577  0.00  0.00    +0.005 C 
ATOM     17  C   LIG    1       32.948 -16.576  11.497  0.00  0.00    +0.015 C 
ENDBRANCH  15  17
ENDBRANCH  13  15
ENDBRANCH  11  13
BRANCH  11  18
ATOM     18  O   LIG    1       31.975 -19.478   9.168  0.00  0.00    -0.481 OA
ATOM     19  H   LIG    1       32.015 -20.257   9.736  0.00  0.00    +0.295 HD
ENDBRANCH  11  18
ENDBRANCH   1  12
TORSDOF 6
ENDMDL
MODEL 2
REMARK VINA RESULT:      -7.5      2.559      3.578
REMARK  Name = *****
REMARK                            x       y       z     vdW  Elec       q    Type
REMARK                         _______ _______ _______ _____ _____    ______ ____
ROOT
ATOM      1  S   LIG    1       26.727 -21.465   7.554  0.00  0.00    +0.103 S 
ATOM      2  O   LIG    1       26.493 -20.951   8.890  0.00  0.00    -0.146 OA
ATOM      3  O   LIG    1       26.794 -22.897   7.299  0.00  0.00    -0.146 OA
ENDROOT
BRANCH   1   4
ATOM      4  C   LIG    1       25.343 -20.878   6.579  0.00  0.00    +0.113 A 
ATOM      5  C   LIG    1       25.566 -20.418   5.275  0.00  0.00    +0.030 A 
ATOM      6  C   LIG    1       24.495 -19.901   4.538  0.00  0.00    +0.022 A 
ATOM      7  C   LIG    1       23.222 -19.840   5.107  0.00  0.00    +0.041 A 
ATOM      8 CL   LIG    1       21.913 -19.179   4.207  0.00  0.00    -0.084 Cl
ATOM      9  C   LIG    1       23.001 -20.304   6.403  0.00  0.00    +0.022 A 
ATOM     10  C   LIG    1       24.063 -20.827   7.143  0.00  0.00    +0.030 A 
ENDBRANCH   1   4
BRANCH   1  12
ATOM     11  C   LIG    1       29.143 -20.828   7.459  0.00  0.00    +0.298 C 
ATOM     12  N   LIG    1       28.004 -20.725   6.881  0.00  0.00    -0.076 NA
BRANCH  11  13
ATOM     13  N   LIG    1       30.320 -20.264   7.068  0.00  0.00    -0.298 N 
ATOM     14  H   LIG    1       30.402 -20.054   6.080  0.00  0.00    +0.150 HD
BRANCH  13  15
ATOM     15  C   LIG    1       31.095 -19.372   7.915  0.00  0.00    +0.105 C 
BRANCH  15  17
ATOM     16  C   LIG    1       30.238 -17.816   9.723  0.00  0.00    +0.005 C 
ATOM     17  C   LIG    1       30.299 -18.108   8.231  0.00  0.00    +0.015 C 
ENDBRANCH  15  17
ENDBRANCH  13  15
ENDBRANCH  11  13
BRANCH  11  18
ATOM     18  O   LIG    1       29.318 -21.529   8.589  0.00  0.00    -0.481 OA
ATOM     19  H   LIG    1       30.042 -22.162   8.504  0.00  0.00    +0.295 HD
ENDBRANCH  11  18
ENDBRANCH   1  12
TORSDOF 6
ENDMDL
MODEL 3
REMARK VINA RESULT:      -7.4      3.279      6.803
REMARK  Name = *****
REMARK                            x       y       z     vdW  Elec       q    Type
REMARK                         _______ _______ _______ _____ _____    ______ ____
ROOT
ATOM      1  S   LIG    1       30.513 -19.066   7.650  0.00  0.00    +0.103 S 
ATOM      2  O   LIG    1       30.064 -18.133   6.634  0.00  0.00    -0.146 OA
ATOM      3  O   LIG    1       31.630 -19.968   7.405  0.00  0.00    -0.146 OA
ENDROOT
BRANCH   1   4
ATOM      4  C   LIG    1       31.029 -18.042   9.028  0.00  0.00    +0.113 A 
ATOM      5  C   LIG    1       32.263 -17.383   8.970  0.00  0.00    +0.030 A 
ATOM      6  C   LIG    1       32.694 -16.637  10.072  0.00  0.00    +0.022 A 
ATOM      7  C   LIG    1       31.898 -16.561  11.217  0.00  0.00    +0.041 A 
ATOM      8 CL   LIG    1       32.443 -15.664  12.580  0.00  0.00    -0.084 Cl
ATOM      9  C   LIG    1       30.667 -17.213  11.269  0.00  0.00    +0.022 A 
ATOM     10  C   LIG    1       30.228 -17.956  10.172  0.00  0.00    +0.030 A 
ENDBRANCH   1   4
BRANCH   1  12
ATOM     11  C   LIG    1       28.703 -20.785   7.506  0.00  0.00    +0.298 C 
ATOM     12  N   LIG    1       29.254 -19.896   8.248  0.00  0.00    -0.076 NA
BRANCH  11  13
ATOM     13  N   LIG    1       27.629 -21.564   7.814  0.00  0.00    -0.298 N 
ATOM     14  H   LIG    1       27.841 -22.468   8.220  0.00  0.00    +0.150 HD
BRANCH  13  15
ATOM     15  C   LIG    1       26.350 -21.022   8.245  0.00  0.00    +0.105 C 
BRANCH  15  17
ATOM     16  C   LIG    1       24.006 -20.957   7.283  0.00  0.00    +0.005 C 
ATOM     17  C   LIG    1       25.482 -20.679   7.038  0.00  0.00    +0.015 C 
ENDBRANCH  15  17
ENDBRANCH  13  15
ENDBRANCH  11  13
BRANCH  11  18
ATOM     18  O   LIG    1       29.133 -21.058   6.266  0.00  0.00    -0.481 OA
ATOM     19  H   LIG    1       29.663 -20.335   5.907  0.00  0.00    +0.295 HD
ENDBRANCH  11  18
ENDBRANCH   1  12
TORSDOF 6
ENDMDL
MODEL 4
REMARK VINA RESULT:      -7.1      5.428      8.043
REMARK  Name = *****
REMARK                            x       y       z     vdW  Elec       q    Type
REMARK                         _______ _______ _______ _____ _____    ______ ____
ROOT
ATOM      1  S   LIG    1       24.498 -21.326   6.729  0.00  0.00    +0.103 S 
ATOM      2  O   LIG    1       23.925 -20.947   8.006  0.00  0.00    -0.146 OA
ATOM      3  O   LIG    1       23.901 -20.885   5.475  0.00  0.00    -0.146 OA
ENDROOT
BRANCH   1   4
ATOM      4  C   LIG    1       26.150 -20.631   6.732  0.00  0.00    +0.113 A 
ATOM      5  C   LIG    1       26.714 -20.192   5.528  0.00  0.00    +0.030 A 
ATOM      6  C   LIG    1       28.027 -19.709   5.521  0.00  0.00    +0.022 A 
ATOM      7  C   LIG    1       28.763 -19.675   6.708  0.00  0.00    +0.041 A 
ATOM      8 CL   LIG    1       30.386 -19.105   6.691  0.00  0.00    -0.084 Cl
ATOM      9  C   LIG    1       28.196 -20.106   7.907  0.00  0.00    +0.022 A 
ATOM     10  C   LIG    1       26.885 -20.585   7.922  0.00  0.00    +0.030 A 
ENDBRANCH   1   4
BRANCH   1  12
ATOM     11  C   LIG    1       23.754 -23.706   6.549  0.00  0.00    +0.298 C 
ATOM     12  N   LIG    1       24.762 -22.925   6.681  0.00  0.00    -0.076 NA
BRANCH  11  13
ATOM     13  N   LIG    1       23.765 -25.068   6.512  0.00  0.00    -0.298 N 
ATOM     14  H   LIG    1       22.970 -25.527   6.942  0.00  0.00    +0.150 HD
BRANCH  13  15
ATOM     15  C   LIG    1       24.354 -25.830   5.423  0.00  0.00    +0.105 C 
BRANCH  15  17
ATOM     16  C   LIG    1       25.962 -26.956   7.027  0.00  0.00    +0.005 C 
ATOM     17  C   LIG    1       25.810 -26.167   5.734  0.00  0.00    +0.015 C 
ENDBRANCH  15  17
ENDBRANCH  13  15
ENDBRANCH  11  13
BRANCH  11  18
ATOM     18  O   LIG    1       22.497 -23.250   6.438  0.00  0.00    -0.481 OA
ATOM     19  H   LIG    1       22.461 -22.432   5.927  0.00  0.00    +0.295 HD
ENDBRANCH  11  18
ENDBRANCH   1  12
TORSDOF 6
ENDMDL
MODEL 5
REMARK VINA RESULT:      -7.0      3.850      4.993
REMARK  Name = *****
REMARK                            x       y       z     vdW  Elec       q    Type
REMARK                         _______ _______ _______ _____ _____    ______ ____
ROOT
ATOM      1  S   LIG    1       25.003 -21.119   7.903  0.00  0.00    +0.103 S 
ATOM      2  O   LIG    1       23.697 -20.506   7.755  0.00  0.00    -0.146 OA
ATOM      3  O   LIG    1       25.634 -21.241   9.209  0.00  0.00    -0.146 OA
ENDROOT
BRANCH   1   4
ATOM      4  C   LIG    1       24.796 -22.802   7.322  0.00  0.00    +0.113 A 
ATOM      5  C   LIG    1       25.917 -23.635   7.216  0.00  0.00    +0.030 A 
ATOM      6  C   LIG    1       25.764 -24.928   6.703  0.00  0.00    +0.022 A 
ATOM      7  C   LIG    1       24.505 -25.371   6.294  0.00  0.00    +0.041 A 
ATOM      8 CL   LIG    1       24.325 -26.952   5.638  0.00  0.00    -0.084 Cl
ATOM      9  C   LIG    1       23.389 -24.542   6.406  0.00  0.00    +0.022 A 
ATOM     10  C   LIG    1       23.533 -23.253   6.923  0.00  0.00    +0.030 A 
ENDBRANCH   1   4
BRANCH   1  12
ATOM     11  C   LIG    1       27.284 -20.398   7.177  0.00  0.00    +0.298 C 
ATOM     12  N   LIG    1       26.049 -20.480   6.842  0.00  0.00    -0.076 NA
BRANCH  11  13
ATOM     13  N   LIG    1       28.305 -19.875   6.443  0.00  0.00    -0.298 N 
ATOM     14  H   LIG    1       28.099 -19.012   5.953  0.00  0.00    +0.150 HD
BRANCH  13  15
ATOM     15  C   LIG    1       29.704 -20.009   6.817  0.00  0.00    +0.105 C 
BRANCH  15  17
ATOM     16  C   LIG    1       30.218 -18.273   8.590  0.00  0.00    +0.005 C 
ATOM     17  C   LIG    1       30.310 -18.640   7.116  0.00  0.00    +0.015 C 
ENDBRANCH  15  17
ENDBRANCH  13  15
ENDBRANCH  11  13
BRANCH  11  18
ATOM     18  O   LIG    1       27.740 -20.829   8.363  0.00  0.00    -0.481 OA
ATOM     19  H   LIG    1       28.027 -20.096   8.920  0.00  0.00    +0.295 HD
ENDBRANCH  11  18
ENDBRANCH   1  12
TORSDOF 6
ENDMDL
MODEL 6
REMARK VINA RESULT:      -7.0      4.166      5.358
REMARK  Name = *****
REMARK                            x       y       z     vdW  Elec       q    Type
REMARK                         _______ _______ _______ _____ _____    ______ ____
ROOT
ATOM      1  S   LIG    1       25.397 -21.201   7.913  0.00  0.00    +0.103 S 
ATOM      2  O   LIG    1       24.385 -20.346   7.324  0.00  0.00    -0.146 OA
ATOM      3  O   LIG    1       25.476 -21.393   9.355  0.00  0.00    -0.146 OA
ENDROOT
BRANCH   1   4
ATOM      4  C   LIG    1       25.081 -22.832   7.239  0.00  0.00    +0.113 A 
ATOM      5  C   LIG    1       23.769 -23.200   6.916  0.00  0.00    +0.030 A 
ATOM      6  C   LIG    1       23.516 -24.494   6.450  0.00  0.00    +0.022 A 
ATOM      7  C   LIG    1       24.565 -25.406   6.318  0.00  0.00    +0.041 A 
ATOM      8 CL   LIG    1       24.245 -27.005   5.770  0.00  0.00    -0.084 Cl
ATOM      9  C   LIG    1       25.872 -25.035   6.634  0.00  0.00    +0.022 A 
ATOM     10  C   LIG    1       26.133 -23.743   7.095  0.00  0.00    +0.030 A 
ENDBRANCH   1   4
BRANCH   1  12
ATOM     11  C   LIG    1       26.959 -20.509   6.088  0.00  0.00    +0.298 C 
ATOM     12  N   LIG    1       26.862 -20.828   7.326  0.00  0.00    -0.076 NA
BRANCH  11  13
ATOM     13  N   LIG    1       28.094 -20.190   5.406  0.00  0.00    -0.298 N 
ATOM     14  H   LIG    1       28.148 -20.532   4.453  0.00  0.00    +0.150 HD
BRANCH  13  15
ATOM     15  C   LIG    1       28.829 -18.953   5.617  0.00  0.00    +0.105 C 
BRANCH  15  17
ATOM     16  C   LIG    1       29.867 -18.825   7.926  0.00  0.00    +0.005 C 
ATOM     17  C   LIG    1       30.071 -19.208   6.467  0.00  0.00    +0.015 C 
ENDBRANCH  15  17
ENDBRANCH  13  15
ENDBRANCH  11  13
BRANCH  11  18
ATOM     18  O   LIG    1       25.898 -20.463   5.269  0.00  0.00    -0.481 OA
ATOM     19  H   LIG    1       26.078 -20.908   4.431  0.00  0.00    +0.295 HD
ENDBRANCH  11  18
ENDBRANCH   1  12
TORSDOF 6
ENDMDL
MODEL 7
REMARK VINA RESULT:      -6.9      4.827      7.268
REMARK  Name = *****
REMARK                            x       y       z     vdW  Elec       q    Type
REMARK                         _______ _______ _______ _____ _____    ______ ____
ROOT
ATOM      1  S   LIG    1       25.911 -21.718   7.769  0.00  0.00    +0.103 S 
ATOM      2  O   LIG    1       25.972 -23.081   7.277  0.00  0.00    -0.146 OA
ATOM      3  O   LIG    1       25.623 -21.433   9.167  0.00  0.00    -0.146 OA
ENDROOT
BRANCH   1   4
ATOM      4  C   LIG    1       27.548 -21.045   7.480  0.00  0.00    +0.113 A 
ATOM      5  C   LIG    1       28.617 -21.473   8.277  0.00  0.00    +0.030 A 
ATOM      6  C   LIG    1       29.880 -20.900   8.094  0.00  0.00    +0.022 A 
ATOM      7  C   LIG    1       30.062 -19.907   7.129  0.00  0.00    +0.041 A 
ATOM      8 CL   LIG    1       31.611 -19.186   6.924  0.00  0.00    -0.084 Cl
ATOM      9  C   LIG    1       28.997 -19.488   6.332  0.00  0.00    +0.022 A 
ATOM     10  C   LIG    1       27.735 -20.058   6.506  0.00  0.00    +0.030 A 
ENDBRANCH   1   4
BRANCH   1  12
ATOM     11  C   LIG    1       23.688 -20.920   6.948  0.00  0.00    +0.298 C 
ATOM     12  N   LIG    1       24.960 -20.816   6.815  0.00  0.00    -0.076 NA
BRANCH  11  13
ATOM     13  N   LIG    1       22.729 -20.273   6.231  0.00  0.00    -0.298 N 
ATOM     14  H   LIG    1       22.408 -19.392   6.617  0.00  0.00    +0.150 HD
BRANCH  13  15
ATOM     15  C   LIG    1       22.640 -20.335   4.781  0.00  0.00    +0.105 C 
BRANCH  15  17
ATOM     16  C   LIG    1       24.566 -19.186   3.600  0.00  0.00    +0.005 C 
ATOM     17  C   LIG    1       23.158 -19.041   4.158  0.00  0.00    +0.015 C 
ENDBRANCH  15  17
ENDBRANCH  13  15
ENDBRANCH  11  13
BRANCH  11  18
ATOM     18  O   LIG    1       23.122 -21.735   7.850  0.00  0.00    -0.481 OA
ATOM     19  H   LIG    1       23.088 -21.328   8.724  0.00  0.00    +0.295 HD
ENDBRANCH  11  18
ENDBRANCH   1  12
TORSDOF 6
ENDMDL
MODEL 8
REMARK VINA RESULT:      -6.7      3.800      4.677
REMARK  Name = *****
REMARK                            x       y       z     vdW  Elec       q    Type
REMARK                         _______ _______ _______ _____ _____    ______ ____
ROOT
ATOM      1  S   LIG    1       26.089 -21.824   7.572  0.00  0.00    +0.103 S 
ATOM      2  O   LIG    1       25.316 -20.828   6.856  0.00  0.00    -0.146 OA
ATOM      3  O   LIG    1       26.022 -21.930   9.023  0.00  0.00    -0.146 OA
ENDROOT
BRANCH   1   4
ATOM      4  C   LIG    1       25.502 -23.402   6.958  0.00  0.00    +0.113 A 
ATOM      5  C   LIG    1       24.125 -23.619   6.825  0.00  0.00    +0.030 A 
ATOM      6  C   LIG    1       23.666 -24.873   6.406  0.00  0.00    +0.022 A 
ATOM      7  C   LIG    1       24.579 -25.894   6.133  0.00  0.00    +0.041 A 
ATOM      8 CL   LIG    1       24.009 -27.442   5.644  0.00  0.00    -0.084 Cl
ATOM      9  C   LIG    1       25.950 -25.673   6.260  0.00  0.00    +0.022 A 
ATOM     10  C   LIG    1       26.416 -24.423   6.672  0.00  0.00    +0.030 A 
ENDBRANCH   1   4
BRANCH   1  12
ATOM     11  C   LIG    1       28.398 -20.864   7.560  0.00  0.00    +0.298 C 
ATOM     12  N   LIG    1       27.639 -21.786   7.093  0.00  0.00    -0.076 NA
BRANCH  11  13
ATOM     13  N   LIG    1       29.710 -20.649   7.264  0.00  0.00    -0.298 N 
ATOM     14  H   LIG    1       29.900 -20.288   6.337  0.00  0.00    +0.150 HD
BRANCH  13  15
ATOM     15  C   LIG    1       30.693 -20.242   8.256  0.00  0.00    +0.105 C 
BRANCH  15  17
ATOM     16  C   LIG    1       30.728 -17.762   8.777  0.00  0.00    +0.005 C 
ATOM     17  C   LIG    1       31.277 -18.877   7.900  0.00  0.00    +0.015 C 
ENDBRANCH  15  17
ENDBRANCH  13  15
ENDBRANCH  11  13
BRANCH  11  18
ATOM     18  O   LIG    1       27.963 -19.942   8.432  0.00  0.00    -0.481 OA
ATOM     19  H   LIG    1       27.299 -20.307   9.031  0.00  0.00    +0.295 HD
ENDBRANCH  11  18
ENDBRANCH   1  12
TORSDOF 6
ENDMDL
MODEL 9
REMARK VINA RESULT:      -6.7      3.767      7.156
REMARK  Name = *****
REMARK                            x       y       z     vdW  Elec       q    Type
REMARK                         _______ _______ _______ _____ _____    ______ ____
ROOT
ATOM      1  S   LIG    1       28.368 -20.382   7.488  0.00  0.00    +0.103 S 
ATOM      2  O   LIG    1       29.071 -21.617   7.196  0.00  0.00    -0.146 OA
ATOM      3  O   LIG    1       27.332 -20.328   8.509  0.00  0.00    -0.146 OA
ENDROOT
BRANCH   1   4
ATOM      4  C   LIG    1       29.636 -19.243   8.044  0.00  0.00    +0.113 A 
ATOM      5  C   LIG    1       30.928 -19.339   7.511  0.00  0.00    +0.030 A 
ATOM      6  C   LIG    1       31.932 -18.492   7.992  0.00  0.00    +0.022 A 
ATOM      7  C   LIG    1       31.642 -17.569   8.999  0.00  0.00    +0.041 A 
ATOM      8 CL   LIG    1       32.886 -16.547   9.606  0.00  0.00    -0.084 Cl
ATOM      9  C   LIG    1       30.353 -17.472   9.523  0.00  0.00    +0.022 A 
ATOM     10  C   LIG    1       29.345 -18.310   9.045  0.00  0.00    +0.030 A 
ENDBRANCH   1   4
BRANCH   1  12
ATOM     11  C   LIG    1       26.830 -20.247   5.522  0.00  0.00    +0.298 C 
ATOM     12  N   LIG    1       27.827 -19.704   6.117  0.00  0.00    -0.076 NA
BRANCH  11  13
ATOM     13  N   LIG    1       26.249 -19.846   4.357  0.00  0.00    -0.298 N 
ATOM     14  H   LIG    1       26.885 -19.553   3.624  0.00  0.00    +0.150 HD
BRANCH  13  15
ATOM     15  C   LIG    1       25.006 -20.409   3.853  0.00  0.00    +0.105 C 
BRANCH  15  17
ATOM     16  C   LIG    1       22.904 -19.707   5.081  0.00  0.00    +0.005 C 
ATOM     17  C   LIG    1       23.877 -19.388   3.955  0.00  0.00    +0.015 C 
ENDBRANCH  15  17
ENDBRANCH  13  15
ENDBRANCH  11  13
BRANCH  11  18
ATOM     18  O   LIG    1       26.215 -21.341   5.994  0.00  0.00    -0.481 OA
ATOM     19  H   LIG    1       25.256 -21.277   5.900  0.00  0.00    +0.295 HD
ENDBRANCH  11  18
ENDBRANCH   1  12
TORSDOF 6
ENDMDL
