MODEL 1
REMARK VINA RESULT:       2.2      0.000      0.000
REMARK  Name = *****
REMARK                            x       y       z     vdW  Elec       q    Type
REMARK                         _______ _______ _______ _____ _____    ______ ____
ROOT
ATOM      1  C   LIG    1       23.803 -18.664   4.048  0.00  0.00    +0.064 C 
ATOM      2  C   LIG    1       22.352 -18.868   4.532  0.00  0.00    +0.118 C 
ATOM      3  C   LIG    1       22.121 -20.078   5.406  0.00  0.00    +0.074 C 
ATOM      4  C   LIG    1       21.969 -21.190   4.391  0.00  0.00    +0.239 C 
ATOM      5  O   LIG    1       21.299 -20.568   3.286  0.00  0.00    -0.464 OA
ATOM      6  C   LIG    1       23.170 -20.288   6.487  0.00  0.00    +0.152 C 
ATOM      7  C   LIG    1       24.592 -20.143   5.998  0.00  0.00    -0.011 A 
ATOM      8  C   LIG    1       25.651 -20.648   6.778  0.00  0.00    +0.056 A 
ATOM      9  C   LIG    1       26.940 -20.513   6.311  0.00  0.00    +0.167 A 
ATOM     10  O   LIG    1       28.065 -20.920   6.956  0.00  0.00    -0.453 OA
ATOM     11  C   LIG    1       29.081 -20.472   6.035  0.00  0.00    +0.466 C 
ATOM     12  O   LIG    1       28.541 -19.892   4.828  0.00  0.00    -0.453 OA
ATOM     13  C   LIG    1       27.211 -19.920   5.106  0.00  0.00    +0.167 A 
ATOM     14  C   LIG    1       26.210 -19.385   4.328  0.00  0.00    +0.054 A 
ATOM     15  C   LIG    1       21.504 -19.224   3.344  0.00  0.00    +0.312 C 
ATOM     16  O   LIG    1       21.096 -18.430   2.493  0.00  0.00    -0.251 OA
ATOM     17  C   LIG    1       24.880 -19.439   4.803  0.00  0.00    -0.030 A 
ENDROOT
BRANCH   1  22
ATOM     18  C   LIG    1       25.582 -15.347   3.363  0.00  0.00    +0.165 A 
ATOM     19  C   LIG    1       24.734 -14.408   3.995  0.00  0.00    +0.203 A 
ATOM     20  C   LIG    1       23.585 -14.872   4.683  0.00  0.00    +0.165 A 
ATOM     21  C   LIG    1       23.273 -16.238   4.679  0.00  0.00    +0.053 A 
ATOM     22  C   LIG    1       24.113 -17.168   4.049  0.00  0.00    -0.032 A 
ATOM     23  C   LIG    1       25.265 -16.709   3.408  0.00  0.00    +0.053 A 
BRANCH  18  25
ATOM     24  C   LIG    1       27.602 -14.035   3.437  0.00  0.00    +0.277 C 
ATOM     25  O   LIG    1       26.716 -14.899   2.745  0.00  0.00    -0.491 OA
ENDBRANCH  18  25
BRANCH  19  26
ATOM     26  O   LIG    1       24.919 -13.039   4.009  0.00  0.00    -0.488 OA
ATOM     27  C   LIG    1       24.369 -12.266   2.946  0.00  0.00    +0.277 C 
ENDBRANCH  19  26
BRANCH  20  28
ATOM     28  O   LIG    1       22.778 -13.943   5.307  0.00  0.00    -0.491 OA
ATOM     29  C   LIG    1       22.023 -14.416   6.425  0.00  0.00    +0.277 C 
ENDBRANCH  20  28
ENDBRANCH   1  22
BRANCH   6  30
ATOM     30  O   LIG    1       22.936 -21.571   7.062  0.00  0.00    -0.387 OA
ATOM     31  H   LIG    1       22.835 -21.470   8.024  0.00  0.00    +0.210 HD
ENDBRANCH   6  30
TORSDOF 5
ENDMDL
MODEL 2
REMARK VINA RESULT:       3.4      0.133      2.258
REMARK  Name = *****
REMARK                            x       y       z     vdW  Elec       q    Type
REMARK                         _______ _______ _______ _____ _____    ______ ____
ROOT
ATOM      1  C   LIG    1       23.815 -18.671   4.050  0.00  0.00    +0.064 C 
ATOM      2  C   LIG    1       22.358 -18.881   4.514  0.00  0.00    +0.118 C 
ATOM      3  C   LIG    1       22.120 -20.089   5.389  0.00  0.00    +0.074 C 
ATOM      4  C   LIG    1       21.988 -21.205   4.376  0.00  0.00    +0.239 C 
ATOM      5  O   LIG    1       21.331 -20.590   3.259  0.00  0.00    -0.464 OA
ATOM      6  C   LIG    1       23.153 -20.290   6.486  0.00  0.00    +0.152 C 
ATOM      7  C   LIG    1       24.581 -20.140   6.017  0.00  0.00    -0.011 A 
ATOM      8  C   LIG    1       25.631 -20.637   6.814  0.00  0.00    +0.056 A 
ATOM      9  C   LIG    1       26.926 -20.498   6.366  0.00  0.00    +0.167 A 
ATOM     10  O   LIG    1       28.044 -20.897   7.029  0.00  0.00    -0.453 OA
ATOM     11  C   LIG    1       29.071 -20.448   6.121  0.00  0.00    +0.466 C 
ATOM     12  O   LIG    1       28.546 -19.875   4.904  0.00  0.00    -0.453 OA
ATOM     13  C   LIG    1       27.212 -19.908   5.163  0.00  0.00    +0.167 A 
ATOM     14  C   LIG    1       26.221 -19.381   4.368  0.00  0.00    +0.054 A 
ATOM     15  C   LIG    1       21.528 -19.245   3.315  0.00  0.00    +0.312 C 
ATOM     16  O   LIG    1       21.130 -18.457   2.455  0.00  0.00    -0.251 OA
ATOM     17  C   LIG    1       24.884 -19.439   4.824  0.00  0.00    -0.030 A 
ENDROOT
BRANCH   1  22
ATOM     18  C   LIG    1       23.532 -14.934   4.815  0.00  0.00    +0.165 A 
ATOM     19  C   LIG    1       24.633 -14.392   4.112  0.00  0.00    +0.203 A 
ATOM     20  C   LIG    1       25.457 -15.259   3.350  0.00  0.00    +0.165 A 
ATOM     21  C   LIG    1       25.208 -16.638   3.350  0.00  0.00    +0.053 A 
ATOM     22  C   LIG    1       24.117 -17.174   4.051  0.00  0.00    -0.032 A 
ATOM     23  C   LIG    1       23.286 -16.311   4.766  0.00  0.00    +0.053 A 
BRANCH  18  25
ATOM     24  C   LIG    1       21.760 -14.612   6.416  0.00  0.00    +0.277 C 
ATOM     25  O   LIG    1       22.711 -14.087   5.505  0.00  0.00    -0.491 OA
ENDBRANCH  18  25
BRANCH  19  26
ATOM     26  O   LIG    1       24.999 -13.061   4.093  0.00  0.00    -0.488 OA
ATOM     27  C   LIG    1       24.317 -12.179   3.205  0.00  0.00    +0.277 C 
ENDBRANCH  19  26
BRANCH  20  28
ATOM     28  O   LIG    1       26.517 -14.711   2.658  0.00  0.00    -0.491 OA
ATOM     29  C   LIG    1       27.611 -14.245   3.451  0.00  0.00    +0.277 C 
ENDBRANCH  20  28
ENDBRANCH   1  22
BRANCH   6  30
ATOM     30  O   LIG    1       22.917 -21.572   7.062  0.00  0.00    -0.387 OA
ATOM     31  H   LIG    1       23.661 -22.158   6.837  0.00  0.00    +0.210 HD
ENDBRANCH   6  30
TORSDOF 5
ENDMDL
