MODEL 1
REMARK VINA RESULT:      12.3      0.000      0.000
REMARK  Name = *****
REMARK                            x       y       z     vdW  Elec       q    Type
REMARK                         _______ _______ _______ _____ _____    ______ ____
ROOT
ATOM      1  C   LIG    1       22.376 -18.234   5.184  0.00  0.00    +0.090 C 
ENDROOT
BRANCH   1   3
ATOM      2  C   LIG    1       22.295 -15.642   5.365  0.00  0.00    +0.219 A 
ATOM      3  C   LIG    1       23.012 -16.808   5.059  0.00  0.00    +0.025 A 
ATOM      4  C   LIG    1       24.276 -16.566   4.512  0.00  0.00    +0.019 A 
ATOM      5  C   LIG    1       24.791 -15.239   4.369  0.00  0.00    +0.002 A 
ATOM      6  C   LIG    1       23.976 -14.173   4.742  0.00  0.00    +0.075 A 
ATOM      7  C   LIG    1       24.429 -12.859   4.585  0.00  0.00    +0.029 A 
ATOM      8  C   LIG    1       25.700 -12.597   4.091  0.00  0.00    +0.017 A 
ATOM      9  C   LIG    1       26.529 -13.648   3.738  0.00  0.00    +0.019 A 
ATOM     10 BR   LIG    1       28.277 -13.313   3.087  0.00  0.00    -0.050 Br
ATOM     11  C   LIG    1       26.066 -14.968   3.868  0.00  0.00    +0.025 A 
ATOM     12  N   LIG    1       22.767 -14.379   5.230  0.00  0.00    -0.213 NA
BRANCH   2  14
ATOM     13  C   LIG    1       20.631 -14.779   6.817  0.00  0.00    +0.278 C 
ATOM     14  O   LIG    1       20.995 -15.742   5.821  0.00  0.00    -0.479 OA
ENDBRANCH   2  14
ENDBRANCH   1   3
BRANCH   1  15
ATOM     15  C   LIG    1       21.420 -18.439   3.983  0.00  0.00    -0.037 A 
ATOM     16  C   LIG    1       20.388 -19.392   4.080  0.00  0.00    +0.004 A 
ATOM     17  C   LIG    1       19.353 -19.444   3.139  0.00  0.00    +0.000 A 
ATOM     18  C   LIG    1       19.351 -18.570   2.058  0.00  0.00    +0.000 A 
ATOM     19  C   LIG    1       20.421 -17.699   1.880  0.00  0.00    +0.000 A 
ATOM     20  C   LIG    1       21.435 -17.619   2.844  0.00  0.00    +0.004 A 
ENDBRANCH   1  15
BRANCH   1  21
ATOM     21  C   LIG    1       23.337 -19.498   5.597  0.00  0.00    +0.103 C 
BRANCH  21  22
ATOM     22  C   LIG    1       24.782 -19.373   4.976  0.00  0.00    -0.007 A 
ATOM     23  C   LIG    1       25.974 -20.023   5.464  0.00  0.00    -0.012 A 
ATOM     24  C   LIG    1       27.243 -19.680   4.910  0.00  0.00    -0.018 A 
ATOM     25  C   LIG    1       28.445 -20.153   5.471  0.00  0.00    +0.008 A 
ATOM     26  C   LIG    1       28.436 -20.984   6.583  0.00  0.00    +0.001 A 
ATOM     27  C   LIG    1       27.223 -21.443   7.060  0.00  0.00    +0.001 A 
ATOM     28  C   LIG    1       27.323 -18.872   3.775  0.00  0.00    +0.008 A 
ATOM     29  C   LIG    1       26.178 -18.315   3.233  0.00  0.00    +0.001 A 
ATOM     30  C   LIG    1       26.027 -21.018   6.469  0.00  0.00    +0.009 A 
ATOM     31  C   LIG    1       24.948 -18.509   3.859  0.00  0.00    +0.007 A 
ENDBRANCH  21  22
BRANCH  21  32
ATOM     32  O   LIG    1       23.509 -19.509   7.040  0.00  0.00    -0.383 OA
ATOM     33  H   LIG    1       23.021 -18.755   7.407  0.00  0.00    +0.211 HD
ENDBRANCH  21  32
BRANCH  21  34
ATOM     34  C   LIG    1       22.609 -20.865   5.271  0.00  0.00    +0.056 C 
BRANCH  34  35
ATOM     35  C   LIG    1       22.239 -21.122   3.785  0.00  0.00    +0.087 C 
BRANCH  35  36
ATOM     36  N   LIG    1       23.407 -21.340   2.888  0.00  0.00    -0.308 NA
ATOM     37  C   LIG    1       24.657 -21.566   3.614  0.00  0.00    +0.104 C 
ATOM     38  C   LIG    1       23.570 -20.191   1.985  0.00  0.00    +0.104 C 
ENDBRANCH  35  36
ENDBRANCH  34  35
ENDBRANCH  21  34
ENDBRANCH   1  21
TORSDOF 9
ENDMDL
