MODEL 1
REMARK VINA RESULT:      -2.4      0.000      0.000
REMARK  Name = *****
REMARK                            x       y       z     vdW  Elec       q    Type
REMARK                         _______ _______ _______ _____ _____    ______ ____
ROOT
ATOM      1  C   LIG    1       25.987 -15.979   3.723  0.00  0.00    -0.027 A 
ATOM      2  C   LIG    1       24.856 -16.805   3.577  0.00  0.00    +0.010 A 
ATOM      3  C   LIG    1       24.885 -18.191   3.866  0.00  0.00    -0.027 A 
ATOM      4  C   LIG    1       26.131 -18.763   4.210  0.00  0.00    +0.010 A 
ATOM      5  C   LIG    1       27.291 -17.978   4.338  0.00  0.00    -0.025 A 
ATOM      6  C   LIG    1       27.174 -16.595   4.148  0.00  0.00    +0.010 A 
ENDROOT
BRANCH   1   8
ATOM      7  C   LIG    1       24.482 -13.975   3.325  0.00  0.00    +0.032 C 
ATOM      8  C   LIG    1       25.941 -14.459   3.440  0.00  0.00    +0.077 C 
ATOM      9  C   LIG    1       26.679 -14.124   2.128  0.00  0.00    +0.032 C 
BRANCH   8  10
ATOM     10  C   LIG    1       26.580 -13.648   4.513  0.00  0.00    +0.073 C 
ATOM     11  N   LIG    1       27.096 -13.032   5.356  0.00  0.00    -0.196 NA
ENDBRANCH   8  10
ENDBRANCH   1   8
BRANCH   3  12
ATOM     12  C   LIG    1       23.593 -19.047   3.804  0.00  0.00    +0.077 C 
ATOM     13  C   LIG    1       23.495 -19.735   2.429  0.00  0.00    +0.032 C 
ATOM     14  C   LIG    1       22.324 -18.184   4.014  0.00  0.00    +0.032 C 
BRANCH  12  15
ATOM     15  C   LIG    1       23.564 -20.098   4.855  0.00  0.00    +0.073 C 
ATOM     16  N   LIG    1       23.534 -20.932   5.672  0.00  0.00    -0.196 NA
ENDBRANCH  12  15
ENDBRANCH   3  12
BRANCH   5  17
ATOM     17  C   LIG    1       28.618 -18.590   4.756  0.00  0.00    +0.180 C 
BRANCH  17  18
ATOM     18  N   LIG    1       28.487 -19.706   5.692  0.00  0.00    -0.248 N 
ATOM     19  N   LIG    1       27.273 -20.130   6.100  0.00  0.00    -0.158 NA
ATOM     20  C   LIG    1       27.603 -21.141   6.909  0.00  0.00    +0.244 A 
ATOM     21  N   LIG    1       28.941 -21.357   7.055  0.00  0.00    -0.223 NA
ATOM     22  C   LIG    1       29.475 -20.426   6.299  0.00  0.00    +0.219 A 
ENDBRANCH  17  18
ENDBRANCH   5  17
TORSDOF 6
ENDMDL
MODEL 2
REMARK VINA RESULT:      -2.2      0.239      4.646
REMARK  Name = *****
REMARK                            x       y       z     vdW  Elec       q    Type
REMARK                         _______ _______ _______ _____ _____    ______ ____
ROOT
ATOM      1  C   LIG    1       24.724 -18.185   3.846  0.00  0.00    -0.027 A 
ATOM      2  C   LIG    1       24.657 -16.790   3.680  0.00  0.00    +0.010 A 
ATOM      3  C   LIG    1       25.807 -15.964   3.719  0.00  0.00    -0.027 A 
ATOM      4  C   LIG    1       27.041 -16.573   4.042  0.00  0.00    +0.010 A 
ATOM      5  C   LIG    1       27.145 -17.961   4.243  0.00  0.00    -0.025 A 
ATOM      6  C   LIG    1       25.991 -18.739   4.081  0.00  0.00    +0.010 A 
ENDROOT
BRANCH   1   8
ATOM      7  C   LIG    1       23.545 -20.010   2.535  0.00  0.00    +0.032 C 
ATOM      8  C   LIG    1       23.469 -19.087   3.767  0.00  0.00    +0.077 C 
ATOM      9  C   LIG    1       22.188 -18.235   3.668  0.00  0.00    +0.032 C 
BRANCH   8  10
ATOM     10  C   LIG    1       23.310 -19.968   4.956  0.00  0.00    +0.073 C 
ATOM     11  N   LIG    1       23.208 -20.666   5.884  0.00  0.00    -0.196 NA
ENDBRANCH   8  10
ENDBRANCH   1   8
BRANCH   3  12
ATOM     12  C   LIG    1       25.710 -14.445   3.420  0.00  0.00    +0.077 C 
ATOM     13  C   LIG    1       24.230 -14.034   3.302  0.00  0.00    +0.032 C 
ATOM     14  C   LIG    1       26.430 -14.074   2.101  0.00  0.00    +0.032 C 
BRANCH  12  15
ATOM     15  C   LIG    1       26.340 -13.621   4.487  0.00  0.00    +0.073 C 
ATOM     16  N   LIG    1       26.845 -12.984   5.324  0.00  0.00    -0.196 NA
ENDBRANCH  12  15
ENDBRANCH   3  12
BRANCH   5  17
ATOM     17  C   LIG    1       28.483 -18.618   4.541  0.00  0.00    +0.180 C 
BRANCH  17  18
ATOM     18  N   LIG    1       28.418 -19.658   5.568  0.00  0.00    -0.248 N 
ATOM     19  N   LIG    1       27.230 -20.117   6.015  0.00  0.00    -0.158 NA
ATOM     20  C   LIG    1       27.618 -21.036   6.904  0.00  0.00    +0.244 A 
ATOM     21  N   LIG    1       28.967 -21.161   7.062  0.00  0.00    -0.223 NA
ATOM     22  C   LIG    1       29.446 -20.266   6.229  0.00  0.00    +0.219 A 
ENDBRANCH  17  18
ENDBRANCH   5  17
TORSDOF 6
ENDMDL
MODEL 3
REMARK VINA RESULT:      -2.1      1.092      4.624
REMARK  Name = *****
REMARK                            x       y       z     vdW  Elec       q    Type
REMARK                         _______ _______ _______ _____ _____    ______ ____
ROOT
ATOM      1  C   LIG    1       24.905 -18.058   3.832  0.00  0.00    -0.027 A 
ATOM      2  C   LIG    1       24.886 -16.664   3.642  0.00  0.00    +0.010 A 
ATOM      3  C   LIG    1       26.052 -15.867   3.746  0.00  0.00    -0.027 A 
ATOM      4  C   LIG    1       27.246 -16.502   4.160  0.00  0.00    +0.010 A 
ATOM      5  C   LIG    1       27.299 -17.888   4.389  0.00  0.00    -0.025 A 
ATOM      6  C   LIG    1       26.139 -18.639   4.160  0.00  0.00    +0.010 A 
ENDROOT
BRANCH   1   8
ATOM      7  C   LIG    1       23.782 -19.896   2.491  0.00  0.00    +0.032 C 
ATOM      8  C   LIG    1       23.635 -18.929   3.682  0.00  0.00    +0.077 C 
ATOM      9  C   LIG    1       22.391 -18.047   3.453  0.00  0.00    +0.032 C 
BRANCH   8  10
ATOM     10  C   LIG    1       23.357 -19.764   4.883  0.00  0.00    +0.073 C 
ATOM     11  N   LIG    1       23.124 -20.400   5.830  0.00  0.00    -0.196 NA
ENDBRANCH   8  10
ENDBRANCH   1   8
BRANCH   3  12
ATOM     12  C   LIG    1       26.015 -14.351   3.419  0.00  0.00    +0.077 C 
ATOM     13  C   LIG    1       26.828 -14.078   2.139  0.00  0.00    +0.032 C 
ATOM     14  C   LIG    1       26.610 -13.503   4.570  0.00  0.00    +0.032 C 
BRANCH  12  15
ATOM     15  C   LIG    1       24.629 -13.856   3.206  0.00  0.00    +0.073 C 
ATOM     16  N   LIG    1       23.544 -13.456   3.047  0.00  0.00    -0.196 NA
ENDBRANCH  12  15
ENDBRANCH   3  12
BRANCH   5  17
ATOM     17  C   LIG    1       28.597 -18.574   4.786  0.00  0.00    +0.180 C 
BRANCH  17  18
ATOM     18  N   LIG    1       28.417 -19.695   5.707  0.00  0.00    -0.248 N 
ATOM     19  N   LIG    1       29.475 -20.259   6.327  0.00  0.00    -0.158 NA
ATOM     20  C   LIG    1       28.879 -21.203   7.062  0.00  0.00    +0.244 A 
ATOM     21  N   LIG    1       27.525 -21.284   6.921  0.00  0.00    -0.223 NA
ATOM     22  C   LIG    1       27.263 -20.341   6.045  0.00  0.00    +0.219 A 
ENDBRANCH  17  18
ENDBRANCH   5  17
TORSDOF 6
ENDMDL
MODEL 4
REMARK VINA RESULT:      -1.9      1.653      5.068
REMARK  Name = *****
REMARK                            x       y       z     vdW  Elec       q    Type
REMARK                         _______ _______ _______ _____ _____    ______ ____
ROOT
ATOM      1  C   LIG    1       26.825 -19.514   5.133  0.00  0.00    -0.027 A 
ATOM      2  C   LIG    1       25.550 -20.106   5.194  0.00  0.00    +0.010 A 
ATOM      3  C   LIG    1       24.451 -19.622   4.444  0.00  0.00    -0.027 A 
ATOM      4  C   LIG    1       24.638 -18.436   3.697  0.00  0.00    +0.010 A 
ATOM      5  C   LIG    1       25.889 -17.798   3.633  0.00  0.00    -0.025 A 
ATOM      6  C   LIG    1       26.966 -18.389   4.307  0.00  0.00    +0.010 A 
ENDROOT
BRANCH   1   8
ATOM      7  C   LIG    1       28.972 -20.860   4.996  0.00  0.00    +0.032 C 
ATOM      8  C   LIG    1       28.032 -20.069   5.927  0.00  0.00    +0.077 C 
ATOM      9  C   LIG    1       27.560 -21.000   7.061  0.00  0.00    +0.032 C 
BRANCH   8  10
ATOM     10  C   LIG    1       28.853 -19.000   6.560  0.00  0.00    +0.073 C 
ATOM     11  N   LIG    1       29.475 -18.152   7.062  0.00  0.00    -0.196 NA
ENDBRANCH   8  10
ENDBRANCH   1   8
BRANCH   3  12
ATOM     12  C   LIG    1       23.090 -20.367   4.449  0.00  0.00    +0.077 C 
ATOM     13  C   LIG    1       23.078 -21.429   3.334  0.00  0.00    +0.032 C 
ATOM     14  C   LIG    1       21.906 -19.397   4.218  0.00  0.00    +0.032 C 
BRANCH  12  15
ATOM     15  C   LIG    1       22.828 -21.048   5.745  0.00  0.00    +0.073 C 
ATOM     16  N   LIG    1       22.628 -21.572   6.769  0.00  0.00    -0.196 NA
ENDBRANCH  12  15
ENDBRANCH   3  12
BRANCH   5  17
ATOM     17  C   LIG    1       26.098 -16.552   2.788  0.00  0.00    +0.180 C 
BRANCH  17  18
ATOM     18  N   LIG    1       26.330 -15.337   3.569  0.00  0.00    -0.248 N 
ATOM     19  N   LIG    1       25.298 -14.635   4.081  0.00  0.00    -0.158 NA
ATOM     20  C   LIG    1       25.938 -13.646   4.712  0.00  0.00    +0.244 A 
ATOM     21  N   LIG    1       27.297 -13.668   4.604  0.00  0.00    -0.223 NA
ATOM     22  C   LIG    1       27.516 -14.727   3.860  0.00  0.00    +0.219 A 
ENDBRANCH  17  18
ENDBRANCH   5  17
TORSDOF 6
ENDMDL
MODEL 5
REMARK VINA RESULT:      -1.8      1.661      6.142
REMARK  Name = *****
REMARK                            x       y       z     vdW  Elec       q    Type
REMARK                         _______ _______ _______ _____ _____    ______ ____
ROOT
ATOM      1  C   LIG    1       24.562 -19.523   4.374  0.00  0.00    -0.027 A 
ATOM      2  C   LIG    1       25.693 -20.025   5.043  0.00  0.00    +0.010 A 
ATOM      3  C   LIG    1       26.928 -19.332   5.074  0.00  0.00    -0.027 A 
ATOM      4  C   LIG    1       27.034 -18.147   4.310  0.00  0.00    +0.010 A 
ATOM      5  C   LIG    1       25.935 -17.627   3.603  0.00  0.00    -0.025 A 
ATOM      6  C   LIG    1       24.710 -18.300   3.703  0.00  0.00    +0.010 A 
ENDROOT
BRANCH   1   8
ATOM      7  C   LIG    1       23.207 -21.392   3.321  0.00  0.00    +0.032 C 
ATOM      8  C   LIG    1       23.205 -20.267   4.373  0.00  0.00    +0.077 C 
ATOM      9  C   LIG    1       22.049 -19.296   4.058  0.00  0.00    +0.032 C 
BRANCH   8  10
ATOM     10  C   LIG    1       22.889 -20.902   5.683  0.00  0.00    +0.073 C 
ATOM     11  N   LIG    1       22.666 -21.400   6.712  0.00  0.00    -0.196 NA
ENDBRANCH   8  10
ENDBRANCH   1   8
BRANCH   3  12
ATOM     12  C   LIG    1       28.119 -19.860   5.915  0.00  0.00    +0.077 C 
ATOM     13  C   LIG    1       29.080 -20.654   5.010  0.00  0.00    +0.032 C 
ATOM     14  C   LIG    1       27.645 -20.786   7.062  0.00  0.00    +0.032 C 
BRANCH  12  15
ATOM     15  C   LIG    1       28.886 -18.758   6.557  0.00  0.00    +0.073 C 
ATOM     16  N   LIG    1       29.475 -17.886   7.062  0.00  0.00    -0.196 NA
ENDBRANCH  12  15
ENDBRANCH   3  12
BRANCH   5  17
ATOM     17  C   LIG    1       26.040 -16.327   2.823  0.00  0.00    +0.180 C 
BRANCH  17  18
ATOM     18  N   LIG    1       26.070 -15.131   3.665  0.00  0.00    -0.248 N 
ATOM     19  N   LIG    1       27.209 -14.742   4.275  0.00  0.00    -0.158 NA
ATOM     20  C   LIG    1       26.806 -13.635   4.907  0.00  0.00    +0.244 A 
ATOM     21  N   LIG    1       25.487 -13.325   4.756  0.00  0.00    -0.223 NA
ATOM     22  C   LIG    1       25.042 -14.295   3.991  0.00  0.00    +0.219 A 
ENDBRANCH  17  18
ENDBRANCH   5  17
TORSDOF 6
ENDMDL
MODEL 6
REMARK VINA RESULT:      -1.0      1.445      4.755
REMARK  Name = *****
REMARK                            x       y       z     vdW  Elec       q    Type
REMARK                         _______ _______ _______ _____ _____    ______ ____
ROOT
ATOM      1  C   LIG    1       24.139 -18.220   3.952  0.00  0.00    -0.027 A 
ATOM      2  C   LIG    1       24.022 -16.819   3.885  0.00  0.00    +0.010 A 
ATOM      3  C   LIG    1       25.146 -15.968   3.746  0.00  0.00    -0.027 A 
ATOM      4  C   LIG    1       26.428 -16.564   3.784  0.00  0.00    +0.010 A 
ATOM      5  C   LIG    1       26.589 -17.958   3.878  0.00  0.00    -0.025 A 
ATOM      6  C   LIG    1       25.436 -18.753   3.900  0.00  0.00    +0.010 A 
ENDROOT
BRANCH   1   8
ATOM      7  C   LIG    1       22.732 -19.634   5.519  0.00  0.00    +0.032 C 
ATOM      8  C   LIG    1       22.906 -19.147   4.067  0.00  0.00    +0.077 C 
ATOM      9  C   LIG    1       23.057 -20.376   3.148  0.00  0.00    +0.032 C 
BRANCH   8  10
ATOM     10  C   LIG    1       21.635 -18.475   3.682  0.00  0.00    +0.073 C 
ATOM     11  N   LIG    1       20.634 -17.947   3.404  0.00  0.00    -0.196 NA
ENDBRANCH   8  10
ENDBRANCH   1   8
BRANCH   3  12
ATOM     12  C   LIG    1       24.971 -14.438   3.563  0.00  0.00    +0.077 C 
ATOM     13  C   LIG    1       23.482 -14.067   3.698  0.00  0.00    +0.032 C 
ATOM     14  C   LIG    1       25.472 -13.967   2.175  0.00  0.00    +0.032 C 
BRANCH  12  15
ATOM     15  C   LIG    1       25.739 -13.660   4.571  0.00  0.00    +0.073 C 
ATOM     16  N   LIG    1       26.354 -13.052   5.355  0.00  0.00    -0.196 NA
ENDBRANCH  12  15
ENDBRANCH   3  12
BRANCH   5  17
ATOM     17  C   LIG    1       27.968 -18.596   3.869  0.00  0.00    +0.180 C 
BRANCH  17  18
ATOM     18  N   LIG    1       28.459 -18.967   5.195  0.00  0.00    -0.248 N 
ATOM     19  N   LIG    1       29.294 -18.155   5.877  0.00  0.00    -0.158 NA
ATOM     20  C   LIG    1       29.475 -18.846   7.006  0.00  0.00    +0.244 A 
ATOM     21  N   LIG    1       28.832 -20.048   7.062  0.00  0.00    -0.223 NA
ATOM     22  C   LIG    1       28.221 -20.110   5.901  0.00  0.00    +0.219 A 
ENDBRANCH  17  18
ENDBRANCH   5  17
TORSDOF 6
ENDMDL
MODEL 7
REMARK VINA RESULT:       0.1      1.708      2.363
REMARK  Name = *****
REMARK                            x       y       z     vdW  Elec       q    Type
REMARK                         _______ _______ _______ _____ _____    ______ ____
ROOT
ATOM      1  C   LIG    1       25.554 -15.793   3.668  0.00  0.00    -0.027 A 
ATOM      2  C   LIG    1       24.214 -16.143   3.912  0.00  0.00    +0.010 A 
ATOM      3  C   LIG    1       23.816 -17.472   4.199  0.00  0.00    -0.027 A 
ATOM      4  C   LIG    1       24.802 -18.482   4.127  0.00  0.00    +0.010 A 
ATOM      5  C   LIG    1       26.148 -18.177   3.858  0.00  0.00    -0.025 A 
ATOM      6  C   LIG    1       26.498 -16.830   3.694  0.00  0.00    +0.010 A 
ENDROOT
BRANCH   1   8
ATOM      7  C   LIG    1       27.067 -14.292   2.291  0.00  0.00    +0.032 C 
ATOM      8  C   LIG    1       25.990 -14.334   3.392  0.00  0.00    +0.077 C 
ATOM      9  C   LIG    1       26.559 -13.682   4.667  0.00  0.00    +0.032 C 
BRANCH   8  10
ATOM     10  C   LIG    1       24.868 -13.470   2.930  0.00  0.00    +0.073 C 
ATOM     11  N   LIG    1       23.988 -12.786   2.591  0.00  0.00    -0.196 NA
ENDBRANCH   8  10
ENDBRANCH   1   8
BRANCH   3  12
ATOM     12  C   LIG    1       22.347 -17.802   4.574  0.00  0.00    +0.077 C 
ATOM     13  C   LIG    1       21.759 -16.657   5.419  0.00  0.00    +0.032 C 
ATOM     14  C   LIG    1       22.246 -19.116   5.386  0.00  0.00    +0.032 C 
BRANCH  12  15
ATOM     15  C   LIG    1       21.488 -17.985   3.373  0.00  0.00    +0.073 C 
ATOM     16  N   LIG    1       20.812 -18.142   2.434  0.00  0.00    -0.196 NA
ENDBRANCH  12  15
ENDBRANCH   3  12
BRANCH   5  17
ATOM     17  C   LIG    1       27.214 -19.260   3.831  0.00  0.00    +0.180 C 
BRANCH  17  18
ATOM     18  N   LIG    1       27.931 -19.419   5.096  0.00  0.00    -0.248 N 
ATOM     19  N   LIG    1       27.421 -20.175   6.091  0.00  0.00    -0.158 NA
ATOM     20  C   LIG    1       28.372 -20.062   7.024  0.00  0.00    +0.244 A 
ATOM     21  N   LIG    1       29.425 -19.264   6.688  0.00  0.00    -0.223 NA
ATOM     22  C   LIG    1       29.111 -18.853   5.481  0.00  0.00    +0.219 A 
ENDBRANCH  17  18
ENDBRANCH   5  17
TORSDOF 6
ENDMDL
MODEL 8
REMARK VINA RESULT:       0.6      1.301      4.389
REMARK  Name = *****
REMARK                            x       y       z     vdW  Elec       q    Type
REMARK                         _______ _______ _______ _____ _____    ______ ____
ROOT
ATOM      1  C   LIG    1       26.590 -16.204   3.870  0.00  0.00    -0.027 A 
ATOM      2  C   LIG    1       27.531 -16.951   4.603  0.00  0.00    +0.010 A 
ATOM      3  C   LIG    1       27.433 -18.355   4.757  0.00  0.00    -0.027 A 
ATOM      4  C   LIG    1       26.283 -18.993   4.237  0.00  0.00    +0.010 A 
ATOM      5  C   LIG    1       25.305 -18.278   3.524  0.00  0.00    -0.025 A 
ATOM      6  C   LIG    1       25.516 -16.910   3.308  0.00  0.00    +0.010 A 
ENDROOT
BRANCH   1   8
ATOM      7  C   LIG    1       26.661 -14.317   2.176  0.00  0.00    +0.032 C 
ATOM      8  C   LIG    1       26.722 -14.675   3.673  0.00  0.00    +0.077 C 
ATOM      9  C   LIG    1       28.056 -14.162   4.252  0.00  0.00    +0.032 C 
BRANCH   8  10
ATOM     10  C   LIG    1       25.637 -13.907   4.344  0.00  0.00    +0.073 C 
ATOM     11  N   LIG    1       24.797 -13.286   4.860  0.00  0.00    -0.196 NA
ENDBRANCH   8  10
ENDBRANCH   1   8
BRANCH   3  12
ATOM     12  C   LIG    1       28.548 -19.160   5.476  0.00  0.00    +0.077 C 
ATOM     13  C   LIG    1       29.402 -18.207   6.333  0.00  0.00    +0.032 C 
ATOM     14  C   LIG    1       29.475 -19.879   4.466  0.00  0.00    +0.032 C 
BRANCH  12  15
ATOM     15  C   LIG    1       27.994 -20.217   6.363  0.00  0.00    +0.073 C 
ATOM     16  N   LIG    1       27.573 -21.052   7.062  0.00  0.00    -0.196 NA
ENDBRANCH  12  15
ENDBRANCH   3  12
BRANCH   5  17
ATOM     17  C   LIG    1       24.096 -18.977   2.924  0.00  0.00    +0.180 C 
BRANCH  17  18
ATOM     18  N   LIG    1       23.373 -19.828   3.869  0.00  0.00    -0.248 N 
ATOM     19  N   LIG    1       23.737 -21.113   4.063  0.00  0.00    -0.158 NA
ATOM     20  C   LIG    1       22.853 -21.502   4.986  0.00  0.00    +0.244 A 
ATOM     21  N   LIG    1       21.944 -20.556   5.358  0.00  0.00    -0.223 NA
ATOM     22  C   LIG    1       22.278 -19.521   4.623  0.00  0.00    +0.219 A 
ENDBRANCH  17  18
ENDBRANCH   5  17
TORSDOF 6
ENDMDL
