MODEL 1
REMARK VINA RESULT:      -6.6      0.000      0.000
REMARK  Name = *****
REMARK                            x       y       z     vdW  Elec       q    Type
REMARK                         _______ _______ _______ _____ _____    ______ ____
ROOT
ATOM      1  C   LIG    1       24.181 -27.543  14.753  0.00  0.00    +0.073 C 
ATOM      2  C   LIG    1       23.910 -28.324  13.469  0.00  0.00    +0.166 C 
ATOM      3  O   LIG    1       24.907 -28.003  12.494  0.00  0.00    -0.332 OA
ATOM      4  C   LIG    1       25.834 -29.091  12.462  0.00  0.00    +0.164 C 
ATOM      5  C   LIG    1       25.066 -30.270  13.083  0.00  0.00    +0.162 C 
ATOM      6  C   LIG    1       24.576 -31.157  11.922  0.00  0.00    +0.039 C 
ATOM      7  C   LIG    1       24.801 -30.296  10.680  0.00  0.00    +0.007 C 
ATOM      8  C   LIG    1       24.799 -30.978   9.304  0.00  0.00    +0.037 C 
ATOM      9  C   LIG    1       25.013 -29.918   8.184  0.00  0.00    +0.153 C 
ATOM     10  C   LIG    1       26.229 -28.984   8.505  0.00  0.00    +0.154 C 
ATOM     11  C   LIG    1       26.245 -28.438   9.948  0.00  0.00    +0.044 C 
ATOM     12  F   LIG    1       23.905 -29.086   8.246  0.00  0.00    -0.238 F 
ATOM     13  C   LIG    1       25.005 -30.568   6.728  0.00  0.00    +0.047 C 
ATOM     14  C   LIG    1       23.833 -31.577   6.547  0.00  0.00    -0.020 C 
ATOM     15  C   LIG    1       23.727 -32.231   5.363  0.00  0.00    +0.054 C 
ATOM     16  C   LIG    1       25.011 -32.937   4.992  0.00  0.00    +0.179 C 
ATOM     17  C   LIG    1       26.276 -32.437   5.604  0.00  0.00    +0.047 C 
ATOM     18  O   LIG    1       25.020 -33.825   4.148  0.00  0.00    -0.288 OA
ATOM     19  C   LIG    1       23.487 -32.436   7.748  0.00  0.00    +0.194 C 
ATOM     20  F   LIG    1       24.401 -33.445   7.874  0.00  0.00    -0.241 F 
ATOM     21  C   LIG    1       24.862 -29.444   5.665  0.00  0.00    +0.023 C 
ATOM     22  C   LIG    1       26.283 -31.338   6.381  0.00  0.00    -0.009 C 
ATOM     23  C   LIG    1       23.464 -31.695   9.069  0.00  0.00    +0.048 C 
ATOM     24  C   LIG    1       26.117 -29.550  10.998  0.00  0.00    +0.012 C 
ATOM     25  C   LIG    1       27.368 -30.466  10.946  0.00  0.00    +0.015 C 
ATOM     26  O   LIG    1       23.944 -29.715  13.767  0.00  0.00    -0.343 OA
ATOM     27  C   LIG    1       22.541 -27.963  12.907  0.00  0.00    +0.073 C 
ENDROOT
BRANCH  10  28
ATOM     28  O   LIG    1       26.253 -27.837   7.653  0.00  0.00    -0.389 OA
ATOM     29  H   LIG    1       25.342 -27.707   7.325  0.00  0.00    +0.210 HD
ENDBRANCH  10  28
BRANCH   4  30
ATOM     30  C   LIG    1       27.096 -28.728  13.259  0.00  0.00    +0.193 C 
ATOM     31  O   LIG    1       27.756 -27.708  13.031  0.00  0.00    -0.292 OA
BRANCH  30  32
ATOM     32  C   LIG    1       27.509 -29.669  14.383  0.00  0.00    +0.233 C 
BRANCH  32  33
ATOM     33  O   LIG    1       28.639 -30.449  14.016  0.00  0.00    -0.387 OA
ATOM     34  H   LIG    1       29.424 -29.980  14.368  0.00  0.00    +0.210 HD
ENDBRANCH  32  33
ENDBRANCH  30  32
ENDBRANCH   4  30
TORSDOF 4
ENDMDL
MODEL 2
REMARK VINA RESULT:      -6.3      8.583     11.644
REMARK  Name = *****
REMARK                            x       y       z     vdW  Elec       q    Type
REMARK                         _______ _______ _______ _____ _____    ______ ____
ROOT
ATOM      1  C   LIG    1       23.897 -25.367   5.564  0.00  0.00    +0.073 C 
ATOM      2  C   LIG    1       25.184 -24.682   6.017  0.00  0.00    +0.166 C 
ATOM      3  O   LIG    1       25.160 -23.307   5.620  0.00  0.00    -0.332 OA
ATOM      4  C   LIG    1       24.837 -22.537   6.781  0.00  0.00    +0.164 C 
ATOM      5  C   LIG    1       25.170 -23.462   7.963  0.00  0.00    +0.162 C 
ATOM      6  C   LIG    1       26.537 -23.016   8.519  0.00  0.00    +0.039 C 
ATOM      7  C   LIG    1       27.081 -22.071   7.449  0.00  0.00    +0.007 C 
ATOM      8  C   LIG    1       28.235 -21.129   7.820  0.00  0.00    +0.037 C 
ATOM      9  C   LIG    1       28.650 -20.282   6.581  0.00  0.00    +0.153 C 
ATOM     10  C   LIG    1       27.405 -19.631   5.890  0.00  0.00    +0.154 C 
ATOM     11  C   LIG    1       26.225 -20.601   5.666  0.00  0.00    +0.044 C 
ATOM     12  F   LIG    1       29.130 -21.195   5.653  0.00  0.00    -0.238 F 
ATOM     13  C   LIG    1       29.858 -19.293   6.903  0.00  0.00    +0.047 C 
ATOM     14  C   LIG    1       30.993 -19.999   7.703  0.00  0.00    -0.020 C 
ATOM     15  C   LIG    1       32.069 -19.263   8.074  0.00  0.00    +0.054 C 
ATOM     16  C   LIG    1       31.667 -18.020   8.836  0.00  0.00    +0.179 C 
ATOM     17  C   LIG    1       30.283 -17.503   8.632  0.00  0.00    +0.047 C 
ATOM     18  O   LIG    1       32.480 -17.411   9.520  0.00  0.00    -0.288 OA
ATOM     19  C   LIG    1       30.557 -21.009   8.748  0.00  0.00    +0.194 C 
ATOM     20  F   LIG    1       30.111 -20.356   9.863  0.00  0.00    -0.241 F 
ATOM     21  C   LIG    1       30.450 -18.755   5.571  0.00  0.00    +0.023 C 
ATOM     22  C   LIG    1       29.459 -18.067   7.731  0.00  0.00    -0.009 C 
ATOM     23  C   LIG    1       29.444 -21.936   8.305  0.00  0.00    +0.048 C 
ATOM     24  C   LIG    1       25.817 -21.333   6.951  0.00  0.00    +0.012 C 
ATOM     25  C   LIG    1       25.256 -20.316   7.979  0.00  0.00    +0.015 C 
ATOM     26  O   LIG    1       25.277 -24.783   7.434  0.00  0.00    -0.343 OA
ATOM     27  C   LIG    1       26.396 -25.354   5.384  0.00  0.00    +0.073 C 
ENDROOT
BRANCH  10  28
ATOM     28  O   LIG    1       27.730 -19.109   4.600  0.00  0.00    -0.389 OA
ATOM     29  H   LIG    1       28.407 -19.699   4.217  0.00  0.00    +0.210 HD
ENDBRANCH  10  28
BRANCH   4  30
ATOM     30  C   LIG    1       23.355 -22.137   6.749  0.00  0.00    +0.193 C 
ATOM     31  O   LIG    1       22.544 -22.515   7.601  0.00  0.00    -0.292 OA
BRANCH  30  32
ATOM     32  C   LIG    1       22.904 -21.213   5.624  0.00  0.00    +0.233 C 
BRANCH  32  33
ATOM     33  O   LIG    1       23.288 -21.720   4.353  0.00  0.00    -0.387 OA
ATOM     34  H   LIG    1       22.604 -22.372   4.098  0.00  0.00    +0.210 HD
ENDBRANCH  32  33
ENDBRANCH  30  32
ENDBRANCH   4  30
TORSDOF 4
ENDMDL
MODEL 3
REMARK VINA RESULT:      -6.1      3.767      7.577
REMARK  Name = *****
REMARK                            x       y       z     vdW  Elec       q    Type
REMARK                         _______ _______ _______ _____ _____    ______ ____
ROOT
ATOM      1  C   LIG    1       19.896 -33.825  12.254  0.00  0.00    +0.073 C 
ATOM      2  C   LIG    1       20.458 -32.514  12.799  0.00  0.00    +0.166 C 
ATOM      3  O   LIG    1       21.877 -32.490  12.619  0.00  0.00    -0.332 OA
ATOM      4  C   LIG    1       22.147 -31.651  11.493  0.00  0.00    +0.164 C 
ATOM      5  C   LIG    1       20.881 -30.792  11.340  0.00  0.00    +0.162 C 
ATOM      6  C   LIG    1       21.189 -29.412  11.956  0.00  0.00    +0.039 C 
ATOM      7  C   LIG    1       22.495 -29.632  12.718  0.00  0.00    +0.007 C 
ATOM      8  C   LIG    1       23.316 -28.404  13.135  0.00  0.00    +0.037 C 
ATOM      9  C   LIG    1       24.584 -28.852  13.921  0.00  0.00    +0.153 C 
ATOM     10  C   LIG    1       25.352 -29.990  13.167  0.00  0.00    +0.154 C 
ATOM     11  C   LIG    1       24.449 -31.132  12.654  0.00  0.00    +0.044 C 
ATOM     12  F   LIG    1       24.108 -29.456  15.076  0.00  0.00    -0.238 F 
ATOM     13  C   LIG    1       25.470 -27.615  14.394  0.00  0.00    +0.047 C 
ATOM     14  C   LIG    1       24.603 -26.480  15.017  0.00  0.00    -0.020 C 
ATOM     15  C   LIG    1       25.228 -25.351  15.432  0.00  0.00    +0.054 C 
ATOM     16  C   LIG    1       26.076 -24.741  14.338  0.00  0.00    +0.179 C 
ATOM     17  C   LIG    1       26.533 -25.638  13.238  0.00  0.00    +0.047 C 
ATOM     18  O   LIG    1       26.451 -23.577  14.407  0.00  0.00    -0.288 OA
ATOM     19  C   LIG    1       23.254 -26.227  14.371  0.00  0.00    +0.194 C 
ATOM     20  F   LIG    1       23.423 -25.527  13.209  0.00  0.00    -0.241 F 
ATOM     21  C   LIG    1       26.497 -28.096  15.457  0.00  0.00    +0.023 C 
ATOM     22  C   LIG    1       26.279 -26.959  13.270  0.00  0.00    -0.009 C 
ATOM     23  C   LIG    1       22.475 -27.479  14.022  0.00  0.00    +0.048 C 
ATOM     24  C   LIG    1       23.272 -30.618  11.815  0.00  0.00    +0.012 C 
ATOM     25  C   LIG    1       23.803 -29.966  10.511  0.00  0.00    +0.015 C 
ATOM     26  O   LIG    1       19.855 -31.434  12.095  0.00  0.00    -0.343 OA
ATOM     27  C   LIG    1       20.150 -32.381  14.285  0.00  0.00    +0.073 C 
ENDROOT
BRANCH  10  28
ATOM     28  O   LIG    1       26.330 -30.611  14.004  0.00  0.00    -0.389 OA
ATOM     29  H   LIG    1       27.188 -30.529  13.546  0.00  0.00    +0.210 HD
ENDBRANCH  10  28
BRANCH   4  30
ATOM     30  C   LIG    1       22.426 -32.511  10.252  0.00  0.00    +0.193 C 
ATOM     31  O   LIG    1       21.923 -32.272   9.149  0.00  0.00    -0.292 OA
BRANCH  30  32
ATOM     32  C   LIG    1       23.385 -33.683  10.414  0.00  0.00    +0.233 C 
BRANCH  32  33
ATOM     33  O   LIG    1       24.638 -33.415   9.798  0.00  0.00    -0.387 OA
ATOM     34  H   LIG    1       25.192 -34.209   9.944  0.00  0.00    +0.210 HD
ENDBRANCH  32  33
ENDBRANCH  30  32
ENDBRANCH   4  30
TORSDOF 4
ENDMDL
MODEL 4
REMARK VINA RESULT:      -6.1      1.111      1.460
REMARK  Name = *****
REMARK                            x       y       z     vdW  Elec       q    Type
REMARK                         _______ _______ _______ _____ _____    ______ ____
ROOT
ATOM      1  C   LIG    1       24.147 -26.455  15.243  0.00  0.00    +0.073 C 
ATOM      2  C   LIG    1       23.877 -27.322  14.016  0.00  0.00    +0.166 C 
ATOM      3  O   LIG    1       24.978 -27.222  13.107  0.00  0.00    -0.332 OA
ATOM      4  C   LIG    1       25.759 -28.411  13.256  0.00  0.00    +0.164 C 
ATOM      5  C   LIG    1       24.803 -29.421  13.911  0.00  0.00    +0.162 C 
ATOM      6  C   LIG    1       24.295 -30.356  12.795  0.00  0.00    +0.039 C 
ATOM      7  C   LIG    1       24.721 -29.657  11.505  0.00  0.00    +0.007 C 
ATOM      8  C   LIG    1       24.737 -30.468  10.202  0.00  0.00    +0.037 C 
ATOM      9  C   LIG    1       25.168 -29.560   9.014  0.00  0.00    +0.153 C 
ATOM     10  C   LIG    1       26.465 -28.750   9.355  0.00  0.00    +0.154 C 
ATOM     11  C   LIG    1       26.440 -28.067  10.739  0.00  0.00    +0.044 C 
ATOM     12  F   LIG    1       24.174 -28.599   8.903  0.00  0.00    -0.238 F 
ATOM     13  C   LIG    1       25.189 -30.347   7.628  0.00  0.00    +0.047 C 
ATOM     14  C   LIG    1       23.915 -31.223   7.436  0.00  0.00    -0.020 C 
ATOM     15  C   LIG    1       23.818 -31.974   6.312  0.00  0.00    +0.054 C 
ATOM     16  C   LIG    1       25.027 -32.862   6.120  0.00  0.00    +0.179 C 
ATOM     17  C   LIG    1       26.295 -32.457   6.793  0.00  0.00    +0.047 C 
ATOM     18  O   LIG    1       24.987 -33.825   5.364  0.00  0.00    -0.288 OA
ATOM     19  C   LIG    1       23.372 -31.909   8.675  0.00  0.00    +0.194 C 
ATOM     20  F   LIG    1       24.139 -33.002   8.971  0.00  0.00    -0.241 F 
ATOM     21  C   LIG    1       25.271 -29.326   6.459  0.00  0.00    +0.023 C 
ATOM     22  C   LIG    1       26.381 -31.295   7.465  0.00  0.00    -0.009 C 
ATOM     23  C   LIG    1       23.344 -31.042   9.917  0.00  0.00    +0.048 C 
ATOM     24  C   LIG    1       26.093 -29.045  11.869  0.00  0.00    +0.012 C 
ATOM     25  C   LIG    1       27.218 -30.104  12.011  0.00  0.00    +0.015 C 
ATOM     26  O   LIG    1       23.712 -28.671  14.441  0.00  0.00    -0.343 OA
ATOM     27  C   LIG    1       22.612 -26.860  13.305  0.00  0.00    +0.073 C 
ENDROOT
BRANCH  10  28
ATOM     28  O   LIG    1       26.699 -27.705   8.409  0.00  0.00    -0.389 OA
ATOM     29  H   LIG    1       25.993 -27.042   8.536  0.00  0.00    +0.210 HD
ENDBRANCH  10  28
BRANCH   4  30
ATOM     30  C   LIG    1       26.993 -28.122  14.124  0.00  0.00    +0.193 C 
ATOM     31  O   LIG    1       27.628 -29.015  14.696  0.00  0.00    -0.292 OA
BRANCH  30  32
ATOM     32  C   LIG    1       27.442 -26.671  14.243  0.00  0.00    +0.233 C 
BRANCH  32  33
ATOM     33  O   LIG    1       27.540 -26.054  12.966  0.00  0.00    -0.387 OA
ATOM     34  H   LIG    1       27.023 -26.612  12.349  0.00  0.00    +0.210 HD
ENDBRANCH  32  33
ENDBRANCH  30  32
ENDBRANCH   4  30
TORSDOF 4
ENDMDL
MODEL 5
REMARK VINA RESULT:      -6.0      3.749      5.698
REMARK  Name = *****
REMARK                            x       y       z     vdW  Elec       q    Type
REMARK                         _______ _______ _______ _____ _____    ______ ____
ROOT
ATOM      1  C   LIG    1       27.149 -26.240  13.650  0.00  0.00    +0.073 C 
ATOM      2  C   LIG    1       25.766 -26.881  13.727  0.00  0.00    +0.166 C 
ATOM      3  O   LIG    1       25.604 -27.802  12.643  0.00  0.00    -0.332 OA
ATOM      4  C   LIG    1       25.782 -29.117  13.175  0.00  0.00    +0.164 C 
ATOM      5  C   LIG    1       25.551 -28.956  14.687  0.00  0.00    +0.162 C 
ATOM      6  C   LIG    1       24.120 -29.446  14.984  0.00  0.00    +0.039 C 
ATOM      7  C   LIG    1       23.477 -29.567  13.603  0.00  0.00    +0.007 C 
ATOM      8  C   LIG    1       22.191 -30.393  13.463  0.00  0.00    +0.037 C 
ATOM      9  C   LIG    1       21.693 -30.358  11.988  0.00  0.00    +0.153 C 
ATOM     10  C   LIG    1       22.852 -30.684  10.986  0.00  0.00    +0.154 C 
ATOM     11  C   LIG    1       24.164 -29.919  11.263  0.00  0.00    +0.044 C 
ATOM     12  F   LIG    1       21.375 -29.031  11.737  0.00  0.00    -0.238 F 
ATOM     13  C   LIG    1       20.349 -31.189  11.784  0.00  0.00    +0.047 C 
ATOM     14  C   LIG    1       19.304 -30.892  12.901  0.00  0.00    -0.020 C 
ATOM     15  C   LIG    1       18.124 -31.558  12.869  0.00  0.00    +0.054 C 
ATOM     16  C   LIG    1       18.324 -33.056  12.805  0.00  0.00    +0.179 C 
ATOM     17  C   LIG    1       19.625 -33.557  12.276  0.00  0.00    +0.047 C 
ATOM     18  O   LIG    1       17.414 -33.825  13.089  0.00  0.00    -0.288 OA
ATOM     19  C   LIG    1       19.850 -30.689  14.301  0.00  0.00    +0.194 C 
ATOM     20  F   LIG    1       20.168 -31.899  14.853  0.00  0.00    -0.241 F 
ATOM     21  C   LIG    1       19.724 -30.824  10.409  0.00  0.00    +0.023 C 
ATOM     22  C   LIG    1       20.547 -32.708  11.785  0.00  0.00    -0.009 C 
ATOM     23  C   LIG    1       21.096 -29.830  14.376  0.00  0.00    +0.048 C 
ATOM     24  C   LIG    1       24.637 -30.073  12.715  0.00  0.00    +0.012 C 
ATOM     25  C   LIG    1       25.018 -31.552  12.988  0.00  0.00    +0.015 C 
ATOM     26  O   LIG    1       25.648 -27.562  14.971  0.00  0.00    -0.343 OA
ATOM     27  C   LIG    1       24.680 -25.817  13.631  0.00  0.00    +0.073 C 
ENDROOT
BRANCH  10  28
ATOM     28  O   LIG    1       22.492 -30.365   9.640  0.00  0.00    -0.389 OA
ATOM     29  H   LIG    1       22.692 -31.152   9.098  0.00  0.00    +0.210 HD
ENDBRANCH  10  28
BRANCH   4  30
ATOM     30  C   LIG    1       27.193 -29.629  12.848  0.00  0.00    +0.193 C 
ATOM     31  O   LIG    1       27.857 -30.305  13.642  0.00  0.00    -0.292 OA
BRANCH  30  32
ATOM     32  C   LIG    1       27.756 -29.298  11.472  0.00  0.00    +0.233 C 
BRANCH  32  33
ATOM     33  O   LIG    1       29.178 -29.292  11.482  0.00  0.00    -0.387 OA
ATOM     34  H   LIG    1       29.460 -30.038  10.914  0.00  0.00    +0.210 HD
ENDBRANCH  32  33
ENDBRANCH  30  32
ENDBRANCH   4  30
TORSDOF 4
ENDMDL
MODEL 6
REMARK VINA RESULT:      -5.6      4.617      8.035
REMARK  Name = *****
REMARK                            x       y       z     vdW  Elec       q    Type
REMARK                         _______ _______ _______ _____ _____    ______ ____
ROOT
ATOM      1  C   LIG    1       17.253 -32.615  11.430  0.00  0.00    +0.073 C 
ATOM      2  C   LIG    1       18.620 -31.936  11.454  0.00  0.00    +0.166 C 
ATOM      3  O   LIG    1       18.665 -30.988  12.526  0.00  0.00    -0.332 OA
ATOM      4  C   LIG    1       19.410 -31.588  13.590  0.00  0.00    +0.164 C 
ATOM      5  C   LIG    1       20.219 -32.705  12.912  0.00  0.00    +0.162 C 
ATOM      6  C   LIG    1       21.654 -32.176  12.720  0.00  0.00    +0.039 C 
ATOM      7  C   LIG    1       21.535 -30.678  12.998  0.00  0.00    +0.007 C 
ATOM      8  C   LIG    1       22.816 -29.882  13.286  0.00  0.00    +0.037 C 
ATOM      9  C   LIG    1       22.471 -28.380  13.509  0.00  0.00    +0.153 C 
ATOM     10  C   LIG    1       21.292 -28.209  14.526  0.00  0.00    +0.154 C 
ATOM     11  C   LIG    1       20.087 -29.136  14.261  0.00  0.00    +0.044 C 
ATOM     12  F   LIG    1       21.958 -27.935  12.299  0.00  0.00    -0.238 F 
ATOM     13  C   LIG    1       23.767 -27.499  13.798  0.00  0.00    +0.047 C 
ATOM     14  C   LIG    1       24.929 -27.830  12.815  0.00  0.00    -0.020 C 
ATOM     15  C   LIG    1       26.106 -27.175  12.970  0.00  0.00    +0.054 C 
ATOM     16  C   LIG    1       26.639 -27.300  14.380  0.00  0.00    +0.179 C 
ATOM     17  C   LIG    1       25.662 -27.609  15.463  0.00  0.00    +0.047 C 
ATOM     18  O   LIG    1       27.814 -27.063  14.631  0.00  0.00    -0.288 OA
ATOM     19  C   LIG    1       25.090 -29.286  12.423  0.00  0.00    +0.194 C 
ATOM     20  F   LIG    1       25.690 -29.974  13.441  0.00  0.00    -0.241 F 
ATOM     21  C   LIG    1       23.407 -25.994  13.654  0.00  0.00    +0.023 C 
ATOM     22  C   LIG    1       24.343 -27.678  15.207  0.00  0.00    -0.009 C 
ATOM     23  C   LIG    1       23.793 -30.004  12.111  0.00  0.00    +0.048 C 
ATOM     24  C   LIG    1       20.495 -30.610  14.140  0.00  0.00    +0.012 C 
ATOM     25  C   LIG    1       21.045 -31.115  15.500  0.00  0.00    +0.015 C 
ATOM     26  O   LIG    1       19.619 -32.933  11.638  0.00  0.00    -0.343 OA
ATOM     27  C   LIG    1       18.874 -31.204  10.143  0.00  0.00    +0.073 C 
ENDROOT
BRANCH  10  28
ATOM     28  O   LIG    1       20.771 -26.879  14.512  0.00  0.00    -0.389 OA
ATOM     29  H   LIG    1       20.854 -26.551  13.596  0.00  0.00    +0.210 HD
ENDBRANCH  10  28
BRANCH   4  30
ATOM     30  C   LIG    1       18.452 -32.125  14.663  0.00  0.00    +0.193 C 
ATOM     31  O   LIG    1       18.495 -33.291  15.071  0.00  0.00    -0.292 OA
BRANCH  30  32
ATOM     32  C   LIG    1       17.438 -31.150  15.248  0.00  0.00    +0.233 C 
BRANCH  32  33
ATOM     33  O   LIG    1       16.436 -30.813  14.298  0.00  0.00    -0.387 OA
ATOM     34  H   LIG    1       16.904 -30.434  13.526  0.00  0.00    +0.210 HD
ENDBRANCH  32  33
ENDBRANCH  30  32
ENDBRANCH   4  30
TORSDOF 4
ENDMDL
MODEL 7
REMARK VINA RESULT:      -5.4      2.229      7.163
REMARK  Name = *****
REMARK                            x       y       z     vdW  Elec       q    Type
REMARK                         _______ _______ _______ _____ _____    ______ ____
ROOT
ATOM      1  C   LIG    1       27.856 -33.600   6.170  0.00  0.00    +0.073 C 
ATOM      2  C   LIG    1       27.218 -33.258   7.514  0.00  0.00    +0.166 C 
ATOM      3  O   LIG    1       27.144 -31.836   7.660  0.00  0.00    -0.332 OA
ATOM      4  C   LIG    1       25.792 -31.453   7.396  0.00  0.00    +0.164 C 
ATOM      5  C   LIG    1       24.981 -32.745   7.587  0.00  0.00    +0.162 C 
ATOM      6  C   LIG    1       24.325 -32.670   8.980  0.00  0.00    +0.039 C 
ATOM      7  C   LIG    1       25.034 -31.499   9.658  0.00  0.00    +0.007 C 
ATOM      8  C   LIG    1       24.388 -30.873  10.903  0.00  0.00    +0.037 C 
ATOM      9  C   LIG    1       25.287 -29.724  11.448  0.00  0.00    +0.153 C 
ATOM     10  C   LIG    1       25.714 -28.741  10.306  0.00  0.00    +0.154 C 
ATOM     11  C   LIG    1       26.228 -29.438   9.029  0.00  0.00    +0.044 C 
ATOM     12  F   LIG    1       26.468 -30.335  11.845  0.00  0.00    -0.238 F 
ATOM     13  C   LIG    1       24.673 -29.045  12.753  0.00  0.00    +0.047 C 
ATOM     14  C   LIG    1       24.161 -30.102  13.775  0.00  0.00    -0.020 C 
ATOM     15  C   LIG    1       23.582 -29.660  14.919  0.00  0.00    +0.054 C 
ATOM     16  C   LIG    1       22.451 -28.694  14.642  0.00  0.00    +0.179 C 
ATOM     17  C   LIG    1       22.460 -27.979  13.333  0.00  0.00    +0.047 C 
ATOM     18  O   LIG    1       21.615 -28.441  15.500  0.00  0.00    -0.288 OA
ATOM     19  C   LIG    1       23.498 -31.337  13.197  0.00  0.00    +0.194 C 
ATOM     20  F   LIG    1       22.226 -31.035  12.797  0.00  0.00    -0.241 F 
ATOM     21  C   LIG    1       25.763 -28.176  13.440  0.00  0.00    +0.023 C 
ATOM     22  C   LIG    1       23.486 -28.117  12.474  0.00  0.00    -0.009 C 
ATOM     23  C   LIG    1       24.207 -31.931  11.997  0.00  0.00    +0.048 C 
ATOM     24  C   LIG    1       25.249 -30.495   8.502  0.00  0.00    +0.012 C 
ATOM     25  C   LIG    1       23.939 -29.809   8.035  0.00  0.00    +0.015 C 
ATOM     26  O   LIG    1       25.913 -33.824   7.555  0.00  0.00    -0.343 OA
ATOM     27  C   LIG    1       28.049 -33.825   8.657  0.00  0.00    +0.073 C 
ENDROOT
BRANCH  10  28
ATOM     28  O   LIG    1       26.766 -27.869  10.725  0.00  0.00    -0.389 OA
ATOM     29  H   LIG    1       27.179 -28.279  11.510  0.00  0.00    +0.210 HD
ENDBRANCH  10  28
BRANCH   4  30
ATOM     30  C   LIG    1       25.675 -30.891   5.971  0.00  0.00    +0.193 C 
ATOM     31  O   LIG    1       26.189 -29.819   5.634  0.00  0.00    -0.292 OA
BRANCH  30  32
ATOM     32  C   LIG    1       24.911 -31.725   4.950  0.00  0.00    +0.233 C 
BRANCH  32  33
ATOM     33  O   LIG    1       25.677 -31.927   3.770  0.00  0.00    -0.387 OA
ATOM     34  H   LIG    1       26.104 -32.803   3.865  0.00  0.00    +0.210 HD
ENDBRANCH  32  33
ENDBRANCH  30  32
ENDBRANCH   4  30
TORSDOF 4
ENDMDL
MODEL 8
REMARK VINA RESULT:      -5.4      3.574      5.730
REMARK  Name = *****
REMARK                            x       y       z     vdW  Elec       q    Type
REMARK                         _______ _______ _______ _____ _____    ______ ____
ROOT
ATOM      1  C   LIG    1       28.256 -27.093  15.169  0.00  0.00    +0.073 C 
ATOM      2  C   LIG    1       27.382 -28.094  14.419  0.00  0.00    +0.166 C 
ATOM      3  O   LIG    1       26.044 -28.032  14.922  0.00  0.00    -0.332 OA
ATOM      4  C   LIG    1       25.271 -27.287  13.977  0.00  0.00    +0.164 C 
ATOM      5  C   LIG    1       26.086 -27.352  12.675  0.00  0.00    +0.162 C 
ATOM      6  C   LIG    1       25.431 -28.426  11.782  0.00  0.00    +0.039 C 
ATOM      7  C   LIG    1       24.472 -29.154  12.724  0.00  0.00    +0.007 C 
ATOM      8  C   LIG    1       23.366 -30.025  12.112  0.00  0.00    +0.037 C 
ATOM      9  C   LIG    1       22.529 -30.694  13.243  0.00  0.00    +0.153 C 
ATOM     10  C   LIG    1       22.088 -29.648  14.322  0.00  0.00    +0.154 C 
ATOM     11  C   LIG    1       23.218 -28.712  14.797  0.00  0.00    +0.044 C 
ATOM     12  F   LIG    1       23.411 -31.533  13.907  0.00  0.00    -0.238 F 
ATOM     13  C   LIG    1       21.371 -31.625  12.666  0.00  0.00    +0.047 C 
ATOM     14  C   LIG    1       21.877 -32.539  11.512  0.00  0.00    -0.020 C 
ATOM     15  C   LIG    1       20.985 -33.360  10.905  0.00  0.00    +0.054 C 
ATOM     16  C   LIG    1       19.774 -32.605  10.405  0.00  0.00    +0.179 C 
ATOM     17  C   LIG    1       19.460 -31.298  11.049  0.00  0.00    +0.047 C 
ATOM     18  O   LIG    1       19.027 -33.097   9.567  0.00  0.00    -0.288 OA
ATOM     19  C   LIG    1       22.887 -31.928  10.558  0.00  0.00    +0.194 C 
ATOM     20  F   LIG    1       22.249 -31.093   9.683  0.00  0.00    -0.241 F 
ATOM     21  C   LIG    1       20.820 -32.524  13.808  0.00  0.00    +0.023 C 
ATOM     22  C   LIG    1       20.173 -30.854  12.100  0.00  0.00    -0.009 C 
ATOM     23  C   LIG    1       23.977 -31.116  11.226  0.00  0.00    +0.048 C 
ATOM     24  C   LIG    1       23.938 -28.022  13.631  0.00  0.00    +0.012 C 
ATOM     25  C   LIG    1       22.959 -27.063  12.904  0.00  0.00    +0.015 C 
ATOM     26  O   LIG    1       27.402 -27.766  13.034  0.00  0.00    -0.343 OA
ATOM     27  C   LIG    1       27.911 -29.509  14.609  0.00  0.00    +0.073 C 
ENDROOT
BRANCH  10  28
ATOM     28  O   LIG    1       21.587 -30.284  15.500  0.00  0.00    -0.389 OA
ATOM     29  H   LIG    1       22.105 -29.938  16.252  0.00  0.00    +0.210 HD
ENDBRANCH  10  28
BRANCH   4  30
ATOM     30  C   LIG    1       25.078 -25.847  14.477  0.00  0.00    +0.193 C 
ATOM     31  O   LIG    1       24.439 -25.577  15.500  0.00  0.00    -0.292 OA
BRANCH  30  32
ATOM     32  C   LIG    1       25.736 -24.733  13.673  0.00  0.00    +0.233 C 
BRANCH  32  33
ATOM     33  O   LIG    1       25.591 -23.474  14.318  0.00  0.00    -0.387 OA
ATOM     34  H   LIG    1       26.138 -23.516  15.129  0.00  0.00    +0.210 HD
ENDBRANCH  32  33
ENDBRANCH  30  32
ENDBRANCH   4  30
TORSDOF 4
ENDMDL
MODEL 9
REMARK VINA RESULT:      -5.4      3.918      6.909
REMARK  Name = *****
REMARK                            x       y       z     vdW  Elec       q    Type
REMARK                         _______ _______ _______ _____ _____    ______ ____
ROOT
ATOM      1  C   LIG    1       27.396 -32.393   8.778  0.00  0.00    +0.073 C 
ATOM      2  C   LIG    1       25.893 -32.463   9.035  0.00  0.00    +0.166 C 
ATOM      3  O   LIG    1       25.636 -32.260  10.428  0.00  0.00    -0.332 OA
ATOM      4  C   LIG    1       25.176 -30.915  10.583  0.00  0.00    +0.164 C 
ATOM      5  C   LIG    1       24.696 -30.508   9.180  0.00  0.00    +0.162 C 
ATOM      6  C   LIG    1       23.159 -30.626   9.172  0.00  0.00    +0.039 C 
ATOM      7  C   LIG    1       22.841 -31.395  10.453  0.00  0.00    +0.007 C 
ATOM      8  C   LIG    1       21.402 -31.366  10.988  0.00  0.00    +0.037 C 
ATOM      9  C   LIG    1       21.295 -32.235  12.276  0.00  0.00    +0.153 C 
ATOM     10  C   LIG    1       22.432 -31.888  13.296  0.00  0.00    +0.154 C 
ATOM     11  C   LIG    1       23.840 -31.798  12.669  0.00  0.00    +0.044 C 
ATOM     12  F   LIG    1       21.571 -33.532  11.871  0.00  0.00    -0.238 F 
ATOM     13  C   LIG    1       19.816 -32.255  12.869  0.00  0.00    +0.047 C 
ATOM     14  C   LIG    1       18.746 -32.481  11.761  0.00  0.00    -0.020 C 
ATOM     15  C   LIG    1       17.439 -32.486  12.123  0.00  0.00    +0.054 C 
ATOM     16  C   LIG    1       17.060 -31.238  12.888  0.00  0.00    +0.179 C 
ATOM     17  C   LIG    1       18.154 -30.490  13.573  0.00  0.00    +0.047 C 
ATOM     18  O   LIG    1       15.887 -30.910  13.017  0.00  0.00    -0.288 OA
ATOM     19  C   LIG    1       19.003 -31.811  10.424  0.00  0.00    +0.194 C 
ATOM     20  F   LIG    1       18.705 -30.479  10.510  0.00  0.00    -0.241 F 
ATOM     21  C   LIG    1       19.698 -33.399  13.915  0.00  0.00    +0.023 C 
ATOM     22  C   LIG    1       19.413 -30.963  13.588  0.00  0.00    -0.009 C 
ATOM     23  C   LIG    1       20.433 -31.911   9.933  0.00  0.00    +0.048 C 
ATOM     24  C   LIG    1       23.885 -30.857  11.459  0.00  0.00    +0.012 C 
ATOM     25  C   LIG    1       23.602 -29.401  11.916  0.00  0.00    +0.015 C 
ATOM     26  O   LIG    1       25.253 -31.451   8.265  0.00  0.00    -0.343 OA
ATOM     27  C   LIG    1       25.346 -33.825   8.629  0.00  0.00    +0.073 C 
ENDROOT
BRANCH  10  28
ATOM     28  O   LIG    1       22.528 -32.866  14.333  0.00  0.00    -0.389 OA
ATOM     29  H   LIG    1       22.539 -33.740  13.899  0.00  0.00    +0.210 HD
ENDBRANCH  10  28
BRANCH   4  30
ATOM     30  C   LIG    1       26.318 -30.025  11.094  0.00  0.00    +0.193 C 
ATOM     31  O   LIG    1       26.998 -30.317  12.084  0.00  0.00    -0.292 OA
BRANCH  30  32
ATOM     32  C   LIG    1       26.619 -28.753  10.311  0.00  0.00    +0.233 C 
BRANCH  32  33
ATOM     33  O   LIG    1       27.389 -29.031   9.149  0.00  0.00    -0.387 OA
ATOM     34  H   LIG    1       28.314 -28.797   9.369  0.00  0.00    +0.210 HD
ENDBRANCH  32  33
ENDBRANCH  30  32
ENDBRANCH   4  30
TORSDOF 4
ENDMDL
