MODEL 1
REMARK VINA RESULT:      -5.9      0.000      0.000
REMARK  Name = *****
REMARK                            x       y       z     vdW  Elec       q    Type
REMARK                         _______ _______ _______ _____ _____    ______ ____
ROOT
ATOM      1  C   LIG    1       25.365 -14.764   3.621  0.00  0.00    -0.031 A 
ATOM      2  C   LIG    1       24.080 -14.988   4.127  0.00  0.00    +0.043 A 
ATOM      3  C   LIG    1       23.582 -16.289   4.278  0.00  0.00    +0.131 A 
ATOM      4  F   LIG    1       22.346 -16.407   4.789  0.00  0.00    -0.205 F 
ATOM      5  C   LIG    1       24.334 -17.426   3.939  0.00  0.00    +0.017 A 
ATOM      6  C   LIG    1       25.628 -17.180   3.439  0.00  0.00    +0.012 A 
ATOM      7  C   LIG    1       26.134 -15.880   3.274  0.00  0.00    +0.005 A 
ENDROOT
BRANCH   5   8
ATOM      8  C   LIG    1       23.813 -18.816   4.086  0.00  0.00    -0.015 A 
ATOM      9  C   LIG    1       24.522 -19.935   3.610  0.00  0.00    +0.008 A 
ATOM     10  C   LIG    1       24.034 -21.239   3.761  0.00  0.00    +0.001 A 
ATOM     11  C   LIG    1       22.818 -21.461   4.396  0.00  0.00    +0.000 A 
ATOM     12  C   LIG    1       22.092 -20.379   4.880  0.00  0.00    +0.001 A 
ATOM     13  C   LIG    1       22.584 -19.077   4.727  0.00  0.00    +0.008 A 
ENDBRANCH   5   8
BRANCH   1  15
ATOM     14  C   LIG    1       25.704 -12.798   2.073  0.00  0.00    +0.024 C 
ATOM     15  C   LIG    1       25.898 -13.343   3.492  0.00  0.00    +0.124 C 
BRANCH  15  16
ATOM     16  C   LIG    1       27.357 -13.170   3.920  0.00  0.00    +0.312 C 
ATOM     17  O   LIG    1       27.716 -13.047   5.081  0.00  0.00    -0.250 OA
BRANCH  16  18
ATOM     18  O   LIG    1       28.265 -13.235   2.916  0.00  0.00    -0.480 OA
ATOM     19  H   LIG    1       28.200 -14.032   2.356  0.00  0.00    +0.295 HD
ENDBRANCH  16  18
ENDBRANCH  15  16
ENDBRANCH   1  15
TORSDOF 4
ENDMDL
MODEL 2
REMARK VINA RESULT:      -5.8      1.110      1.581
REMARK  Name = *****
REMARK                            x       y       z     vdW  Elec       q    Type
REMARK                         _______ _______ _______ _____ _____    ______ ____
ROOT
ATOM      1  C   LIG    1       25.080 -14.670   3.729  0.00  0.00    -0.031 A 
ATOM      2  C   LIG    1       25.874 -15.751   3.329  0.00  0.00    +0.043 A 
ATOM      3  C   LIG    1       25.414 -17.068   3.454  0.00  0.00    +0.131 A 
ATOM      4  F   LIG    1       26.237 -18.039   3.027  0.00  0.00    -0.205 F 
ATOM      5  C   LIG    1       24.146 -17.375   3.976  0.00  0.00    +0.017 A 
ATOM      6  C   LIG    1       23.359 -16.273   4.365  0.00  0.00    +0.012 A 
ATOM      7  C   LIG    1       23.813 -14.949   4.253  0.00  0.00    +0.005 A 
ENDROOT
BRANCH   5   8
ATOM      8  C   LIG    1       23.647 -18.773   4.123  0.00  0.00    -0.015 A 
ATOM      9  C   LIG    1       24.405 -19.885   3.709  0.00  0.00    +0.008 A 
ATOM     10  C   LIG    1       23.937 -21.196   3.860  0.00  0.00    +0.001 A 
ATOM     11  C   LIG    1       22.694 -21.434   4.434  0.00  0.00    +0.000 A 
ATOM     12  C   LIG    1       21.921 -20.359   4.857  0.00  0.00    +0.001 A 
ATOM     13  C   LIG    1       22.392 -19.049   4.703  0.00  0.00    +0.008 A 
ENDBRANCH   5   8
BRANCH   1  15
ATOM     14  C   LIG    1       25.336 -12.727   2.136  0.00  0.00    +0.024 C 
ATOM     15  C   LIG    1       25.588 -13.245   3.557  0.00  0.00    +0.124 C 
BRANCH  15  16
ATOM     16  C   LIG    1       27.060 -13.046   3.928  0.00  0.00    +0.312 C 
ATOM     17  O   LIG    1       27.484 -13.085   5.073  0.00  0.00    -0.250 OA
BRANCH  16  18
ATOM     18  O   LIG    1       27.904 -12.892   2.881  0.00  0.00    -0.480 OA
ATOM     19  H   LIG    1       28.020 -13.687   2.326  0.00  0.00    +0.295 HD
ENDBRANCH  16  18
ENDBRANCH  15  16
ENDBRANCH   1  15
TORSDOF 4
ENDMDL
MODEL 3
REMARK VINA RESULT:      -5.8      1.983      2.436
REMARK  Name = *****
REMARK                            x       y       z     vdW  Elec       q    Type
REMARK                         _______ _______ _______ _____ _____    ______ ____
ROOT
ATOM      1  C   LIG    1       24.842 -14.608   3.705  0.00  0.00    -0.031 A 
ATOM      2  C   LIG    1       25.694 -15.647   3.312  0.00  0.00    +0.043 A 
ATOM      3  C   LIG    1       25.306 -16.986   3.445  0.00  0.00    +0.131 A 
ATOM      4  F   LIG    1       26.181 -17.913   3.024  0.00  0.00    -0.205 F 
ATOM      5  C   LIG    1       24.057 -17.359   3.969  0.00  0.00    +0.017 A 
ATOM      6  C   LIG    1       23.211 -16.298   4.352  0.00  0.00    +0.012 A 
ATOM      7  C   LIG    1       23.593 -14.952   4.232  0.00  0.00    +0.005 A 
ENDROOT
BRANCH   5   8
ATOM      8  C   LIG    1       23.635 -18.780   4.126  0.00  0.00    -0.015 A 
ATOM      9  C   LIG    1       24.406 -19.848   3.628  0.00  0.00    +0.008 A 
ATOM     10  C   LIG    1       24.011 -21.182   3.788  0.00  0.00    +0.001 A 
ATOM     11  C   LIG    1       22.831 -21.488   4.454  0.00  0.00    +0.000 A 
ATOM     12  C   LIG    1       22.047 -20.458   4.961  0.00  0.00    +0.001 A 
ATOM     13  C   LIG    1       22.445 -19.125   4.798  0.00  0.00    +0.008 A 
ENDBRANCH   5   8
BRANCH   1  15
ATOM     14  C   LIG    1       25.990 -12.627   4.771  0.00  0.00    +0.024 C 
ATOM     15  C   LIG    1       25.272 -13.158   3.524  0.00  0.00    +0.124 C 
BRANCH  15  16
ATOM     16  C   LIG    1       24.142 -12.204   3.130  0.00  0.00    +0.312 C 
ATOM     17  O   LIG    1       23.586 -11.449   3.913  0.00  0.00    -0.250 OA
BRANCH  16  18
ATOM     18  O   LIG    1       23.832 -12.189   1.812  0.00  0.00    -0.480 OA
ATOM     19  H   LIG    1       23.372 -12.987   1.490  0.00  0.00    +0.295 HD
ENDBRANCH  16  18
ENDBRANCH  15  16
ENDBRANCH   1  15
TORSDOF 4
ENDMDL
MODEL 4
REMARK VINA RESULT:      -5.4      3.191      6.389
REMARK  Name = *****
REMARK                            x       y       z     vdW  Elec       q    Type
REMARK                         _______ _______ _______ _____ _____    ______ ____
ROOT
ATOM      1  C   LIG    1       25.006 -18.571   3.708  0.00  0.00    -0.031 A 
ATOM      2  C   LIG    1       26.039 -17.706   3.328  0.00  0.00    +0.043 A 
ATOM      3  C   LIG    1       25.842 -16.320   3.297  0.00  0.00    +0.131 A 
ATOM      4  F   LIG    1       26.895 -15.568   2.939  0.00  0.00    -0.205 F 
ATOM      5  C   LIG    1       24.616 -15.726   3.644  0.00  0.00    +0.017 A 
ATOM      6  C   LIG    1       23.592 -16.614   4.030  0.00  0.00    +0.012 A 
ATOM      7  C   LIG    1       23.775 -18.005   4.056  0.00  0.00    +0.005 A 
ENDROOT
BRANCH   5   8
ATOM      8  C   LIG    1       24.391 -14.253   3.606  0.00  0.00    -0.015 A 
ATOM      9  C   LIG    1       24.459 -13.516   2.409  0.00  0.00    +0.008 A 
ATOM     10  C   LIG    1       24.235 -12.134   2.377  0.00  0.00    +0.001 A 
ATOM     11  C   LIG    1       23.932 -11.447   3.546  0.00  0.00    +0.000 A 
ATOM     12  C   LIG    1       23.854 -12.144   4.746  0.00  0.00    +0.001 A 
ATOM     13  C   LIG    1       24.080 -13.526   4.774  0.00  0.00    +0.008 A 
ENDBRANCH   5   8
BRANCH   1  15
ATOM     14  C   LIG    1       23.967 -20.861   3.473  0.00  0.00    +0.024 C 
ATOM     15  C   LIG    1       25.250 -20.074   3.762  0.00  0.00    +0.124 C 
BRANCH  15  16
ATOM     16  C   LIG    1       25.880 -20.568   5.067  0.00  0.00    +0.312 C 
ATOM     17  O   LIG    1       25.273 -21.201   5.918  0.00  0.00    -0.250 OA
BRANCH  16  18
ATOM     18  O   LIG    1       27.205 -20.324   5.198  0.00  0.00    -0.480 OA
ATOM     19  H   LIG    1       27.426 -19.451   5.576  0.00  0.00    +0.295 HD
ENDBRANCH  16  18
ENDBRANCH  15  16
ENDBRANCH   1  15
TORSDOF 4
ENDMDL
MODEL 5
REMARK VINA RESULT:      -4.9      1.482      2.160
REMARK  Name = *****
REMARK                            x       y       z     vdW  Elec       q    Type
REMARK                         _______ _______ _______ _____ _____    ______ ____
ROOT
ATOM      1  C   LIG    1       25.218 -14.775   3.655  0.00  0.00    -0.031 A 
ATOM      2  C   LIG    1       23.924 -15.050   4.113  0.00  0.00    +0.043 A 
ATOM      3  C   LIG    1       23.469 -16.369   4.235  0.00  0.00    +0.131 A 
ATOM      4  F   LIG    1       22.221 -16.537   4.700  0.00  0.00    -0.205 F 
ATOM      5  C   LIG    1       24.274 -17.476   3.916  0.00  0.00    +0.017 A 
ATOM      6  C   LIG    1       25.576 -17.178   3.464  0.00  0.00    +0.012 A 
ATOM      7  C   LIG    1       26.039 -15.860   3.328  0.00  0.00    +0.005 A 
ENDROOT
BRANCH   5   8
ATOM      8  C   LIG    1       23.799 -18.884   4.033  0.00  0.00    -0.015 A 
ATOM      9  C   LIG    1       22.713 -19.242   4.855  0.00  0.00    +0.008 A 
ATOM     10  C   LIG    1       22.263 -20.564   4.952  0.00  0.00    +0.001 A 
ATOM     11  C   LIG    1       22.888 -21.571   4.226  0.00  0.00    +0.000 A 
ATOM     12  C   LIG    1       23.961 -21.253   3.402  0.00  0.00    +0.001 A 
ATOM     13  C   LIG    1       24.408 -19.929   3.309  0.00  0.00    +0.008 A 
ENDBRANCH   5   8
BRANCH   1  15
ATOM     14  C   LIG    1       26.385 -12.883   4.853  0.00  0.00    +0.024 C 
ATOM     15  C   LIG    1       25.703 -13.335   3.556  0.00  0.00    +0.124 C 
BRANCH  15  16
ATOM     16  C   LIG    1       24.622 -12.326   3.161  0.00  0.00    +0.312 C 
ATOM     17  O   LIG    1       24.158 -12.234   2.034  0.00  0.00    -0.250 OA
BRANCH  16  18
ATOM     18  O   LIG    1       24.141 -11.567   4.174  0.00  0.00    -0.480 OA
ATOM     19  H   LIG    1       23.485 -12.012   4.744  0.00  0.00    +0.295 HD
ENDBRANCH  16  18
ENDBRANCH  15  16
ENDBRANCH   1  15
TORSDOF 4
ENDMDL
MODEL 6
REMARK VINA RESULT:      -4.6      3.120      6.428
REMARK  Name = *****
REMARK                            x       y       z     vdW  Elec       q    Type
REMARK                         _______ _______ _______ _____ _____    ______ ____
ROOT
ATOM      1  C   LIG    1       24.843 -18.613   3.893  0.00  0.00    -0.031 A 
ATOM      2  C   LIG    1       23.669 -17.964   4.292  0.00  0.00    +0.043 A 
ATOM      3  C   LIG    1       23.542 -16.574   4.183  0.00  0.00    +0.131 A 
ATOM      4  F   LIG    1       22.372 -16.041   4.572  0.00  0.00    -0.205 F 
ATOM      5  C   LIG    1       24.568 -15.762   3.669  0.00  0.00    +0.017 A 
ATOM      6  C   LIG    1       25.739 -16.435   3.266  0.00  0.00    +0.012 A 
ATOM      7  C   LIG    1       25.881 -17.827   3.380  0.00  0.00    +0.005 A 
ENDROOT
BRANCH   5   8
ATOM      8  C   LIG    1       24.449 -14.280   3.556  0.00  0.00    -0.015 A 
ATOM      9  C   LIG    1       23.988 -13.483   4.621  0.00  0.00    +0.008 A 
ATOM     10  C   LIG    1       23.890 -12.090   4.514  0.00  0.00    +0.001 A 
ATOM     11  C   LIG    1       24.252 -11.452   3.334  0.00  0.00    +0.000 A 
ATOM     12  C   LIG    1       24.715 -12.208   2.263  0.00  0.00    +0.001 A 
ATOM     13  C   LIG    1       24.811 -13.601   2.375  0.00  0.00    +0.008 A 
ENDBRANCH   5   8
BRANCH   1  15
ATOM     14  C   LIG    1       24.098 -20.823   2.925  0.00  0.00    +0.024 C 
ATOM     15  C   LIG    1       24.950 -20.129   3.994  0.00  0.00    +0.124 C 
BRANCH  15  16
ATOM     16  C   LIG    1       24.615 -20.699   5.375  0.00  0.00    +0.312 C 
ATOM     17  O   LIG    1       23.574 -21.282   5.635  0.00  0.00    -0.250 OA
BRANCH  16  18
ATOM     18  O   LIG    1       25.596 -20.584   6.301  0.00  0.00    -0.480 OA
ATOM     19  H   LIG    1       25.338 -20.841   7.206  0.00  0.00    +0.295 HD
ENDBRANCH  16  18
ENDBRANCH  15  16
ENDBRANCH   1  15
TORSDOF 4
ENDMDL
MODEL 7
REMARK VINA RESULT:      -4.5      3.816      5.031
REMARK  Name = *****
REMARK                            x       y       z     vdW  Elec       q    Type
REMARK                         _______ _______ _______ _____ _____    ______ ____
ROOT
ATOM      1  C   LIG    1       26.922 -20.102   5.463  0.00  0.00    -0.031 A 
ATOM      2  C   LIG    1       26.513 -19.301   4.390  0.00  0.00    +0.043 A 
ATOM      3  C   LIG    1       25.157 -19.166   4.069  0.00  0.00    +0.131 A 
ATOM      4  F   LIG    1       24.859 -18.362   3.035  0.00  0.00    -0.205 F 
ATOM      5  C   LIG    1       24.143 -19.813   4.795  0.00  0.00    +0.017 A 
ATOM      6  C   LIG    1       24.574 -20.608   5.876  0.00  0.00    +0.012 A 
ATOM      7  C   LIG    1       25.931 -20.758   6.202  0.00  0.00    +0.005 A 
ENDROOT
BRANCH   5   8
ATOM      8  C   LIG    1       22.696 -19.685   4.457  0.00  0.00    -0.015 A 
ATOM      9  C   LIG    1       22.128 -18.461   4.054  0.00  0.00    +0.008 A 
ATOM     10  C   LIG    1       20.771 -18.349   3.726  0.00  0.00    +0.001 A 
ATOM     11  C   LIG    1       19.941 -19.462   3.791  0.00  0.00    +0.000 A 
ATOM     12  C   LIG    1       20.470 -20.686   4.183  0.00  0.00    +0.001 A 
ATOM     13  C   LIG    1       21.827 -20.793   4.510  0.00  0.00    +0.008 A 
ENDBRANCH   5   8
BRANCH   1  15
ATOM     14  C   LIG    1       28.617 -21.077   7.062  0.00  0.00    +0.024 C 
ATOM     15  C   LIG    1       28.400 -20.213   5.814  0.00  0.00    +0.124 C 
BRANCH  15  16
ATOM     16  C   LIG    1       29.115 -18.870   5.983  0.00  0.00    +0.312 C 
ATOM     17  O   LIG    1       29.473 -18.421   7.061  0.00  0.00    -0.250 OA
BRANCH  16  18
ATOM     18  O   LIG    1       29.404 -18.221   4.830  0.00  0.00    -0.480 OA
ATOM     19  H   LIG    1       28.768 -18.369   4.105  0.00  0.00    +0.295 HD
ENDBRANCH  16  18
ENDBRANCH  15  16
ENDBRANCH   1  15
TORSDOF 4
ENDMDL
MODEL 8
REMARK VINA RESULT:      -4.4      3.227      6.557
REMARK  Name = *****
REMARK                            x       y       z     vdW  Elec       q    Type
REMARK                         _______ _______ _______ _____ _____    ______ ____
ROOT
ATOM      1  C   LIG    1       24.101 -18.132   3.678  0.00  0.00    -0.031 A 
ATOM      2  C   LIG    1       23.605 -16.872   4.034  0.00  0.00    +0.043 A 
ATOM      3  C   LIG    1       24.448 -15.756   4.090  0.00  0.00    +0.131 A 
ATOM      4  F   LIG    1       23.880 -14.586   4.423  0.00  0.00    -0.205 F 
ATOM      5  C   LIG    1       25.820 -15.833   3.793  0.00  0.00    +0.017 A 
ATOM      6  C   LIG    1       26.298 -17.108   3.429  0.00  0.00    +0.012 A 
ATOM      7  C   LIG    1       25.463 -18.236   3.379  0.00  0.00    +0.005 A 
ENDROOT
BRANCH   5   8
ATOM      8  C   LIG    1       26.730 -14.654   3.858  0.00  0.00    -0.015 A 
ATOM      9  C   LIG    1       27.339 -14.114   2.709  0.00  0.00    +0.008 A 
ATOM     10  C   LIG    1       28.184 -13.000   2.774  0.00  0.00    +0.001 A 
ATOM     11  C   LIG    1       28.445 -12.390   3.996  0.00  0.00    +0.000 A 
ATOM     12  C   LIG    1       27.859 -12.895   5.150  0.00  0.00    +0.001 A 
ATOM     13  C   LIG    1       27.015 -14.011   5.080  0.00  0.00    +0.008 A 
ENDBRANCH   5   8
BRANCH   1  15
ATOM     14  C   LIG    1       21.882 -19.093   4.408  0.00  0.00    +0.024 C 
ATOM     15  C   LIG    1       23.161 -19.327   3.594  0.00  0.00    +0.124 C 
BRANCH  15  16
ATOM     16  C   LIG    1       23.792 -20.662   3.995  0.00  0.00    +0.312 C 
ATOM     17  O   LIG    1       24.118 -20.945   5.138  0.00  0.00    -0.250 OA
BRANCH  16  18
ATOM     18  O   LIG    1       23.907 -21.570   2.997  0.00  0.00    -0.480 OA
ATOM     19  H   LIG    1       24.058 -22.488   3.292  0.00  0.00    +0.295 HD
ENDBRANCH  16  18
ENDBRANCH  15  16
ENDBRANCH   1  15
TORSDOF 4
ENDMDL
MODEL 9
REMARK VINA RESULT:      -4.3      3.094      6.373
REMARK  Name = *****
REMARK                            x       y       z     vdW  Elec       q    Type
REMARK                         _______ _______ _______ _____ _____    ______ ____
ROOT
ATOM      1  C   LIG    1       25.707 -18.366   3.776  0.00  0.00    -0.031 A 
ATOM      2  C   LIG    1       26.678 -17.385   3.547  0.00  0.00    +0.043 A 
ATOM      3  C   LIG    1       26.320 -16.040   3.388  0.00  0.00    +0.131 A 
ATOM      4  F   LIG    1       27.321 -15.167   3.192  0.00  0.00    -0.205 F 
ATOM      5  C   LIG    1       24.985 -15.605   3.451  0.00  0.00    +0.017 A 
ATOM      6  C   LIG    1       24.023 -16.607   3.689  0.00  0.00    +0.012 A 
ATOM      7  C   LIG    1       24.370 -17.959   3.841  0.00  0.00    +0.005 A 
ENDROOT
BRANCH   5   8
ATOM      8  C   LIG    1       24.589 -14.178   3.274  0.00  0.00    -0.015 A 
ATOM      9  C   LIG    1       24.126 -13.392   4.346  0.00  0.00    +0.008 A 
ATOM     10  C   LIG    1       23.766 -12.049   4.177  0.00  0.00    +0.001 A 
ATOM     11  C   LIG    1       23.861 -11.452   2.925  0.00  0.00    +0.000 A 
ATOM     12  C   LIG    1       24.317 -12.198   1.845  0.00  0.00    +0.001 A 
ATOM     13  C   LIG    1       24.675 -13.541   2.019  0.00  0.00    +0.008 A 
ENDBRANCH   5   8
BRANCH   1  15
ATOM     14  C   LIG    1       24.919 -20.763   3.876  0.00  0.00    +0.024 C 
ATOM     15  C   LIG    1       26.121 -19.818   3.975  0.00  0.00    +0.124 C 
BRANCH  15  16
ATOM     16  C   LIG    1       26.888 -20.088   5.272  0.00  0.00    +0.312 C 
ATOM     17  O   LIG    1       28.088 -19.902   5.404  0.00  0.00    -0.250 OA
BRANCH  16  18
ATOM     18  O   LIG    1       26.128 -20.487   6.320  0.00  0.00    -0.480 OA
ATOM     19  H   LIG    1       25.181 -20.611   6.117  0.00  0.00    +0.295 HD
ENDBRANCH  16  18
ENDBRANCH  15  16
ENDBRANCH   1  15
TORSDOF 4
ENDMDL
