MODEL 1
REMARK VINA RESULT:      -9.0      0.000      0.000
REMARK  Name = *****
REMARK                            x       y       z     vdW  Elec       q    Type
REMARK                         _______ _______ _______ _____ _____    ______ ____
ROOT
ATOM      1  C   LIG    1       28.127 -20.699   6.305  0.00  0.00    +0.086 C 
ENDROOT
BRANCH   1   2
ATOM      2  N   LIG    1       28.526 -19.365   6.812  0.00  0.00    -0.302 NA
ATOM      3  C   LIG    1       28.271 -19.198   8.251  0.00  0.00    +0.086 C 
ATOM      4  C   LIG    1       29.219 -19.998   9.147  0.00  0.00    +0.038 C 
ATOM      5  C   LIG    1       30.739 -19.802   8.824  0.00  0.00    +0.095 C 
ATOM      6  C   LIG    1       30.924 -19.879   7.283  0.00  0.00    +0.038 C 
ATOM      7  C   LIG    1       29.917 -18.997   6.536  0.00  0.00    +0.086 C 
BRANCH   5   8
ATOM      8  C   LIG    1       31.274 -18.476   9.431  0.00  0.00    -0.030 A 
ATOM      9  C   LIG    1       30.832 -18.041  10.694  0.00  0.00    +0.005 A 
ATOM     10  C   LIG    1       31.297 -16.841  11.249  0.00  0.00    +0.000 A 
ATOM     11  C   LIG    1       32.216 -16.051  10.563  0.00  0.00    +0.000 A 
ATOM     12  C   LIG    1       32.690 -16.472   9.330  0.00  0.00    +0.000 A 
ATOM     13  C   LIG    1       32.236 -17.673   8.784  0.00  0.00    +0.005 A 
ENDBRANCH   5   8
BRANCH   5  14
ATOM     14  C   LIG    1       31.482 -21.036   9.396  0.00  0.00    +0.315 C 
ATOM     15  O   LIG    1       32.653 -21.304   9.158  0.00  0.00    -0.250 OA
BRANCH  14  16
ATOM     16  O   LIG    1       30.772 -21.802  10.257  0.00  0.00    -0.480 OA
ATOM     17  H   LIG    1       30.642 -22.725   9.970  0.00  0.00    +0.295 HD
ENDBRANCH  14  16
ENDBRANCH   5  14
ENDBRANCH   1   2
BRANCH   1  18
ATOM     18  C   LIG    1       26.849 -20.596   5.450  0.00  0.00    +0.046 C 
BRANCH  18  19
ATOM     19  C   LIG    1       25.504 -21.078   6.082  0.00  0.00    +0.108 C 
BRANCH  19  20
ATOM     20  C   LIG    1       24.327 -20.352   5.371  0.00  0.00    -0.023 A 
ATOM     21  C   LIG    1       22.997 -20.424   5.836  0.00  0.00    +0.005 A 
ATOM     22  C   LIG    1       21.958 -19.769   5.169  0.00  0.00    +0.000 A 
ATOM     23  C   LIG    1       22.219 -19.025   4.025  0.00  0.00    +0.000 A 
ATOM     24  C   LIG    1       23.524 -18.931   3.549  0.00  0.00    +0.000 A 
ATOM     25  C   LIG    1       24.566 -19.585   4.212  0.00  0.00    +0.005 A 
ENDBRANCH  19  20
BRANCH  19  26
ATOM     26  C   LIG    1       25.389 -22.635   6.007  0.00  0.00    -0.023 A 
ATOM     27  C   LIG    1       25.913 -23.456   7.024  0.00  0.00    +0.005 A 
ATOM     28  C   LIG    1       25.880 -24.854   6.920  0.00  0.00    +0.000 A 
ATOM     29  C   LIG    1       25.340 -25.466   5.793  0.00  0.00    +0.000 A 
ATOM     30  C   LIG    1       24.821 -24.684   4.772  0.00  0.00    +0.000 A 
ATOM     31  C   LIG    1       24.847 -23.291   4.877  0.00  0.00    +0.005 A 
ENDBRANCH  19  26
BRANCH  19  33
ATOM     32  N   LIG    1       25.610 -20.526   8.699  0.00  0.00    -0.195 NA
ATOM     33  C   LIG    1       25.576 -20.747   7.567  0.00  0.00    +0.079 C 
ENDBRANCH  19  33
ENDBRANCH  18  19
ENDBRANCH   1  18
TORSDOF 9
ENDMDL
MODEL 2
REMARK VINA RESULT:      -9.0      3.291      8.293
REMARK  Name = *****
REMARK                            x       y       z     vdW  Elec       q    Type
REMARK                         _______ _______ _______ _____ _____    ______ ____
ROOT
ATOM      1  C   LIG    1       25.002 -23.348   5.663  0.00  0.00    +0.086 C 
ENDROOT
BRANCH   1   2
ATOM      2  N   LIG    1       24.678 -24.232   6.808  0.00  0.00    -0.302 NA
ATOM      3  C   LIG    1       23.709 -25.283   6.464  0.00  0.00    +0.086 C 
ATOM      4  C   LIG    1       24.279 -26.386   5.569  0.00  0.00    +0.038 C 
ATOM      5  C   LIG    1       25.621 -27.010   6.081  0.00  0.00    +0.095 C 
ATOM      6  C   LIG    1       26.557 -25.854   6.531  0.00  0.00    +0.038 C 
ATOM      7  C   LIG    1       25.840 -24.854   7.447  0.00  0.00    +0.086 C 
BRANCH   5   8
ATOM      8  C   LIG    1       25.361 -28.049   7.207  0.00  0.00    -0.030 A 
ATOM      9  C   LIG    1       24.295 -28.962   7.101  0.00  0.00    +0.005 A 
ATOM     10  C   LIG    1       24.042 -29.898   8.114  0.00  0.00    +0.000 A 
ATOM     11  C   LIG    1       24.847 -29.950   9.249  0.00  0.00    +0.000 A 
ATOM     12  C   LIG    1       25.921 -29.082   9.363  0.00  0.00    +0.000 A 
ATOM     13  C   LIG    1       26.181 -28.159   8.349  0.00  0.00    +0.005 A 
ENDBRANCH   5   8
BRANCH   5  14
ATOM     14  C   LIG    1       26.313 -27.654   4.853  0.00  0.00    +0.315 C 
ATOM     15  O   LIG    1       25.744 -28.377   4.044  0.00  0.00    -0.250 OA
BRANCH  14  16
ATOM     16  O   LIG    1       27.610 -27.316   4.667  0.00  0.00    -0.480 OA
ATOM     17  H   LIG    1       27.867 -26.457   5.052  0.00  0.00    +0.295 HD
ENDBRANCH  14  16
ENDBRANCH   5  14
ENDBRANCH   1   2
BRANCH   1  18
ATOM     18  C   LIG    1       26.233 -22.476   5.981  0.00  0.00    +0.046 C 
BRANCH  18  19
ATOM     19  C   LIG    1       25.988 -21.045   6.556  0.00  0.00    +0.108 C 
BRANCH  19  20
ATOM     20  C   LIG    1       27.329 -20.259   6.533  0.00  0.00    -0.023 A 
ATOM     21  C   LIG    1       27.791 -19.576   5.388  0.00  0.00    +0.005 A 
ATOM     22  C   LIG    1       29.007 -18.886   5.395  0.00  0.00    +0.000 A 
ATOM     23  C   LIG    1       29.788 -18.857   6.544  0.00  0.00    +0.000 A 
ATOM     24  C   LIG    1       29.352 -19.515   7.690  0.00  0.00    +0.000 A 
ATOM     25  C   LIG    1       28.137 -20.207   7.687  0.00  0.00    +0.005 A 
ENDBRANCH  19  20
BRANCH  19  26
ATOM     26  C   LIG    1       24.849 -20.322   5.765  0.00  0.00    -0.023 A 
ATOM     27  C   LIG    1       23.540 -20.242   6.279  0.00  0.00    +0.005 A 
ATOM     28  C   LIG    1       22.502 -19.664   5.537  0.00  0.00    +0.000 A 
ATOM     29  C   LIG    1       22.738 -19.166   4.259  0.00  0.00    +0.000 A 
ATOM     30  C   LIG    1       24.015 -19.236   3.723  0.00  0.00    +0.000 A 
ATOM     31  C   LIG    1       25.054 -19.807   4.464  0.00  0.00    +0.005 A 
ENDBRANCH  19  26
BRANCH  19  33
ATOM     32  N   LIG    1       25.072 -21.383   9.048  0.00  0.00    -0.195 NA
ATOM     33  C   LIG    1       25.448 -21.229   7.969  0.00  0.00    +0.079 C 
ENDBRANCH  19  33
ENDBRANCH  18  19
ENDBRANCH   1  18
TORSDOF 9
ENDMDL
MODEL 3
REMARK VINA RESULT:      -8.8      1.555      2.262
REMARK  Name = *****
REMARK                            x       y       z     vdW  Elec       q    Type
REMARK                         _______ _______ _______ _____ _____    ______ ____
ROOT
ATOM      1  C   LIG    1       28.113 -22.160   7.344  0.00  0.00    +0.086 C 
ENDROOT
BRANCH   1   2
ATOM      2  N   LIG    1       28.449 -21.355   8.542  0.00  0.00    -0.302 NA
ATOM      3  C   LIG    1       29.868 -21.445   8.914  0.00  0.00    +0.086 C 
ATOM      4  C   LIG    1       30.810 -20.708   7.959  0.00  0.00    +0.038 C 
ATOM      5  C   LIG    1       30.406 -19.225   7.663  0.00  0.00    +0.095 C 
ATOM      6  C   LIG    1       28.876 -19.182   7.386  0.00  0.00    +0.038 C 
ATOM      7  C   LIG    1       28.076 -19.941   8.452  0.00  0.00    +0.086 C 
BRANCH   5   8
ATOM      8  C   LIG    1       30.835 -18.285   8.823  0.00  0.00    -0.030 A 
ATOM      9  C   LIG    1       32.090 -17.650   8.796  0.00  0.00    +0.005 A 
ATOM     10  C   LIG    1       32.497 -16.807   9.841  0.00  0.00    +0.000 A 
ATOM     11  C   LIG    1       31.660 -16.574  10.930  0.00  0.00    +0.000 A 
ATOM     12  C   LIG    1       30.407 -17.164  10.965  0.00  0.00    +0.000 A 
ATOM     13  C   LIG    1       29.998 -17.992   9.920  0.00  0.00    +0.005 A 
ENDBRANCH   5   8
BRANCH   5  14
ATOM     14  C   LIG    1       31.083 -18.834   6.325  0.00  0.00    +0.315 C 
ATOM     15  O   LIG    1       32.238 -19.116   6.031  0.00  0.00    -0.250 OA
BRANCH  14  16
ATOM     16  O   LIG    1       30.291 -18.199   5.430  0.00  0.00    -0.480 OA
ATOM     17  H   LIG    1       30.391 -18.503   4.509  0.00  0.00    +0.295 HD
ENDBRANCH  14  16
ENDBRANCH   5  14
ENDBRANCH   1   2
BRANCH   1  18
ATOM     18  C   LIG    1       27.066 -21.434   6.477  0.00  0.00    +0.046 C 
BRANCH  18  19
ATOM     19  C   LIG    1       25.571 -21.860   6.625  0.00  0.00    +0.108 C 
BRANCH  19  20
ATOM     20  C   LIG    1       24.692 -20.920   5.754  0.00  0.00    -0.023 A 
ATOM     21  C   LIG    1       25.167 -20.314   4.572  0.00  0.00    +0.005 A 
ATOM     22  C   LIG    1       24.356 -19.464   3.814  0.00  0.00    +0.000 A 
ATOM     23  C   LIG    1       23.052 -19.200   4.215  0.00  0.00    +0.000 A 
ATOM     24  C   LIG    1       22.555 -19.792   5.373  0.00  0.00    +0.000 A 
ATOM     25  C   LIG    1       23.363 -20.642   6.134  0.00  0.00    +0.005 A 
ENDBRANCH  19  20
BRANCH  19  26
ATOM     26  C   LIG    1       25.390 -23.369   6.258  0.00  0.00    -0.023 A 
ATOM     27  C   LIG    1       25.799 -24.390   7.138  0.00  0.00    +0.005 A 
ATOM     28  C   LIG    1       25.709 -25.741   6.778  0.00  0.00    +0.000 A 
ATOM     29  C   LIG    1       25.227 -26.108   5.524  0.00  0.00    +0.000 A 
ATOM     30  C   LIG    1       24.823 -25.125   4.633  0.00  0.00    +0.000 A 
ATOM     31  C   LIG    1       24.905 -23.777   4.994  0.00  0.00    +0.005 A 
ENDBRANCH  19  26
BRANCH  19  33
ATOM     32  N   LIG    1       25.012 -21.696   9.238  0.00  0.00    -0.195 NA
ATOM     33  C   LIG    1       25.233 -21.760   8.108  0.00  0.00    +0.079 C 
ENDBRANCH  19  33
ENDBRANCH  18  19
ENDBRANCH   1  18
TORSDOF 9
ENDMDL
MODEL 4
REMARK VINA RESULT:      -7.8      3.853      8.461
REMARK  Name = *****
REMARK                            x       y       z     vdW  Elec       q    Type
REMARK                         _______ _______ _______ _____ _____    ______ ____
ROOT
ATOM      1  C   LIG    1       25.285 -23.737   5.348  0.00  0.00    +0.086 C 
ENDROOT
BRANCH   1   2
ATOM      2  N   LIG    1       24.850 -24.502   6.541  0.00  0.00    -0.302 NA
ATOM      3  C   LIG    1       23.860 -25.541   6.225  0.00  0.00    +0.086 C 
ATOM      4  C   LIG    1       24.436 -26.741   5.469  0.00  0.00    +0.038 C 
ATOM      5  C   LIG    1       25.713 -27.368   6.123  0.00  0.00    +0.095 C 
ATOM      6  C   LIG    1       26.669 -26.214   6.533  0.00  0.00    +0.038 C 
ATOM      7  C   LIG    1       25.940 -25.109   7.308  0.00  0.00    +0.086 C 
BRANCH   5   8
ATOM      8  C   LIG    1       25.336 -28.292   7.314  0.00  0.00    -0.030 A 
ATOM      9  C   LIG    1       26.135 -28.321   8.472  0.00  0.00    +0.005 A 
ATOM     10  C   LIG    1       25.814 -29.158   9.551  0.00  0.00    +0.000 A 
ATOM     11  C   LIG    1       24.688 -29.977   9.502  0.00  0.00    +0.000 A 
ATOM     12  C   LIG    1       23.869 -29.944   8.385  0.00  0.00    +0.000 A 
ATOM     13  C   LIG    1       24.182 -29.102   7.318  0.00  0.00    +0.005 A 
ENDBRANCH   5   8
BRANCH   5  14
ATOM     14  C   LIG    1       26.453 -28.145   5.005  0.00  0.00    +0.315 C 
ATOM     15  O   LIG    1       27.288 -27.648   4.259  0.00  0.00    -0.250 OA
BRANCH  14  16
ATOM     16  O   LIG    1       26.176 -29.468   4.927  0.00  0.00    -0.480 OA
ATOM     17  H   LIG    1       25.294 -29.720   5.259  0.00  0.00    +0.295 HD
ENDBRANCH  14  16
ENDBRANCH   5  14
ENDBRANCH   1   2
BRANCH   1  18
ATOM     18  C   LIG    1       24.321 -22.567   5.071  0.00  0.00    +0.046 C 
BRANCH  18  19
ATOM     19  C   LIG    1       24.449 -21.287   5.955  0.00  0.00    +0.108 C 
BRANCH  19  20
ATOM     20  C   LIG    1       25.944 -21.085   6.334  0.00  0.00    -0.023 A 
ATOM     21  C   LIG    1       26.848 -20.379   5.513  0.00  0.00    +0.005 A 
ATOM     22  C   LIG    1       28.189 -20.223   5.875  0.00  0.00    +0.000 A 
ATOM     23  C   LIG    1       28.659 -20.765   7.065  0.00  0.00    +0.000 A 
ATOM     24  C   LIG    1       27.787 -21.460   7.898  0.00  0.00    +0.000 A 
ATOM     25  C   LIG    1       26.445 -21.618   7.539  0.00  0.00    +0.005 A 
ENDBRANCH  19  20
BRANCH  19  26
ATOM     26  C   LIG    1       23.839 -20.048   5.221  0.00  0.00    -0.023 A 
ATOM     27  C   LIG    1       22.535 -19.598   5.507  0.00  0.00    +0.005 A 
ATOM     28  C   LIG    1       21.959 -18.537   4.796  0.00  0.00    +0.000 A 
ATOM     29  C   LIG    1       22.660 -17.911   3.770  0.00  0.00    +0.000 A 
ATOM     30  C   LIG    1       23.944 -18.335   3.461  0.00  0.00    +0.000 A 
ATOM     31  C   LIG    1       24.523 -19.388   4.174  0.00  0.00    +0.005 A 
ENDBRANCH  19  26
BRANCH  19  33
ATOM     32  N   LIG    1       22.887 -21.710   8.087  0.00  0.00    -0.195 NA
ATOM     33  C   LIG    1       23.567 -21.510   7.177  0.00  0.00    +0.079 C 
ENDBRANCH  19  33
ENDBRANCH  18  19
ENDBRANCH   1  18
TORSDOF 9
ENDMDL
MODEL 5
REMARK VINA RESULT:      -7.4      9.434     12.396
REMARK  Name = *****
REMARK                            x       y       z     vdW  Elec       q    Type
REMARK                         _______ _______ _______ _____ _____    ______ ____
ROOT
ATOM      1  C   LIG    1       23.148 -30.830  12.094  0.00  0.00    +0.086 C 
ENDROOT
BRANCH   1   2
ATOM      2  N   LIG    1       23.130 -31.350  10.706  0.00  0.00    -0.302 NA
ATOM      3  C   LIG    1       23.250 -30.290   9.695  0.00  0.00    +0.086 C 
ATOM      4  C   LIG    1       24.644 -29.664   9.611  0.00  0.00    +0.038 C 
ATOM      5  C   LIG    1       25.813 -30.696   9.475  0.00  0.00    +0.095 C 
ATOM      6  C   LIG    1       25.570 -31.845  10.493  0.00  0.00    +0.038 C 
ATOM      7  C   LIG    1       24.134 -32.381  10.427  0.00  0.00    +0.086 C 
BRANCH   5   8
ATOM      8  C   LIG    1       25.946 -31.203   8.013  0.00  0.00    -0.030 A 
ATOM      9  C   LIG    1       25.255 -30.558   6.970  0.00  0.00    +0.005 A 
ATOM     10  C   LIG    1       25.356 -31.012   5.647  0.00  0.00    +0.000 A 
ATOM     11  C   LIG    1       26.151 -32.111   5.333  0.00  0.00    +0.000 A 
ATOM     12  C   LIG    1       26.864 -32.745   6.338  0.00  0.00    +0.000 A 
ATOM     13  C   LIG    1       26.774 -32.287   7.652  0.00  0.00    +0.005 A 
ENDBRANCH   5   8
BRANCH   5  14
ATOM     14  C   LIG    1       27.101 -29.980   9.955  0.00  0.00    +0.315 C 
ATOM     15  O   LIG    1       27.856 -30.425  10.811  0.00  0.00    -0.250 OA
BRANCH  14  16
ATOM     16  O   LIG    1       27.404 -28.827   9.315  0.00  0.00    -0.480 OA
ATOM     17  H   LIG    1       28.230 -28.401   9.612  0.00  0.00    +0.295 HD
ENDBRANCH  14  16
ENDBRANCH   5  14
ENDBRANCH   1   2
BRANCH   1  18
ATOM     18  C   LIG    1       22.691 -29.359  12.128  0.00  0.00    +0.046 C 
BRANCH  18  19
ATOM     19  C   LIG    1       22.937 -28.545  13.438  0.00  0.00    +0.108 C 
BRANCH  19  20
ATOM     20  C   LIG    1       24.187 -27.642  13.241  0.00  0.00    -0.023 A 
ATOM     21  C   LIG    1       25.372 -28.105  12.631  0.00  0.00    +0.005 A 
ATOM     22  C   LIG    1       26.483 -27.271  12.477  0.00  0.00    +0.000 A 
ATOM     23  C   LIG    1       26.439 -25.956  12.924  0.00  0.00    +0.000 A 
ATOM     24  C   LIG    1       25.279 -25.471  13.522  0.00  0.00    +0.000 A 
ATOM     25  C   LIG    1       24.166 -26.302  13.679  0.00  0.00    +0.005 A 
ENDBRANCH  19  20
BRANCH  19  26
ATOM     26  C   LIG    1       21.660 -27.734  13.830  0.00  0.00    -0.023 A 
ATOM     27  C   LIG    1       21.189 -27.707  15.158  0.00  0.00    +0.005 A 
ATOM     28  C   LIG    1       20.002 -27.045  15.496  0.00  0.00    +0.000 A 
ATOM     29  C   LIG    1       19.244 -26.408  14.517  0.00  0.00    +0.000 A 
ATOM     30  C   LIG    1       19.678 -26.422  13.200  0.00  0.00    +0.000 A 
ATOM     31  C   LIG    1       20.867 -27.076  12.862  0.00  0.00    +0.005 A 
ENDBRANCH  19  26
BRANCH  19  33
ATOM     32  N   LIG    1       23.286 -30.308  15.422  0.00  0.00    -0.195 NA
ATOM     33  C   LIG    1       23.130 -29.565  14.555  0.00  0.00    +0.079 C 
ENDBRANCH  19  33
ENDBRANCH  18  19
ENDBRANCH   1  18
TORSDOF 9
ENDMDL
MODEL 6
REMARK VINA RESULT:      -7.3      4.746      8.501
REMARK  Name = *****
REMARK                            x       y       z     vdW  Elec       q    Type
REMARK                         _______ _______ _______ _____ _____    ______ ____
ROOT
ATOM      1  C   LIG    1       24.263 -26.041   6.878  0.00  0.00    +0.086 C 
ENDROOT
BRANCH   1   2
ATOM      2  N   LIG    1       23.745 -25.072   5.883  0.00  0.00    -0.302 NA
ATOM      3  C   LIG    1       22.828 -24.083   6.469  0.00  0.00    +0.086 C 
ATOM      4  C   LIG    1       23.517 -23.045   7.357  0.00  0.00    +0.038 C 
ATOM      5  C   LIG    1       24.748 -22.339   6.695  0.00  0.00    +0.095 C 
ATOM      6  C   LIG    1       25.618 -23.424   6.000  0.00  0.00    +0.038 C 
ATOM      7  C   LIG    1       24.779 -24.363   5.125  0.00  0.00    +0.086 C 
BRANCH   5   8
ATOM      8  C   LIG    1       24.294 -21.216   5.723  0.00  0.00    -0.030 A 
ATOM      9  C   LIG    1       23.051 -20.582   5.899  0.00  0.00    +0.005 A 
ATOM     10  C   LIG    1       22.622 -19.574   5.023  0.00  0.00    +0.000 A 
ATOM     11  C   LIG    1       23.424 -19.172   3.958  0.00  0.00    +0.000 A 
ATOM     12  C   LIG    1       24.666 -19.761   3.780  0.00  0.00    +0.000 A 
ATOM     13  C   LIG    1       25.098 -20.754   4.659  0.00  0.00    +0.005 A 
ENDBRANCH   5   8
BRANCH   5  14
ATOM     14  C   LIG    1       25.620 -21.782   7.849  0.00  0.00    +0.315 C 
ATOM     15  O   LIG    1       25.182 -21.126   8.787  0.00  0.00    -0.250 OA
BRANCH  14  16
ATOM     16  O   LIG    1       26.929 -22.122   7.812  0.00  0.00    -0.480 OA
ATOM     17  H   LIG    1       27.455 -21.802   8.569  0.00  0.00    +0.295 HD
ENDBRANCH  14  16
ENDBRANCH   5  14
ENDBRANCH   1   2
BRANCH   1  18
ATOM     18  C   LIG    1       24.111 -27.485   6.361  0.00  0.00    +0.046 C 
BRANCH  18  19
ATOM     19  C   LIG    1       25.313 -28.463   6.555  0.00  0.00    +0.108 C 
BRANCH  19  20
ATOM     20  C   LIG    1       25.607 -28.602   8.075  0.00  0.00    -0.023 A 
ATOM     21  C   LIG    1       26.627 -27.874   8.722  0.00  0.00    +0.005 A 
ATOM     22  C   LIG    1       26.875 -28.028  10.089  0.00  0.00    +0.000 A 
ATOM     23  C   LIG    1       26.110 -28.909  10.844  0.00  0.00    +0.000 A 
ATOM     24  C   LIG    1       25.091 -29.634  10.232  0.00  0.00    +0.000 A 
ATOM     25  C   LIG    1       24.841 -29.483   8.865  0.00  0.00    +0.005 A 
ENDBRANCH  19  20
BRANCH  19  26
ATOM     26  C   LIG    1       25.020 -29.836   5.867  0.00  0.00    -0.023 A 
ATOM     27  C   LIG    1       23.853 -30.568   6.163  0.00  0.00    +0.005 A 
ATOM     28  C   LIG    1       23.628 -31.834   5.607  0.00  0.00    +0.000 A 
ATOM     29  C   LIG    1       24.567 -32.410   4.756  0.00  0.00    +0.000 A 
ATOM     30  C   LIG    1       25.728 -31.717   4.451  0.00  0.00    +0.000 A 
ATOM     31  C   LIG    1       25.952 -30.451   4.998  0.00  0.00    +0.005 A 
ENDBRANCH  19  26
BRANCH  19  33
ATOM     32  N   LIG    1       27.362 -27.383   5.213  0.00  0.00    -0.195 NA
ATOM     33  C   LIG    1       26.488 -27.867   5.789  0.00  0.00    +0.079 C 
ENDBRANCH  19  33
ENDBRANCH  18  19
ENDBRANCH   1  18
TORSDOF 9
ENDMDL
MODEL 7
REMARK VINA RESULT:      -7.2      9.835     12.915
REMARK  Name = *****
REMARK                            x       y       z     vdW  Elec       q    Type
REMARK                         _______ _______ _______ _____ _____    ______ ____
ROOT
ATOM      1  C   LIG    1       23.678 -30.716  10.214  0.00  0.00    +0.086 C 
ENDROOT
BRANCH   1   2
ATOM      2  N   LIG    1       24.550 -31.750   9.609  0.00  0.00    -0.302 NA
ATOM      3  C   LIG    1       23.905 -32.467   8.500  0.00  0.00    +0.086 C 
ATOM      4  C   LIG    1       23.745 -31.631   7.228  0.00  0.00    +0.038 C 
ATOM      5  C   LIG    1       25.056 -30.925   6.746  0.00  0.00    +0.095 C 
ATOM      6  C   LIG    1       25.747 -30.282   7.981  0.00  0.00    +0.038 C 
ATOM      7  C   LIG    1       25.855 -31.261   9.156  0.00  0.00    +0.086 C 
BRANCH   5   8
ATOM      8  C   LIG    1       25.980 -31.916   5.986  0.00  0.00    -0.030 A 
ATOM      9  C   LIG    1       25.713 -32.255   4.647  0.00  0.00    +0.005 A 
ATOM     10  C   LIG    1       26.531 -33.157   3.952  0.00  0.00    +0.000 A 
ATOM     11  C   LIG    1       27.636 -33.735   4.572  0.00  0.00    +0.000 A 
ATOM     12  C   LIG    1       27.937 -33.396   5.881  0.00  0.00    +0.000 A 
ATOM     13  C   LIG    1       27.131 -32.488   6.569  0.00  0.00    +0.005 A 
ENDBRANCH   5   8
BRANCH   5  14
ATOM     14  C   LIG    1       24.622 -29.740   5.847  0.00  0.00    +0.315 C 
ATOM     15  O   LIG    1       25.392 -28.897   5.400  0.00  0.00    -0.250 OA
BRANCH  14  16
ATOM     16  O   LIG    1       23.313 -29.710   5.507  0.00  0.00    -0.480 OA
ATOM     17  H   LIG    1       22.717 -30.153   6.139  0.00  0.00    +0.295 HD
ENDBRANCH  14  16
ENDBRANCH   5  14
ENDBRANCH   1   2
BRANCH   1  18
ATOM     18  C   LIG    1       23.457 -31.000  11.712  0.00  0.00    +0.046 C 
BRANCH  18  19
ATOM     19  C   LIG    1       23.985 -29.952  12.743  0.00  0.00    +0.108 C 
BRANCH  19  20
ATOM     20  C   LIG    1       25.426 -29.532  12.339  0.00  0.00    -0.023 A 
ATOM     21  C   LIG    1       25.686 -28.513  11.399  0.00  0.00    +0.005 A 
ATOM     22  C   LIG    1       26.994 -28.165  11.048  0.00  0.00    +0.000 A 
ATOM     23  C   LIG    1       28.072 -28.821  11.627  0.00  0.00    +0.000 A 
ATOM     24  C   LIG    1       27.844 -29.826  12.564  0.00  0.00    +0.000 A 
ATOM     25  C   LIG    1       26.538 -30.178  12.917  0.00  0.00    +0.005 A 
ENDBRANCH  19  20
BRANCH  19  26
ATOM     26  C   LIG    1       23.006 -28.737  12.841  0.00  0.00    -0.023 A 
ATOM     27  C   LIG    1       23.447 -27.478  13.295  0.00  0.00    +0.005 A 
ATOM     28  C   LIG    1       22.555 -26.410  13.458  0.00  0.00    +0.000 A 
ATOM     29  C   LIG    1       21.199 -26.574  13.190  0.00  0.00    +0.000 A 
ATOM     30  C   LIG    1       20.733 -27.803  12.748  0.00  0.00    +0.000 A 
ATOM     31  C   LIG    1       21.623 -28.868  12.578  0.00  0.00    +0.005 A 
ENDBRANCH  19  26
BRANCH  19  33
ATOM     32  N   LIG    1       23.884 -31.102  15.158  0.00  0.00    -0.195 NA
ATOM     33  C   LIG    1       23.938 -30.623  14.110  0.00  0.00    +0.079 C 
ENDBRANCH  19  33
ENDBRANCH  18  19
ENDBRANCH   1  18
TORSDOF 9
ENDMDL
MODEL 8
REMARK VINA RESULT:      -7.2      3.570      9.030
REMARK  Name = *****
REMARK                            x       y       z     vdW  Elec       q    Type
REMARK                         _______ _______ _______ _____ _____    ______ ____
ROOT
ATOM      1  C   LIG    1       25.449 -24.436   5.827  0.00  0.00    +0.086 C 
ENDROOT
BRANCH   1   2
ATOM      2  N   LIG    1       25.030 -25.656   5.096  0.00  0.00    -0.302 NA
ATOM      3  C   LIG    1       26.154 -26.550   4.781  0.00  0.00    +0.086 C 
ATOM      4  C   LIG    1       26.727 -27.282   5.996  0.00  0.00    +0.038 C 
ATOM      5  C   LIG    1       25.660 -28.019   6.874  0.00  0.00    +0.095 C 
ATOM      6  C   LIG    1       24.452 -27.062   7.078  0.00  0.00    +0.038 C 
ATOM      7  C   LIG    1       23.982 -26.436   5.759  0.00  0.00    +0.086 C 
BRANCH   5   8
ATOM      8  C   LIG    1       25.253 -29.377   6.239  0.00  0.00    -0.030 A 
ATOM      9  C   LIG    1       24.077 -30.030   6.649  0.00  0.00    +0.005 A 
ATOM     10  C   LIG    1       23.703 -31.262   6.093  0.00  0.00    +0.000 A 
ATOM     11  C   LIG    1       24.487 -31.866   5.113  0.00  0.00    +0.000 A 
ATOM     12  C   LIG    1       25.635 -31.228   4.671  0.00  0.00    +0.000 A 
ATOM     13  C   LIG    1       26.001 -29.996   5.215  0.00  0.00    +0.005 A 
ENDBRANCH   5   8
BRANCH   5  14
ATOM     14  C   LIG    1       26.286 -28.205   8.279  0.00  0.00    +0.315 C 
ATOM     15  O   LIG    1       26.472 -27.293   9.076  0.00  0.00    -0.250 OA
BRANCH  14  16
ATOM     16  O   LIG    1       26.571 -29.481   8.629  0.00  0.00    -0.480 OA
ATOM     17  H   LIG    1       27.466 -29.782   8.383  0.00  0.00    +0.295 HD
ENDBRANCH  14  16
ENDBRANCH   5  14
ENDBRANCH   1   2
BRANCH   1  18
ATOM     18  C   LIG    1       24.896 -23.173   5.138  0.00  0.00    +0.046 C 
BRANCH  18  19
ATOM     19  C   LIG    1       24.754 -21.875   5.994  0.00  0.00    +0.108 C 
BRANCH  19  20
ATOM     20  C   LIG    1       26.163 -21.444   6.491  0.00  0.00    -0.023 A 
ATOM     21  C   LIG    1       26.770 -22.004   7.634  0.00  0.00    +0.005 A 
ATOM     22  C   LIG    1       28.034 -21.589   8.063  0.00  0.00    +0.000 A 
ATOM     23  C   LIG    1       28.724 -20.609   7.360  0.00  0.00    +0.000 A 
ATOM     24  C   LIG    1       28.152 -20.046   6.222  0.00  0.00    +0.000 A 
ATOM     25  C   LIG    1       26.887 -20.458   5.791  0.00  0.00    +0.005 A 
ENDBRANCH  19  20
BRANCH  19  26
ATOM     26  C   LIG    1       24.032 -20.754   5.176  0.00  0.00    -0.023 A 
ATOM     27  C   LIG    1       24.545 -20.303   3.945  0.00  0.00    +0.005 A 
ATOM     28  C   LIG    1       23.943 -19.246   3.249  0.00  0.00    +0.000 A 
ATOM     29  C   LIG    1       22.826 -18.600   3.773  0.00  0.00    +0.000 A 
ATOM     30  C   LIG    1       22.302 -19.018   4.987  0.00  0.00    +0.000 A 
ATOM     31  C   LIG    1       22.897 -20.077   5.678  0.00  0.00    +0.005 A 
ENDBRANCH  19  26
BRANCH  19  33
ATOM     32  N   LIG    1       23.082 -22.431   8.009  0.00  0.00    -0.195 NA
ATOM     33  C   LIG    1       23.812 -22.210   7.143  0.00  0.00    +0.079 C 
ENDBRANCH  19  33
ENDBRANCH  18  19
ENDBRANCH   1  18
TORSDOF 9
ENDMDL
MODEL 9
REMARK VINA RESULT:      -7.1     10.420     13.038
REMARK  Name = *****
REMARK                            x       y       z     vdW  Elec       q    Type
REMARK                         _______ _______ _______ _____ _____    ______ ____
ROOT
ATOM      1  C   LIG    1       23.758 -30.097  10.238  0.00  0.00    +0.086 C 
ENDROOT
BRANCH   1   2
ATOM      2  N   LIG    1       24.609 -31.191   9.712  0.00  0.00    -0.302 NA
ATOM      3  C   LIG    1       23.932 -32.001   8.689  0.00  0.00    +0.086 C 
ATOM      4  C   LIG    1       23.748 -31.285   7.349  0.00  0.00    +0.038 C 
ATOM      5  C   LIG    1       25.052 -30.638   6.773  0.00  0.00    +0.095 C 
ATOM      6  C   LIG    1       25.776 -29.890   7.928  0.00  0.00    +0.038 C 
ATOM      7  C   LIG    1       25.906 -30.757   9.186  0.00  0.00    +0.086 C 
BRANCH   5   8
ATOM      8  C   LIG    1       25.951 -31.703   6.088  0.00  0.00    -0.030 A 
ATOM      9  C   LIG    1       25.720 -32.077   4.751  0.00  0.00    +0.005 A 
ATOM     10  C   LIG    1       26.516 -33.045   4.123  0.00  0.00    +0.000 A 
ATOM     11  C   LIG    1       27.562 -33.657   4.808  0.00  0.00    +0.000 A 
ATOM     12  C   LIG    1       27.828 -33.286   6.116  0.00  0.00    +0.000 A 
ATOM     13  C   LIG    1       27.045 -32.313   6.738  0.00  0.00    +0.005 A 
ENDBRANCH   5   8
BRANCH   5  14
ATOM     14  C   LIG    1       24.605 -29.537   5.779  0.00  0.00    +0.315 C 
ATOM     15  O   LIG    1       25.366 -28.732   5.257  0.00  0.00    -0.250 OA
BRANCH  14  16
ATOM     16  O   LIG    1       23.293 -29.545   5.446  0.00  0.00    -0.480 OA
ATOM     17  H   LIG    1       22.938 -30.421   5.207  0.00  0.00    +0.295 HD
ENDBRANCH  14  16
ENDBRANCH   5  14
ENDBRANCH   1   2
BRANCH   1  18
ATOM     18  C   LIG    1       22.305 -30.577  10.417  0.00  0.00    +0.046 C 
BRANCH  18  19
ATOM     19  C   LIG    1       21.681 -30.508  11.847  0.00  0.00    +0.108 C 
BRANCH  19  20
ATOM     20  C   LIG    1       21.874 -29.071  12.410  0.00  0.00    -0.023 A 
ATOM     21  C   LIG    1       20.808 -28.158  12.546  0.00  0.00    +0.005 A 
ATOM     22  C   LIG    1       21.015 -26.869  13.046  0.00  0.00    +0.000 A 
ATOM     23  C   LIG    1       22.288 -26.461  13.426  0.00  0.00    +0.000 A 
ATOM     24  C   LIG    1       23.357 -27.346  13.311  0.00  0.00    +0.000 A 
ATOM     25  C   LIG    1       23.154 -28.636  12.810  0.00  0.00    +0.005 A 
ENDBRANCH  19  20
BRANCH  19  26
ATOM     26  C   LIG    1       20.181 -30.948  11.815  0.00  0.00    -0.023 A 
ATOM     27  C   LIG    1       19.485 -31.084  10.598  0.00  0.00    +0.005 A 
ATOM     28  C   LIG    1       18.121 -31.403  10.571  0.00  0.00    +0.000 A 
ATOM     29  C   LIG    1       17.413 -31.576  11.757  0.00  0.00    +0.000 A 
ATOM     30  C   LIG    1       18.068 -31.443  12.971  0.00  0.00    +0.000 A 
ATOM     31  C   LIG    1       19.431 -31.132  13.000  0.00  0.00    +0.005 A 
ENDBRANCH  19  26
BRANCH  19  33
ATOM     32  N   LIG    1       22.930 -32.381  13.295  0.00  0.00    -0.195 NA
ATOM     33  C   LIG    1       22.396 -31.560  12.687  0.00  0.00    +0.079 C 
ENDBRANCH  19  33
ENDBRANCH  18  19
ENDBRANCH   1  18
TORSDOF 9
ENDMDL
