MODEL 1
REMARK VINA RESULT:       4.9      0.000      0.000
REMARK  Name = *****
REMARK                            x       y       z     vdW  Elec       q    Type
REMARK                         _______ _______ _______ _____ _____    ______ ____
ROOT
ATOM      1  C   LIG    1       26.716 -13.744   3.111  0.00  0.00    +0.164 A 
ATOM      2  C   LIG    1       27.951 -13.761   3.774  0.00  0.00    +0.162 A 
ATOM      3  C   LIG    1       28.424 -14.963   4.303  0.00  0.00    +0.062 A 
ATOM      4  C   LIG    1       27.715 -16.162   4.116  0.00  0.00    +0.044 A 
ATOM      5  C   LIG    1       26.493 -16.148   3.458  0.00  0.00    +0.082 A 
ATOM      6  N   LIG    1       25.788 -17.257   3.267  0.00  0.00    -0.214 NA
ATOM      7  C   LIG    1       26.255 -18.416   3.753  0.00  0.00    +0.220 A 
ATOM      8  N   LIG    1       27.423 -18.525   4.396  0.00  0.00    -0.199 NA
ATOM      9  C   LIG    1       28.148 -17.414   4.543  0.00  0.00    +0.129 A 
ATOM     10  C   LIG    1       26.001 -14.942   2.981  0.00  0.00    +0.078 A 
ENDROOT
BRANCH   7  11
ATOM     11  N   LIG    1       25.495 -19.567   3.563  0.00  0.00    -0.297 N 
ATOM     12  C   LIG    1       25.420 -20.424   4.772  0.00  0.00    +0.127 C 
ATOM     13  C   LIG    1       24.364 -19.888   5.775  0.00  0.00    +0.127 C 
ATOM     14  N   LIG    1       23.075 -19.716   5.084  0.00  0.00    -0.296 N 
ATOM     15  C   LIG    1       22.152 -20.759   5.134  0.00  0.00    +0.244 C 
ATOM     16  O   LIG    1       22.166 -21.571   6.084  0.00  0.00    -0.273 OA
ATOM     17  C   LIG    1       23.160 -18.791   3.953  0.00  0.00    +0.127 C 
ATOM     18  C   LIG    1       24.186 -19.312   2.924  0.00  0.00    +0.127 C 
BRANCH  15  19
ATOM     19  C   LIG    1       21.111 -20.877   3.998  0.00  0.00    +0.204 C 
ATOM     20  O   LIG    1       19.778 -20.625   4.478  0.00  0.00    -0.367 OA
ATOM     21  C   LIG    1       19.350 -19.325   4.048  0.00  0.00    +0.161 C 
ATOM     22  C   LIG    1       20.515 -18.688   3.328  0.00  0.00    +0.031 C 
ATOM     23  C   LIG    1       21.311 -19.885   2.870  0.00  0.00    +0.043 C 
ENDBRANCH  15  19
ENDBRANCH   7  11
BRANCH   9  24
ATOM     24  N   LIG    1       29.395 -17.590   5.160  0.00  0.00    -0.343 N 
ATOM     25  H   LIG    1       29.452 -17.032   6.006  0.00  0.00    +0.144 HD
ATOM     26  H   LIG    1       30.093 -17.288   4.483  0.00  0.00    +0.144 HD
ENDBRANCH   9  24
BRANCH   1  28
ATOM     27  C   LIG    1       24.669 -12.698   2.461  0.00  0.00    +0.277 C 
ATOM     28  O   LIG    1       26.088 -12.679   2.520  0.00  0.00    -0.491 OA
ENDBRANCH   1  28
BRANCH   2  29
ATOM     29  O   LIG    1       28.651 -12.600   3.937  0.00  0.00    -0.491 OA
ATOM     30  C   LIG    1       28.661 -12.054   5.253  0.00  0.00    +0.277 C 
ENDBRANCH   2  29
TORSDOF 5
ENDMDL
