MODEL 1
REMARK VINA RESULT:      -4.5      0.000      0.000
REMARK  Name = *****
REMARK                            x       y       z     vdW  Elec       q    Type
REMARK                         _______ _______ _______ _____ _____    ______ ____
ROOT
ATOM      1  C   LIG    1       22.145 -19.267   3.744  0.00  0.00    +0.179 C 
ATOM      2  N   LIG    1       23.411 -19.624   4.346  0.00  0.00    -0.199 N 
ATOM      3  C   LIG    1       23.434 -20.489   5.425  0.00  0.00    +0.353 C 
ATOM      4  O   LIG    1       22.506 -21.065   5.973  0.00  0.00    -0.244 OA
ATOM      5  N   LIG    1       24.724 -20.673   5.881  0.00  0.00    -0.232 N 
ATOM      6  C   LIG    1       25.813 -20.056   5.337  0.00  0.00    +0.197 C 
ATOM      7  C   LIG    1       26.893 -20.513   6.070  0.00  0.00    +0.171 C 
ATOM      8  N   LIG    1       26.465 -21.396   7.060  0.00  0.00    -0.228 NA
ATOM      9  N   LIG    1       25.653 -19.205   4.302  0.00  0.00    -0.110 NA
ATOM     10  C   LIG    1       25.159 -21.461   6.913  0.00  0.00    +0.210 C 
ATOM     11  N   LIG    1       24.514 -18.981   3.830  0.00  0.00    -0.060 NA
ENDROOT
BRANCH   7  12
ATOM     12  C   LIG    1       28.295 -20.157   5.885  0.00  0.00    +0.264 C 
ATOM     13  O   LIG    1       29.241 -20.756   6.381  0.00  0.00    -0.269 OA
ATOM     14  N   LIG    1       28.476 -19.064   5.085  0.00  0.00    -0.324 N 
ATOM     15  H   LIG    1       29.411 -18.738   4.898  0.00  0.00    +0.145 HD
ATOM     16  H   LIG    1       27.670 -18.593   4.692  0.00  0.00    +0.145 HD
ENDBRANCH   7  12
TORSDOF 1
ENDMDL
MODEL 2
REMARK VINA RESULT:      -4.3      1.459      5.014
REMARK  Name = *****
REMARK                            x       y       z     vdW  Elec       q    Type
REMARK                         _______ _______ _______ _____ _____    ______ ____
ROOT
ATOM      1  C   LIG    1       29.172 -20.819   6.973  0.00  0.00    +0.179 C 
ATOM      2  N   LIG    1       27.833 -20.712   6.434  0.00  0.00    -0.199 N 
ATOM      3  C   LIG    1       27.577 -19.812   5.418  0.00  0.00    +0.353 C 
ATOM      4  O   LIG    1       28.348 -19.061   4.838  0.00  0.00    -0.244 OA
ATOM      5  N   LIG    1       26.241 -19.828   5.069  0.00  0.00    -0.232 N 
ATOM      6  C   LIG    1       25.312 -20.623   5.676  0.00  0.00    +0.197 C 
ATOM      7  C   LIG    1       24.120 -20.344   5.033  0.00  0.00    +0.171 C 
ATOM      8  N   LIG    1       24.319 -19.380   4.045  0.00  0.00    -0.228 NA
ATOM      9  N   LIG    1       25.685 -21.440   6.683  0.00  0.00    -0.110 NA
ATOM     10  C   LIG    1       25.603 -19.097   4.103  0.00  0.00    +0.210 C 
ATOM     11  N   LIG    1       26.879 -21.482   7.061  0.00  0.00    -0.060 NA
ENDROOT
BRANCH   7  12
ATOM     12  C   LIG    1       22.816 -20.935   5.304  0.00  0.00    +0.264 C 
ATOM     13  O   LIG    1       21.855 -20.891   4.546  0.00  0.00    -0.269 OA
ATOM     14  N   LIG    1       22.747 -21.567   6.514  0.00  0.00    -0.324 N 
ATOM     15  H   LIG    1       21.886 -22.006   6.795  0.00  0.00    +0.145 HD
ATOM     16  H   LIG    1       23.562 -21.584   7.116  0.00  0.00    +0.145 HD
ENDBRANCH   7  12
TORSDOF 1
ENDMDL
MODEL 3
REMARK VINA RESULT:      -3.8      1.544      2.519
REMARK  Name = *****
REMARK                            x       y       z     vdW  Elec       q    Type
REMARK                         _______ _______ _______ _____ _____    ______ ____
ROOT
ATOM      1  C   LIG    1       22.245 -21.402   5.416  0.00  0.00    +0.179 C 
ATOM      2  N   LIG    1       23.628 -20.991   5.527  0.00  0.00    -0.199 N 
ATOM      3  C   LIG    1       24.166 -20.142   4.579  0.00  0.00    +0.353 C 
ATOM      4  O   LIG    1       23.627 -19.620   3.614  0.00  0.00    -0.244 OA
ATOM      5  N   LIG    1       25.501 -19.901   4.834  0.00  0.00    -0.232 N 
ATOM      6  C   LIG    1       26.183 -20.456   5.878  0.00  0.00    +0.197 C 
ATOM      7  C   LIG    1       27.469 -19.957   5.778  0.00  0.00    +0.171 C 
ATOM      8  N   LIG    1       27.573 -19.110   4.676  0.00  0.00    -0.228 NA
ATOM      9  N   LIG    1       25.549 -21.299   6.719  0.00  0.00    -0.110 NA
ATOM     10  C   LIG    1       26.372 -19.107   4.137  0.00  0.00    +0.210 C 
ATOM     11  N   LIG    1       24.336 -21.572   6.555  0.00  0.00    -0.060 NA
ENDROOT
BRANCH   7  12
ATOM     12  C   LIG    1       28.593 -20.241   6.663  0.00  0.00    +0.264 C 
ATOM     13  O   LIG    1       29.400 -19.409   7.058  0.00  0.00    -0.269 OA
ATOM     14  N   LIG    1       28.676 -21.554   7.030  0.00  0.00    -0.324 N 
ATOM     15  H   LIG    1       29.421 -21.851   7.639  0.00  0.00    +0.145 HD
ATOM     16  H   LIG    1       27.991 -22.215   6.683  0.00  0.00    +0.145 HD
ENDBRANCH   7  12
TORSDOF 1
ENDMDL
MODEL 4
REMARK VINA RESULT:      -3.6      1.004      4.384
REMARK  Name = *****
REMARK                            x       y       z     vdW  Elec       q    Type
REMARK                         _______ _______ _______ _____ _____    ______ ____
ROOT
ATOM      1  C   LIG    1       29.376 -18.928   5.265  0.00  0.00    +0.179 C 
ATOM      2  N   LIG    1       27.998 -19.360   5.352  0.00  0.00    -0.199 N 
ATOM      3  C   LIG    1       27.649 -20.350   6.250  0.00  0.00    +0.353 C 
ATOM      4  O   LIG    1       28.348 -20.942   7.059  0.00  0.00    -0.244 OA
ATOM      5  N   LIG    1       26.304 -20.651   6.155  0.00  0.00    -0.232 N 
ATOM      6  C   LIG    1       25.457 -20.050   5.269  0.00  0.00    +0.197 C 
ATOM      7  C   LIG    1       24.220 -20.623   5.504  0.00  0.00    +0.171 C 
ATOM      8  N   LIG    1       24.314 -21.572   6.521  0.00  0.00    -0.228 NA
ATOM      9  N   LIG    1       25.931 -19.116   4.418  0.00  0.00    -0.110 NA
ATOM     10  C   LIG    1       25.580 -21.558   6.880  0.00  0.00    +0.210 C 
ATOM     11  N   LIG    1       27.140 -18.788   4.439  0.00  0.00    -0.060 NA
ENDROOT
BRANCH   7  12
ATOM     12  C   LIG    1       22.969 -20.322   4.820  0.00  0.00    +0.264 C 
ATOM     13  O   LIG    1       21.977 -21.039   4.827  0.00  0.00    -0.269 OA
ATOM     14  N   LIG    1       22.990 -19.133   4.147  0.00  0.00    -0.324 N 
ATOM     15  H   LIG    1       22.172 -18.836   3.640  0.00  0.00    +0.145 HD
ATOM     16  H   LIG    1       23.829 -18.565   4.162  0.00  0.00    +0.145 HD
ENDBRANCH   7  12
TORSDOF 1
ENDMDL
MODEL 5
REMARK VINA RESULT:      -3.3      3.651      4.932
REMARK  Name = *****
REMARK                            x       y       z     vdW  Elec       q    Type
REMARK                         _______ _______ _______ _____ _____    ______ ____
ROOT
ATOM      1  C   LIG    1       26.102 -13.765   3.432  0.00  0.00    +0.179 C 
ATOM      2  N   LIG    1       25.557 -15.103   3.504  0.00  0.00    -0.199 N 
ATOM      3  C   LIG    1       24.261 -15.289   3.948  0.00  0.00    +0.353 C 
ATOM      4  O   LIG    1       23.432 -14.456   4.282  0.00  0.00    -0.244 OA
ATOM      5  N   LIG    1       23.940 -16.631   3.984  0.00  0.00    -0.232 N 
ATOM      6  C   LIG    1       24.811 -17.626   3.643  0.00  0.00    +0.197 C 
ATOM      7  C   LIG    1       24.103 -18.802   3.809  0.00  0.00    +0.171 C 
ATOM      8  N   LIG    1       22.811 -18.527   4.256  0.00  0.00    -0.228 NA
ATOM      9  N   LIG    1       26.065 -17.313   3.256  0.00  0.00    -0.110 NA
ATOM     10  C   LIG    1       22.757 -17.215   4.350  0.00  0.00    +0.210 C 
ATOM     11  N   LIG    1       26.436 -16.117   3.197  0.00  0.00    -0.060 NA
ENDROOT
BRANCH   7  12
ATOM     12  C   LIG    1       24.582 -20.158   3.571  0.00  0.00    +0.264 C 
ATOM     13  O   LIG    1       23.937 -21.042   3.022  0.00  0.00    -0.269 OA
ATOM     14  N   LIG    1       25.853 -20.371   4.024  0.00  0.00    -0.324 N 
ATOM     15  H   LIG    1       26.274 -21.279   3.908  0.00  0.00    +0.145 HD
ATOM     16  H   LIG    1       26.357 -19.616   4.474  0.00  0.00    +0.145 HD
ENDBRANCH   7  12
TORSDOF 1
ENDMDL
MODEL 6
REMARK VINA RESULT:      -3.3      4.471      5.298
REMARK  Name = *****
REMARK                            x       y       z     vdW  Elec       q    Type
REMARK                         _______ _______ _______ _____ _____    ______ ____
ROOT
ATOM      1  C   LIG    1       23.894 -19.900   3.686  0.00  0.00    +0.179 C 
ATOM      2  N   LIG    1       24.319 -18.517   3.702  0.00  0.00    -0.199 N 
ATOM      3  C   LIG    1       23.430 -17.535   4.096  0.00  0.00    +0.353 C 
ATOM      4  O   LIG    1       22.279 -17.647   4.488  0.00  0.00    -0.244 OA
ATOM      5  N   LIG    1       24.007 -16.283   4.005  0.00  0.00    -0.232 N 
ATOM      6  C   LIG    1       25.280 -16.068   3.562  0.00  0.00    +0.197 C 
ATOM      7  C   LIG    1       25.463 -14.699   3.634  0.00  0.00    +0.171 C 
ATOM      8  N   LIG    1       24.307 -14.083   4.111  0.00  0.00    -0.228 NA
ATOM      9  N   LIG    1       26.039 -17.114   3.174  0.00  0.00    -0.110 NA
ATOM     10  C   LIG    1       23.459 -15.068   4.318  0.00  0.00    +0.210 C 
ATOM     11  N   LIG    1       25.589 -18.283   3.224  0.00  0.00    -0.060 NA
ENDROOT
BRANCH   7  12
ATOM     12  C   LIG    1       26.663 -13.953   3.277  0.00  0.00    +0.264 C 
ATOM     13  O   LIG    1       26.675 -12.914   2.629  0.00  0.00    -0.269 OA
ATOM     14  N   LIG    1       27.815 -14.525   3.739  0.00  0.00    -0.324 N 
ATOM     15  H   LIG    1       28.700 -14.085   3.541  0.00  0.00    +0.145 HD
ATOM     16  H   LIG    1       27.768 -15.386   4.271  0.00  0.00    +0.145 HD
ENDBRANCH   7  12
TORSDOF 1
ENDMDL
MODEL 7
REMARK VINA RESULT:      -3.1      5.507      6.761
REMARK  Name = *****
REMARK                            x       y       z     vdW  Elec       q    Type
REMARK                         _______ _______ _______ _____ _____    ______ ____
ROOT
ATOM      1  C   LIG    1       23.596 -18.706   4.030  0.00  0.00    +0.179 C 
ATOM      2  N   LIG    1       23.898 -17.295   3.930  0.00  0.00    -0.199 N 
ATOM      3  C   LIG    1       25.142 -16.892   3.483  0.00  0.00    +0.353 C 
ATOM      4  O   LIG    1       26.084 -17.573   3.104  0.00  0.00    -0.244 OA
ATOM      5  N   LIG    1       25.250 -15.516   3.497  0.00  0.00    -0.232 N 
ATOM      6  C   LIG    1       24.253 -14.684   3.920  0.00  0.00    +0.197 C 
ATOM      7  C   LIG    1       24.758 -13.406   3.766  0.00  0.00    +0.171 C 
ATOM      8  N   LIG    1       26.056 -13.457   3.260  0.00  0.00    -0.228 NA
ATOM      9  N   LIG    1       23.091 -15.205   4.365  0.00  0.00    -0.110 NA
ATOM     10  C   LIG    1       26.312 -14.740   3.116  0.00  0.00    +0.210 C 
ATOM     11  N   LIG    1       22.914 -16.446   4.387  0.00  0.00    -0.060 NA
ENDROOT
BRANCH   7  12
ATOM     12  C   LIG    1       24.081 -12.152   4.073  0.00  0.00    +0.264 C 
ATOM     13  O   LIG    1       23.897 -11.713   5.201  0.00  0.00    -0.269 OA
ATOM     14  N   LIG    1       23.653 -11.480   2.962  0.00  0.00    -0.324 N 
ATOM     15  H   LIG    1       23.171 -10.602   3.069  0.00  0.00    +0.145 HD
ATOM     16  H   LIG    1       23.822 -11.874   2.044  0.00  0.00    +0.145 HD
ENDBRANCH   7  12
TORSDOF 1
ENDMDL
MODEL 8
REMARK VINA RESULT:      -2.8      3.866      5.620
REMARK  Name = *****
REMARK                            x       y       z     vdW  Elec       q    Type
REMARK                         _______ _______ _______ _____ _____    ______ ____
ROOT
ATOM      1  C   LIG    1       25.095 -13.028   3.711  0.00  0.00    +0.179 C 
ATOM      2  N   LIG    1       24.778 -14.436   3.814  0.00  0.00    -0.199 N 
ATOM      3  C   LIG    1       25.696 -15.376   3.385  0.00  0.00    +0.353 C 
ATOM      4  O   LIG    1       26.818 -15.208   2.930  0.00  0.00    -0.244 OA
ATOM      5  N   LIG    1       25.196 -16.655   3.527  0.00  0.00    -0.232 N 
ATOM      6  C   LIG    1       23.950 -16.929   4.011  0.00  0.00    +0.197 C 
ATOM      7  C   LIG    1       23.850 -18.309   3.998  0.00  0.00    +0.171 C 
ATOM      8  N   LIG    1       25.026 -18.872   3.503  0.00  0.00    -0.228 NA
ATOM      9  N   LIG    1       23.132 -15.917   4.368  0.00  0.00    -0.110 NA
ATOM     10  C   LIG    1       25.804 -17.846   3.230  0.00  0.00    +0.210 C 
ATOM     11  N   LIG    1       23.510 -14.726   4.267  0.00  0.00    -0.060 NA
ENDROOT
BRANCH   7  12
ATOM     12  C   LIG    1       22.711 -19.112   4.425  0.00  0.00    +0.264 C 
ATOM     13  O   LIG    1       22.788 -20.149   5.070  0.00  0.00    -0.269 OA
ATOM     14  N   LIG    1       21.507 -18.596   4.034  0.00  0.00    -0.324 N 
ATOM     15  H   LIG    1       20.659 -19.081   4.278  0.00  0.00    +0.145 HD
ATOM     16  H   LIG    1       21.481 -17.736   3.499  0.00  0.00    +0.145 HD
ENDBRANCH   7  12
TORSDOF 1
ENDMDL
MODEL 9
REMARK VINA RESULT:      -2.6      3.552      4.658
REMARK  Name = *****
REMARK                            x       y       z     vdW  Elec       q    Type
REMARK                         _______ _______ _______ _____ _____    ______ ____
ROOT
ATOM      1  C   LIG    1       21.978 -20.730   4.792  0.00  0.00    +0.179 C 
ATOM      2  N   LIG    1       22.757 -19.562   4.444  0.00  0.00    -0.199 N 
ATOM      3  C   LIG    1       24.052 -19.716   3.986  0.00  0.00    +0.353 C 
ATOM      4  O   LIG    1       24.683 -20.743   3.783  0.00  0.00    -0.244 OA
ATOM      5  N   LIG    1       24.641 -18.490   3.748  0.00  0.00    -0.232 N 
ATOM      6  C   LIG    1       24.014 -17.297   3.964  0.00  0.00    +0.197 C 
ATOM      7  C   LIG    1       24.935 -16.332   3.598  0.00  0.00    +0.171 C 
ATOM      8  N   LIG    1       26.118 -16.932   3.169  0.00  0.00    -0.228 NA
ATOM      9  N   LIG    1       22.754 -17.280   4.447  0.00  0.00    -0.110 NA
ATOM     10  C   LIG    1       25.899 -18.225   3.278  0.00  0.00    +0.210 C 
ATOM     11  N   LIG    1       22.150 -18.351   4.691  0.00  0.00    -0.060 NA
ENDROOT
BRANCH   7  12
ATOM     12  C   LIG    1       24.754 -14.886   3.636  0.00  0.00    +0.264 C 
ATOM     13  O   LIG    1       25.481 -14.074   3.077  0.00  0.00    -0.269 OA
ATOM     14  N   LIG    1       23.669 -14.493   4.368  0.00  0.00    -0.324 N 
ATOM     15  H   LIG    1       23.461 -13.512   4.456  0.00  0.00    +0.145 HD
ATOM     16  H   LIG    1       23.090 -15.192   4.818  0.00  0.00    +0.145 HD
ENDBRANCH   7  12
TORSDOF 1
ENDMDL
