MODEL 1
REMARK VINA RESULT:      -6.4      0.000      0.000
REMARK  Name = *****
REMARK                            x       y       z     vdW  Elec       q    Type
REMARK                         _______ _______ _______ _____ _____    ______ ____
ROOT
ATOM      1  C   LIG    1       25.247 -22.112   5.905  0.00  0.00    +0.059 C 
ENDROOT
BRANCH   1   2
ATOM      2  C   LIG    1       25.319 -23.727   5.780  0.00  0.00    -0.033 A 
ATOM      3  C   LIG    1       25.756 -24.558   6.837  0.00  0.00    +0.005 A 
ATOM      4  C   LIG    1       25.966 -25.940   6.688  0.00  0.00    +0.000 A 
ATOM      5  C   LIG    1       25.633 -26.589   5.510  0.00  0.00    +0.000 A 
ATOM      6  C   LIG    1       25.074 -25.853   4.496  0.00  0.00    +0.000 A 
ATOM      7  C   LIG    1       24.939 -24.470   4.646  0.00  0.00    +0.005 A 
ENDBRANCH   1   2
BRANCH   1   8
ATOM      8  C   LIG    1       26.623 -21.341   6.088  0.00  0.00    -0.033 A 
ATOM      9  C   LIG    1       26.890 -20.108   5.461  0.00  0.00    +0.005 A 
ATOM     10  C   LIG    1       28.090 -19.386   5.659  0.00  0.00    +0.000 A 
ATOM     11  C   LIG    1       29.078 -19.860   6.508  0.00  0.00    +0.000 A 
ATOM     12  C   LIG    1       28.866 -21.060   7.136  0.00  0.00    +0.000 A 
ATOM     13  C   LIG    1       27.693 -21.778   6.885  0.00  0.00    +0.005 A 
ENDBRANCH   1   8
BRANCH   1  14
ATOM     14  C   LIG    1       24.343 -21.932   7.306  0.00  0.00    +0.191 C 
BRANCH  14  16
ATOM     15  C   LIG    1       22.315 -23.513   6.862  0.00  0.00    +0.007 C 
ATOM     16  C   LIG    1       22.840 -22.235   7.504  0.00  0.00    +0.042 C 
ENDBRANCH  14  16
BRANCH  14  17
ATOM     17  O   LIG    1       24.685 -20.778   8.158  0.00  0.00    -0.460 OA
BRANCH  17  18
ATOM     18  C   LIG    1       25.625 -20.844   9.156  0.00  0.00    +0.304 C 
ATOM     19  O   LIG    1       26.234 -19.951   9.640  0.00  0.00    -0.251 OA
ATOM     20  C   LIG    1       25.811 -22.292   9.575  0.00  0.00    +0.136 C 
ENDBRANCH  17  18
ENDBRANCH  14  17
ENDBRANCH   1  14
BRANCH   1  21
ATOM     21  C   LIG    1       24.433 -21.408   4.656  0.00  0.00    +0.038 C 
BRANCH  21  22
ATOM     22  C   LIG    1       23.305 -20.260   4.747  0.00  0.00    +0.054 C 
ATOM     23  C   LIG    1       21.869 -20.873   4.553  0.00  0.00    +0.024 C 
BRANCH  22  24
ATOM     24  N   LIG    1       23.290 -19.104   3.805  0.00  0.00    -0.306 NA
ATOM     25  C   LIG    1       22.462 -18.000   4.202  0.00  0.00    +0.105 C 
ATOM     26  C   LIG    1       24.623 -18.591   3.490  0.00  0.00    +0.105 C 
ENDBRANCH  22  24
ENDBRANCH  21  22
ENDBRANCH   1  21
TORSDOF 9
ENDMDL
MODEL 2
REMARK VINA RESULT:      -6.2      6.852     10.365
REMARK  Name = *****
REMARK                            x       y       z     vdW  Elec       q    Type
REMARK                         _______ _______ _______ _____ _____    ______ ____
ROOT
ATOM      1  C   LIG    1       25.400 -30.213   8.316  0.00  0.00    +0.059 C 
ENDROOT
BRANCH   1   2
ATOM      2  C   LIG    1       24.041 -30.868   8.908  0.00  0.00    -0.033 A 
ATOM      3  C   LIG    1       23.178 -30.177   9.791  0.00  0.00    +0.005 A 
ATOM      4  C   LIG    1       22.084 -30.789  10.427  0.00  0.00    +0.000 A 
ATOM      5  C   LIG    1       21.716 -32.088  10.121  0.00  0.00    +0.000 A 
ATOM      6  C   LIG    1       22.435 -32.762   9.166  0.00  0.00    +0.000 A 
ATOM      7  C   LIG    1       23.559 -32.155   8.600  0.00  0.00    +0.005 A 
ENDBRANCH   1   2
BRANCH   1   8
ATOM      8  C   LIG    1       25.249 -28.878   7.471  0.00  0.00    -0.033 A 
ATOM      9  C   LIG    1       26.074 -27.754   7.675  0.00  0.00    +0.005 A 
ATOM     10  C   LIG    1       25.984 -26.579   6.893  0.00  0.00    +0.000 A 
ATOM     11  C   LIG    1       25.069 -26.477   5.857  0.00  0.00    +0.000 A 
ATOM     12  C   LIG    1       24.239 -27.544   5.625  0.00  0.00    +0.000 A 
ATOM     13  C   LIG    1       24.314 -28.674   6.444  0.00  0.00    +0.005 A 
ENDBRANCH   1   8
BRANCH   1  14
ATOM     14  C   LIG    1       25.935 -31.433   7.296  0.00  0.00    +0.191 C 
BRANCH  14  16
ATOM     15  C   LIG    1       26.914 -33.535   8.494  0.00  0.00    +0.007 C 
ATOM     16  C   LIG    1       27.131 -32.387   7.514  0.00  0.00    +0.042 C 
ENDBRANCH  14  16
BRANCH  14  17
ATOM     17  O   LIG    1       25.831 -31.165   5.850  0.00  0.00    -0.460 OA
BRANCH  17  18
ATOM     18  C   LIG    1       25.653 -32.160   4.921  0.00  0.00    +0.304 C 
ATOM     19  O   LIG    1       26.367 -32.450   4.022  0.00  0.00    -0.251 OA
ATOM     20  C   LIG    1       24.340 -32.872   5.194  0.00  0.00    +0.136 C 
ENDBRANCH  17  18
ENDBRANCH  14  17
ENDBRANCH   1  14
BRANCH   1  21
ATOM     21  C   LIG    1       26.544 -29.954   9.475  0.00  0.00    +0.038 C 
BRANCH  21  22
ATOM     22  C   LIG    1       26.303 -29.505  11.005  0.00  0.00    +0.054 C 
ATOM     23  C   LIG    1       27.009 -28.130  11.300  0.00  0.00    +0.024 C 
BRANCH  22  24
ATOM     24  N   LIG    1       26.757 -30.349  12.147  0.00  0.00    -0.306 NA
ATOM     25  C   LIG    1       27.488 -29.655  13.170  0.00  0.00    +0.105 C 
ATOM     26  C   LIG    1       25.675 -31.100  12.783  0.00  0.00    +0.105 C 
ENDBRANCH  22  24
ENDBRANCH  21  22
ENDBRANCH   1  21
TORSDOF 9
ENDMDL
MODEL 3
REMARK VINA RESULT:      -6.0      6.341      9.449
REMARK  Name = *****
REMARK                            x       y       z     vdW  Elec       q    Type
REMARK                         _______ _______ _______ _____ _____    ______ ____
ROOT
ATOM      1  C   LIG    1       24.836 -30.107   7.535  0.00  0.00    +0.059 C 
ENDROOT
BRANCH   1   2
ATOM      2  C   LIG    1       24.887 -31.275   6.413  0.00  0.00    -0.033 A 
ATOM      3  C   LIG    1       25.842 -31.294   5.369  0.00  0.00    +0.005 A 
ATOM      4  C   LIG    1       25.799 -32.215   4.308  0.00  0.00    +0.000 A 
ATOM      5  C   LIG    1       24.873 -33.244   4.294  0.00  0.00    +0.000 A 
ATOM      6  C   LIG    1       24.008 -33.358   5.353  0.00  0.00    +0.000 A 
ATOM      7  C   LIG    1       24.028 -32.390   6.362  0.00  0.00    +0.005 A 
ENDBRANCH   1   2
BRANCH   1   8
ATOM      8  C   LIG    1       25.039 -28.615   7.034  0.00  0.00    -0.033 A 
ATOM      9  C   LIG    1       24.217 -28.026   6.053  0.00  0.00    +0.005 A 
ATOM     10  C   LIG    1       24.356 -26.681   5.637  0.00  0.00    +0.000 A 
ATOM     11  C   LIG    1       25.318 -25.855   6.195  0.00  0.00    +0.000 A 
ATOM     12  C   LIG    1       26.147 -26.385   7.150  0.00  0.00    +0.000 A 
ATOM     13  C   LIG    1       26.022 -27.731   7.508  0.00  0.00    +0.005 A 
ENDBRANCH   1   8
BRANCH   1  14
ATOM     14  C   LIG    1       26.140 -30.527   8.504  0.00  0.00    +0.191 C 
BRANCH  14  16
ATOM     15  C   LIG    1       26.399 -33.007   9.275  0.00  0.00    +0.007 C 
ATOM     16  C   LIG    1       26.956 -31.840   8.469  0.00  0.00    +0.042 C 
ENDBRANCH  14  16
BRANCH  14  17
ATOM     17  O   LIG    1       26.086 -30.069   9.905  0.00  0.00    -0.460 OA
BRANCH  17  18
ATOM     18  C   LIG    1       27.164 -29.512  10.546  0.00  0.00    +0.304 C 
ATOM     19  O   LIG    1       28.205 -30.020  10.792  0.00  0.00    -0.251 OA
ATOM     20  C   LIG    1       26.830 -28.084  10.941  0.00  0.00    +0.136 C 
ENDBRANCH  17  18
ENDBRANCH  14  17
ENDBRANCH   1  14
BRANCH   1  21
ATOM     21  C   LIG    1       23.463 -30.155   8.447  0.00  0.00    +0.038 C 
BRANCH  21  22
ATOM     22  C   LIG    1       23.244 -30.926   9.845  0.00  0.00    +0.054 C 
ATOM     23  C   LIG    1       22.580 -32.334   9.607  0.00  0.00    +0.024 C 
BRANCH  22  24
ATOM     24  N   LIG    1       22.395 -30.352  10.929  0.00  0.00    -0.306 NA
ATOM     25  C   LIG    1       20.994 -30.654  10.835  0.00  0.00    +0.105 C 
ATOM     26  C   LIG    1       22.852 -30.701  12.274  0.00  0.00    +0.105 C 
ENDBRANCH  22  24
ENDBRANCH  21  22
ENDBRANCH   1  21
TORSDOF 9
ENDMDL
MODEL 4
REMARK VINA RESULT:      -5.8      6.961     10.280
REMARK  Name = *****
REMARK                            x       y       z     vdW  Elec       q    Type
REMARK                         _______ _______ _______ _____ _____    ______ ____
ROOT
ATOM      1  C   LIG    1       24.949 -29.874   8.794  0.00  0.00    +0.059 C 
ENDROOT
BRANCH   1   2
ATOM      2  C   LIG    1       25.024 -28.879   7.517  0.00  0.00    -0.033 A 
ATOM      3  C   LIG    1       24.221 -29.049   6.365  0.00  0.00    +0.005 A 
ATOM      4  C   LIG    1       24.388 -28.285   5.196  0.00  0.00    +0.000 A 
ATOM      5  C   LIG    1       25.280 -27.227   5.157  0.00  0.00    +0.000 A 
ATOM      6  C   LIG    1       25.987 -26.928   6.294  0.00  0.00    +0.000 A 
ATOM      7  C   LIG    1       25.853 -27.745   7.420  0.00  0.00    +0.005 A 
ENDBRANCH   1   2
BRANCH   1   8
ATOM      8  C   LIG    1       25.612 -29.367  10.145  0.00  0.00    -0.033 A 
ATOM      9  C   LIG    1       24.923 -29.369  11.374  0.00  0.00    +0.005 A 
ATOM     10  C   LIG    1       25.520 -28.969  12.592  0.00  0.00    +0.000 A 
ATOM     11  C   LIG    1       26.844 -28.561  12.641  0.00  0.00    +0.000 A 
ATOM     12  C   LIG    1       27.553 -28.536  11.468  0.00  0.00    +0.000 A 
ATOM     13  C   LIG    1       26.926 -28.888  10.270  0.00  0.00    +0.005 A 
ENDBRANCH   1   8
BRANCH   1  14
ATOM     14  C   LIG    1       25.823 -31.193   8.233  0.00  0.00    +0.191 C 
BRANCH  14  16
ATOM     15  C   LIG    1       26.327 -33.443   9.454  0.00  0.00    +0.007 C 
ATOM     16  C   LIG    1       26.822 -32.067   9.024  0.00  0.00    +0.042 C 
ENDBRANCH  14  16
BRANCH  14  17
ATOM     17  O   LIG    1       26.301 -31.112   6.840  0.00  0.00    -0.460 OA
BRANCH  17  18
ATOM     18  C   LIG    1       26.329 -32.199   6.001  0.00  0.00    +0.304 C 
ATOM     19  O   LIG    1       27.275 -32.816   5.645  0.00  0.00    -0.251 OA
ATOM     20  C   LIG    1       24.917 -32.517   5.545  0.00  0.00    +0.136 C 
ENDBRANCH  17  18
ENDBRANCH  14  17
ENDBRANCH   1  14
BRANCH   1  21
ATOM     21  C   LIG    1       23.413 -30.365   9.135  0.00  0.00    +0.038 C 
BRANCH  21  22
ATOM     22  C   LIG    1       22.949 -31.792   9.723  0.00  0.00    +0.054 C 
ATOM     23  C   LIG    1       22.728 -32.829   8.560  0.00  0.00    +0.024 C 
BRANCH  22  24
ATOM     24  N   LIG    1       21.699 -31.938  10.523  0.00  0.00    -0.306 NA
ATOM     25  C   LIG    1       20.971 -30.721  10.750  0.00  0.00    +0.105 C 
ATOM     26  C   LIG    1       20.775 -32.935   9.983  0.00  0.00    +0.105 C 
ENDBRANCH  22  24
ENDBRANCH  21  22
ENDBRANCH   1  21
TORSDOF 9
ENDMDL
MODEL 5
REMARK VINA RESULT:      -5.7      8.983     11.225
REMARK  Name = *****
REMARK                            x       y       z     vdW  Elec       q    Type
REMARK                         _______ _______ _______ _____ _____    ______ ____
ROOT
ATOM      1  C   LIG    1       25.196 -28.016  13.143  0.00  0.00    +0.059 C 
ENDROOT
BRANCH   1   2
ATOM      2  C   LIG    1       26.002 -26.753  13.761  0.00  0.00    -0.033 A 
ATOM      3  C   LIG    1       25.698 -26.194  15.025  0.00  0.00    +0.005 A 
ATOM      4  C   LIG    1       26.286 -25.009  15.500  0.00  0.00    +0.000 A 
ATOM      5  C   LIG    1       27.300 -24.383  14.794  0.00  0.00    +0.000 A 
ATOM      6  C   LIG    1       27.732 -24.959  13.626  0.00  0.00    +0.000 A 
ATOM      7  C   LIG    1       27.084 -26.099  13.142  0.00  0.00    +0.005 A 
ENDBRANCH   1   2
BRANCH   1   8
ATOM      8  C   LIG    1       23.621 -27.870  13.003  0.00  0.00    -0.033 A 
ATOM      9  C   LIG    1       22.804 -28.911  12.522  0.00  0.00    +0.005 A 
ATOM     10  C   LIG    1       21.395 -28.811  12.443  0.00  0.00    +0.000 A 
ATOM     11  C   LIG    1       20.734 -27.665  12.857  0.00  0.00    +0.000 A 
ATOM     12  C   LIG    1       21.490 -26.621  13.326  0.00  0.00    +0.000 A 
ATOM     13  C   LIG    1       22.883 -26.727  13.348  0.00  0.00    +0.005 A 
ENDBRANCH   1   8
BRANCH   1  14
ATOM     14  C   LIG    1       25.523 -29.203  14.284  0.00  0.00    +0.191 C 
BRANCH  14  16
ATOM     15  C   LIG    1       24.068 -31.106  15.318  0.00  0.00    +0.007 C 
ATOM     16  C   LIG    1       24.607 -29.685  15.431  0.00  0.00    +0.042 C 
ENDBRANCH  14  16
BRANCH  14  17
ATOM     17  O   LIG    1       26.917 -29.285  14.757  0.00  0.00    -0.460 OA
BRANCH  17  18
ATOM     18  C   LIG    1       27.788 -30.261  14.337  0.00  0.00    +0.304 C 
ATOM     19  O   LIG    1       27.673 -31.433  14.450  0.00  0.00    -0.251 OA
ATOM     20  C   LIG    1       28.996 -29.609  13.688  0.00  0.00    +0.136 C 
ENDBRANCH  17  18
ENDBRANCH  14  17
ENDBRANCH   1  14
BRANCH   1  21
ATOM     21  C   LIG    1       25.792 -28.505  11.686  0.00  0.00    +0.038 C 
BRANCH  21  22
ATOM     22  C   LIG    1       26.222 -29.998  11.256  0.00  0.00    +0.054 C 
ATOM     23  C   LIG    1       27.128 -29.968   9.969  0.00  0.00    +0.024 C 
BRANCH  22  24
ATOM     24  N   LIG    1       25.207 -31.033  10.908  0.00  0.00    -0.306 NA
ATOM     25  C   LIG    1       25.355 -31.624   9.607  0.00  0.00    +0.105 C 
ATOM     26  C   LIG    1       25.108 -32.108  11.895  0.00  0.00    +0.105 C 
ENDBRANCH  22  24
ENDBRANCH  21  22
ENDBRANCH   1  21
TORSDOF 9
ENDMDL
MODEL 6
REMARK VINA RESULT:      -5.7      1.887      5.343
REMARK  Name = *****
REMARK                            x       y       z     vdW  Elec       q    Type
REMARK                         _______ _______ _______ _____ _____    ______ ____
ROOT
ATOM      1  C   LIG    1       25.338 -21.666   6.324  0.00  0.00    +0.059 C 
ENDROOT
BRANCH   1   2
ATOM      2  C   LIG    1       25.266 -20.807   4.951  0.00  0.00    -0.033 A 
ATOM      3  C   LIG    1       25.905 -19.555   4.797  0.00  0.00    +0.005 A 
ATOM      4  C   LIG    1       25.722 -18.736   3.669  0.00  0.00    +0.000 A 
ATOM      5  C   LIG    1       24.989 -19.176   2.579  0.00  0.00    +0.000 A 
ATOM      6  C   LIG    1       24.460 -20.441   2.617  0.00  0.00    +0.000 A 
ATOM      7  C   LIG    1       24.600 -21.208   3.777  0.00  0.00    +0.005 A 
ENDBRANCH   1   2
BRANCH   1   8
ATOM      8  C   LIG    1       25.428 -23.245   6.184  0.00  0.00    -0.033 A 
ATOM      9  C   LIG    1       25.872 -24.074   7.233  0.00  0.00    +0.005 A 
ATOM     10  C   LIG    1       25.905 -25.486   7.137  0.00  0.00    +0.000 A 
ATOM     11  C   LIG    1       25.483 -26.136   5.989  0.00  0.00    +0.000 A 
ATOM     12  C   LIG    1       25.049 -25.369   4.938  0.00  0.00    +0.000 A 
ATOM     13  C   LIG    1       25.071 -23.976   5.039  0.00  0.00    +0.005 A 
ENDBRANCH   1   8
BRANCH   1  14
ATOM     14  C   LIG    1       23.868 -21.276   7.033  0.00  0.00    +0.191 C 
BRANCH  14  16
ATOM     15  C   LIG    1       22.465 -23.439   6.633  0.00  0.00    +0.007 C 
ATOM     16  C   LIG    1       22.774 -22.247   7.531  0.00  0.00    +0.042 C 
ENDBRANCH  14  16
BRANCH  14  17
ATOM     17  O   LIG    1       23.196 -20.069   6.516  0.00  0.00    -0.460 OA
BRANCH  17  18
ATOM     18  C   LIG    1       22.327 -20.100   5.454  0.00  0.00    +0.304 C 
ATOM     19  O   LIG    1       21.754 -21.037   5.012  0.00  0.00    -0.251 OA
ATOM     20  C   LIG    1       22.199 -18.704   4.870  0.00  0.00    +0.136 C 
ENDBRANCH  17  18
ENDBRANCH  14  17
ENDBRANCH   1  14
BRANCH   1  21
ATOM     21  C   LIG    1       26.553 -21.175   7.324  0.00  0.00    +0.038 C 
BRANCH  21  22
ATOM     22  C   LIG    1       28.084 -20.863   6.924  0.00  0.00    +0.054 C 
ATOM     23  C   LIG    1       29.074 -21.710   7.808  0.00  0.00    +0.024 C 
BRANCH  22  24
ATOM     24  N   LIG    1       28.654 -19.490   7.031  0.00  0.00    -0.306 NA
ATOM     25  C   LIG    1       29.615 -19.305   8.082  0.00  0.00    +0.105 C 
ATOM     26  C   LIG    1       29.239 -19.004   5.781  0.00  0.00    +0.105 C 
ENDBRANCH  22  24
ENDBRANCH  21  22
ENDBRANCH   1  21
TORSDOF 9
ENDMDL
MODEL 7
REMARK VINA RESULT:      -5.5      1.255      2.499
REMARK  Name = *****
REMARK                            x       y       z     vdW  Elec       q    Type
REMARK                         _______ _______ _______ _____ _____    ______ ____
ROOT
ATOM      1  C   LIG    1       25.790 -21.743   5.953  0.00  0.00    +0.059 C 
ENDROOT
BRANCH   1   2
ATOM      2  C   LIG    1       25.628 -23.356   5.921  0.00  0.00    -0.033 A 
ATOM      3  C   LIG    1       25.085 -24.049   4.813  0.00  0.00    +0.005 A 
ATOM      4  C   LIG    1       24.800 -25.426   4.837  0.00  0.00    +0.000 A 
ATOM      5  C   LIG    1       25.156 -26.210   5.922  0.00  0.00    +0.000 A 
ATOM      6  C   LIG    1       25.812 -25.613   6.969  0.00  0.00    +0.000 A 
ATOM      7  C   LIG    1       26.022 -24.232   6.950  0.00  0.00    +0.005 A 
ENDBRANCH   1   2
BRANCH   1   8
ATOM      8  C   LIG    1       27.191 -21.168   6.430  0.00  0.00    -0.033 A 
ATOM      9  C   LIG    1       27.716 -19.954   5.945  0.00  0.00    +0.005 A 
ATOM     10  C   LIG    1       28.937 -19.406   6.402  0.00  0.00    +0.000 A 
ATOM     11  C   LIG    1       29.687 -20.042   7.379  0.00  0.00    +0.000 A 
ATOM     12  C   LIG    1       29.219 -21.231   7.876  0.00  0.00    +0.000 A 
ATOM     13  C   LIG    1       28.034 -21.776   7.373  0.00  0.00    +0.005 A 
ENDBRANCH   1   8
BRANCH   1  14
ATOM     14  C   LIG    1       24.625 -21.320   7.084  0.00  0.00    +0.191 C 
BRANCH  14  16
ATOM     15  C   LIG    1       25.828 -20.516   9.256  0.00  0.00    +0.007 C 
ATOM     16  C   LIG    1       24.745 -20.270   8.212  0.00  0.00    +0.042 C 
ENDBRANCH  14  16
BRANCH  14  17
ATOM     17  O   LIG    1       23.768 -22.413   7.577  0.00  0.00    -0.460 OA
BRANCH  17  18
ATOM     18  C   LIG    1       22.700 -22.899   6.864  0.00  0.00    +0.304 C 
ATOM     19  O   LIG    1       22.282 -24.007   6.847  0.00  0.00    -0.251 OA
ATOM     20  C   LIG    1       22.099 -21.778   6.035  0.00  0.00    +0.136 C 
ENDBRANCH  17  18
ENDBRANCH  14  17
ENDBRANCH   1  14
BRANCH   1  21
ATOM     21  C   LIG    1       25.412 -21.033   4.514  0.00  0.00    +0.038 C 
BRANCH  21  22
ATOM     22  C   LIG    1       23.956 -20.561   4.008  0.00  0.00    +0.054 C 
ATOM     23  C   LIG    1       23.527 -21.361   2.722  0.00  0.00    +0.024 C 
BRANCH  22  24
ATOM     24  N   LIG    1       23.687 -19.150   3.611  0.00  0.00    -0.306 NA
ATOM     25  C   LIG    1       22.671 -18.481   4.374  0.00  0.00    +0.105 C 
ATOM     26  C   LIG    1       24.884 -18.309   3.600  0.00  0.00    +0.105 C 
ENDBRANCH  22  24
ENDBRANCH  21  22
ENDBRANCH   1  21
TORSDOF 9
ENDMDL
MODEL 8
REMARK VINA RESULT:      -5.3      8.274     10.946
REMARK  Name = *****
REMARK                            x       y       z     vdW  Elec       q    Type
REMARK                         _______ _______ _______ _____ _____    ______ ____
ROOT
ATOM      1  C   LIG    1       25.140 -28.946  13.345  0.00  0.00    +0.059 C 
ENDROOT
BRANCH   1   2
ATOM      2  C   LIG    1       25.451 -29.057  11.759  0.00  0.00    -0.033 A 
ATOM      3  C   LIG    1       26.513 -28.360  11.136  0.00  0.00    +0.005 A 
ATOM      4  C   LIG    1       26.695 -28.329   9.742  0.00  0.00    +0.000 A 
ATOM      5  C   LIG    1       25.902 -29.093   8.902  0.00  0.00    +0.000 A 
ATOM      6  C   LIG    1       24.943 -29.898   9.464  0.00  0.00    +0.000 A 
ATOM      7  C   LIG    1       24.738 -29.858  10.846  0.00  0.00    +0.005 A 
ENDBRANCH   1   2
BRANCH   1   8
ATOM      8  C   LIG    1       23.808 -28.193  13.769  0.00  0.00    -0.033 A 
ATOM      9  C   LIG    1       23.354 -28.149  15.102  0.00  0.00    +0.005 A 
ATOM     10  C   LIG    1       22.198 -27.437  15.499  0.00  0.00    +0.000 A 
ATOM     11  C   LIG    1       21.447 -26.722  14.580  0.00  0.00    +0.000 A 
ATOM     12  C   LIG    1       21.846 -26.742  13.269  0.00  0.00    +0.000 A 
ATOM     13  C   LIG    1       22.963 -27.493  12.894  0.00  0.00    +0.005 A 
ENDBRANCH   1   8
BRANCH   1  14
ATOM     14  C   LIG    1       26.454 -28.046  13.875  0.00  0.00    +0.191 C 
BRANCH  14  16
ATOM     15  C   LIG    1       28.643 -29.463  13.787  0.00  0.00    +0.007 C 
ATOM     16  C   LIG    1       27.719 -28.561  14.597  0.00  0.00    +0.042 C 
ENDBRANCH  14  16
BRANCH  14  17
ATOM     17  O   LIG    1       26.153 -26.701  14.398  0.00  0.00    -0.460 OA
BRANCH  17  18
ATOM     18  C   LIG    1       26.347 -25.558  13.664  0.00  0.00    +0.304 C 
ATOM     19  O   LIG    1       27.295 -25.259  13.021  0.00  0.00    -0.251 OA
ATOM     20  C   LIG    1       25.128 -24.662  13.800  0.00  0.00    +0.136 C 
ENDBRANCH  17  18
ENDBRANCH  14  17
ENDBRANCH   1  14
BRANCH   1  21
ATOM     21  C   LIG    1       25.161 -30.409  14.106  0.00  0.00    +0.038 C 
BRANCH  21  22
ATOM     22  C   LIG    1       24.140 -31.638  13.891  0.00  0.00    +0.054 C 
ATOM     23  C   LIG    1       24.793 -32.755  12.996  0.00  0.00    +0.024 C 
BRANCH  22  24
ATOM     24  N   LIG    1       22.811 -31.445  13.242  0.00  0.00    -0.306 NA
ATOM     25  C   LIG    1       22.442 -32.453  12.288  0.00  0.00    +0.105 C 
ATOM     26  C   LIG    1       21.714 -31.290  14.197  0.00  0.00    +0.105 C 
ENDBRANCH  22  24
ENDBRANCH  21  22
ENDBRANCH   1  21
TORSDOF 9
ENDMDL
MODEL 9
REMARK VINA RESULT:      -5.2      8.607     11.620
REMARK  Name = *****
REMARK                            x       y       z     vdW  Elec       q    Type
REMARK                         _______ _______ _______ _____ _____    ______ ____
ROOT
ATOM      1  C   LIG    1       24.912 -29.374  12.829  0.00  0.00    +0.059 C 
ENDROOT
BRANCH   1   2
ATOM      2  C   LIG    1       24.900 -30.842  13.517  0.00  0.00    -0.033 A 
ATOM      3  C   LIG    1       24.409 -31.072  14.824  0.00  0.00    +0.005 A 
ATOM      4  C   LIG    1       24.536 -32.307  15.483  0.00  0.00    +0.000 A 
ATOM      5  C   LIG    1       25.048 -33.415  14.829  0.00  0.00    +0.000 A 
ATOM      6  C   LIG    1       25.413 -33.285  13.513  0.00  0.00    +0.000 A 
ATOM      7  C   LIG    1       25.341 -32.030  12.902  0.00  0.00    +0.005 A 
ENDBRANCH   1   2
BRANCH   1   8
ATOM      8  C   LIG    1       23.588 -28.507  12.957  0.00  0.00    -0.033 A 
ATOM      9  C   LIG    1       23.611 -27.130  13.251  0.00  0.00    +0.005 A 
ATOM     10  C   LIG    1       22.441 -26.336  13.315  0.00  0.00    +0.000 A 
ATOM     11  C   LIG    1       21.191 -26.883  13.074  0.00  0.00    +0.000 A 
ATOM     12  C   LIG    1       21.118 -28.222  12.791  0.00  0.00    +0.000 A 
ATOM     13  C   LIG    1       22.283 -28.994  12.782  0.00  0.00    +0.005 A 
ENDBRANCH   1   8
BRANCH   1  14
ATOM     14  C   LIG    1       25.135 -29.771  11.214  0.00  0.00    +0.191 C 
BRANCH  14  16
ATOM     15  C   LIG    1       26.563 -28.457   9.469  0.00  0.00    +0.007 C 
ATOM     16  C   LIG    1       26.438 -29.666  10.389  0.00  0.00    +0.042 C 
ENDBRANCH  14  16
BRANCH  14  17
ATOM     17  O   LIG    1       24.007 -29.484  10.310  0.00  0.00    -0.460 OA
BRANCH  17  18
ATOM     18  C   LIG    1       23.522 -30.402   9.412  0.00  0.00    +0.304 C 
ATOM     19  O   LIG    1       23.570 -30.357   8.230  0.00  0.00    -0.251 OA
ATOM     20  C   LIG    1       22.861 -31.542  10.167  0.00  0.00    +0.136 C 
ENDBRANCH  17  18
ENDBRANCH  14  17
ENDBRANCH   1  14
BRANCH   1  21
ATOM     21  C   LIG    1       26.179 -28.444  13.325  0.00  0.00    +0.038 C 
BRANCH  21  22
ATOM     22  C   LIG    1       27.055 -28.619  14.666  0.00  0.00    +0.054 C 
ATOM     23  C   LIG    1       27.593 -27.226  15.167  0.00  0.00    +0.024 C 
BRANCH  22  24
ATOM     24  N   LIG    1       28.283 -29.463  14.692  0.00  0.00    -0.306 NA
ATOM     25  C   LIG    1       28.119 -30.767  15.271  0.00  0.00    +0.105 C 
ATOM     26  C   LIG    1       28.912 -29.617  13.381  0.00  0.00    +0.105 C 
ENDBRANCH  22  24
ENDBRANCH  21  22
ENDBRANCH   1  21
TORSDOF 9
ENDMDL
