MODEL 1
REMARK VINA RESULT:      -3.2      0.000      0.000
REMARK  Name = *****
REMARK                            x       y       z     vdW  Elec       q    Type
REMARK                         _______ _______ _______ _____ _____    ______ ____
ROOT
ATOM      1  I   LIG    1       23.356 -20.965   6.127  0.00  0.00    -0.059 I 
ATOM      2  C   LIG    1       24.439 -22.100   7.539  0.00  0.00    +0.177 C 
ATOM      3  I   LIG    1       26.081 -20.930   8.167  0.00  0.00    -0.059 I 
ATOM      4  I   LIG    1       25.210 -23.791   6.539  0.00  0.00    -0.059 I 
ENDROOT
TORSDOF 0
ENDMDL
MODEL 2
REMARK VINA RESULT:      -3.1      0.068      2.938
REMARK  Name = *****
REMARK                            x       y       z     vdW  Elec       q    Type
REMARK                         _______ _______ _______ _____ _____    ______ ____
ROOT
ATOM      1  I   LIG    1       25.157 -23.776   6.516  0.00  0.00    -0.059 I 
ATOM      2  C   LIG    1       24.399 -22.068   7.499  0.00  0.00    +0.177 C 
ATOM      3  I   LIG    1       23.386 -20.904   6.057  0.00  0.00    -0.059 I 
ATOM      4  I   LIG    1       26.050 -20.942   8.180  0.00  0.00    -0.059 I 
ENDROOT
TORSDOF 0
ENDMDL
MODEL 3
REMARK VINA RESULT:      -3.1      0.068      2.965
REMARK  Name = *****
REMARK                            x       y       z     vdW  Elec       q    Type
REMARK                         _______ _______ _______ _____ _____    ______ ____
ROOT
ATOM      1  I   LIG    1       26.153 -20.913   8.156  0.00  0.00    -0.059 I 
ATOM      2  C   LIG    1       24.475 -22.049   7.564  0.00  0.00    +0.177 C 
ATOM      3  I   LIG    1       25.192 -23.762   6.559  0.00  0.00    -0.059 I 
ATOM      4  I   LIG    1       23.391 -20.899   6.165  0.00  0.00    -0.059 I 
ENDROOT
TORSDOF 0
ENDMDL
MODEL 4
REMARK VINA RESULT:      -3.1      0.765      2.527
REMARK  Name = *****
REMARK                            x       y       z     vdW  Elec       q    Type
REMARK                         _______ _______ _______ _____ _____    ______ ____
ROOT
ATOM      1  I   LIG    1       23.357 -20.994   6.141  0.00  0.00    -0.059 I 
ATOM      2  C   LIG    1       25.331 -21.710   6.360  0.00  0.00    +0.177 C 
ATOM      3  I   LIG    1       25.225 -23.808   6.567  0.00  0.00    -0.059 I 
ATOM      4  I   LIG    1       26.092 -20.931   8.169  0.00  0.00    -0.059 I 
ENDROOT
TORSDOF 0
ENDMDL
MODEL 5
REMARK VINA RESULT:      -3.1      0.773      2.529
REMARK  Name = *****
REMARK                            x       y       z     vdW  Elec       q    Type
REMARK                         _______ _______ _______ _____ _____    ______ ____
ROOT
ATOM      1  I   LIG    1       25.173 -23.804   6.517  0.00  0.00    -0.059 I 
ATOM      2  C   LIG    1       25.334 -21.706   6.345  0.00  0.00    +0.177 C 
ATOM      3  I   LIG    1       26.082 -20.975   8.178  0.00  0.00    -0.059 I 
ATOM      4  I   LIG    1       23.383 -20.937   6.103  0.00  0.00    -0.059 I 
ENDROOT
TORSDOF 0
ENDMDL
MODEL 6
REMARK VINA RESULT:      -3.1      0.773      2.528
REMARK  Name = *****
REMARK                            x       y       z     vdW  Elec       q    Type
REMARK                         _______ _______ _______ _____ _____    ______ ____
ROOT
ATOM      1  I   LIG    1       26.159 -20.957   8.173  0.00  0.00    -0.059 I 
ATOM      2  C   LIG    1       25.361 -21.707   6.368  0.00  0.00    +0.177 C 
ATOM      3  I   LIG    1       23.399 -20.951   6.179  0.00  0.00    -0.059 I 
ATOM      4  I   LIG    1       25.217 -23.805   6.560  0.00  0.00    -0.059 I 
ENDROOT
TORSDOF 0
ENDMDL
MODEL 7
REMARK VINA RESULT:      -2.8      1.883      2.734
REMARK  Name = *****
REMARK                            x       y       z     vdW  Elec       q    Type
REMARK                         _______ _______ _______ _____ _____    ______ ____
ROOT
ATOM      1  I   LIG    1       24.631 -20.293   4.265  0.00  0.00    -0.059 I 
ATOM      2  C   LIG    1       25.188 -21.667   5.769  0.00  0.00    +0.177 C 
ATOM      3  I   LIG    1       23.515 -21.942   7.027  0.00  0.00    -0.059 I 
ATOM      4  I   LIG    1       26.709 -20.764   6.922  0.00  0.00    -0.059 I 
ENDROOT
TORSDOF 0
ENDMDL
MODEL 8
REMARK VINA RESULT:      -2.8      1.887      3.171
REMARK  Name = *****
REMARK                            x       y       z     vdW  Elec       q    Type
REMARK                         _______ _______ _______ _____ _____    ______ ____
ROOT
ATOM      1  I   LIG    1       26.683 -20.798   6.918  0.00  0.00    -0.059 I 
ATOM      2  C   LIG    1       25.157 -21.673   5.751  0.00  0.00    +0.177 C 
ATOM      3  I   LIG    1       24.635 -20.286   4.247  0.00  0.00    -0.059 I 
ATOM      4  I   LIG    1       23.471 -21.926   6.995  0.00  0.00    -0.059 I 
ENDROOT
TORSDOF 0
ENDMDL
MODEL 9
REMARK VINA RESULT:      -2.8      1.664      2.775
REMARK  Name = *****
REMARK                            x       y       z     vdW  Elec       q    Type
REMARK                         _______ _______ _______ _____ _____    ______ ____
ROOT
ATOM      1  I   LIG    1       23.438 -22.582   6.764  0.00  0.00    -0.059 I 
ATOM      2  C   LIG    1       24.426 -20.721   6.642  0.00  0.00    +0.177 C 
ATOM      3  I   LIG    1       24.973 -20.425   4.624  0.00  0.00    -0.059 I 
ATOM      4  I   LIG    1       26.206 -20.871   7.767  0.00  0.00    -0.059 I 
ENDROOT
TORSDOF 0
ENDMDL
