MODEL 1
REMARK VINA RESULT:      -6.0      0.000      0.000
REMARK  Name = *****
REMARK                            x       y       z     vdW  Elec       q    Type
REMARK                         _______ _______ _______ _____ _____    ______ ____
ROOT
ATOM      1  O   LIG    1       26.120 -17.499   3.130  0.00  0.00    -0.286 OA
ATOM      2  C   LIG    1       25.212 -16.752   3.477  0.00  0.00    +0.200 C 
ATOM      3  C   LIG    1       23.913 -17.251   4.015  0.00  0.00    +0.064 C 
ATOM      4  C   LIG    1       23.010 -16.326   4.375  0.00  0.00    +0.208 C 
ATOM      5  O   LIG    1       23.142 -14.961   4.285  0.00  0.00    -0.462 OA
ATOM      6  C   LIG    1       24.319 -14.469   3.783  0.00  0.00    +0.138 A 
ATOM      7  C   LIG    1       24.443 -13.082   3.694  0.00  0.00    +0.047 A 
ATOM      8  C   LIG    1       25.619 -12.520   3.192  0.00  0.00    +0.004 A 
ATOM      9  C   LIG    1       26.669 -13.342   2.781  0.00  0.00    +0.001 A 
ATOM     10  C   LIG    1       26.546 -14.730   2.871  0.00  0.00    +0.015 A 
ATOM     11  C   LIG    1       25.366 -15.290   3.373  0.00  0.00    +0.065 A 
ENDROOT
BRANCH   3  12
ATOM     12  C   LIG    1       23.626 -18.688   4.188  0.00  0.00    -0.011 A 
ATOM     13  C   LIG    1       22.495 -19.118   4.902  0.00  0.00    +0.009 A 
ATOM     14  C   LIG    1       22.232 -20.480   5.070  0.00  0.00    +0.001 A 
ATOM     15  C   LIG    1       23.094 -21.429   4.525  0.00  0.00    +0.000 A 
ATOM     16  C   LIG    1       24.215 -21.018   3.807  0.00  0.00    +0.001 A 
ATOM     17  C   LIG    1       24.478 -19.657   3.639  0.00  0.00    +0.009 A 
ENDBRANCH   3  12
TORSDOF 1
ENDMDL
MODEL 2
REMARK VINA RESULT:      -5.9      0.889      5.846
REMARK  Name = *****
REMARK                            x       y       z     vdW  Elec       q    Type
REMARK                         _______ _______ _______ _____ _____    ______ ____
ROOT
ATOM      1  O   LIG    1       26.010 -17.600   3.081  0.00  0.00    -0.286 OA
ATOM      2  C   LIG    1       24.892 -17.540   3.580  0.00  0.00    +0.200 C 
ATOM      3  C   LIG    1       24.186 -16.250   3.834  0.00  0.00    +0.064 C 
ATOM      4  C   LIG    1       22.957 -16.325   4.369  0.00  0.00    +0.208 C 
ATOM      5  O   LIG    1       22.280 -17.466   4.729  0.00  0.00    -0.462 OA
ATOM      6  C   LIG    1       22.905 -18.668   4.521  0.00  0.00    +0.138 A 
ATOM      7  C   LIG    1       22.210 -19.820   4.892  0.00  0.00    +0.047 A 
ATOM      8  C   LIG    1       22.794 -21.075   4.703  0.00  0.00    +0.004 A 
ATOM      9  C   LIG    1       24.068 -21.178   4.145  0.00  0.00    +0.001 A 
ATOM     10  C   LIG    1       24.764 -20.026   3.773  0.00  0.00    +0.015 A 
ATOM     11  C   LIG    1       24.177 -18.770   3.964  0.00  0.00    +0.065 A 
ENDROOT
BRANCH   3  12
ATOM     12  C   LIG    1       24.774 -14.942   3.486  0.00  0.00    -0.011 A 
ATOM     13  C   LIG    1       23.988 -13.779   3.464  0.00  0.00    +0.009 A 
ATOM     14  C   LIG    1       24.548 -12.544   3.125  0.00  0.00    +0.001 A 
ATOM     15  C   LIG    1       25.901 -12.456   2.809  0.00  0.00    +0.000 A 
ATOM     16  C   LIG    1       26.696 -13.599   2.835  0.00  0.00    +0.001 A 
ATOM     17  C   LIG    1       26.136 -14.834   3.172  0.00  0.00    +0.009 A 
ENDBRANCH   3  12
TORSDOF 1
ENDMDL
MODEL 3
REMARK VINA RESULT:      -5.9      0.756      2.012
REMARK  Name = *****
REMARK                            x       y       z     vdW  Elec       q    Type
REMARK                         _______ _______ _______ _____ _____    ______ ____
ROOT
ATOM      1  O   LIG    1       22.746 -16.173   4.537  0.00  0.00    -0.286 OA
ATOM      2  C   LIG    1       23.876 -16.251   4.067  0.00  0.00    +0.200 C 
ATOM      3  C   LIG    1       24.581 -17.550   3.863  0.00  0.00    +0.064 C 
ATOM      4  C   LIG    1       25.808 -17.497   3.322  0.00  0.00    +0.208 C 
ATOM      5  O   LIG    1       26.499 -16.369   2.948  0.00  0.00    -0.462 OA
ATOM      6  C   LIG    1       25.885 -15.157   3.133  0.00  0.00    +0.138 A 
ATOM      7  C   LIG    1       26.596 -14.018   2.753  0.00  0.00    +0.047 A 
ATOM      8  C   LIG    1       26.023 -12.755   2.914  0.00  0.00    +0.004 A 
ATOM      9  C   LIG    1       24.742 -12.630   3.455  0.00  0.00    +0.001 A 
ATOM     10  C   LIG    1       24.030 -13.769   3.835  0.00  0.00    +0.015 A 
ATOM     11  C   LIG    1       24.607 -15.034   3.672  0.00  0.00    +0.065 A 
ENDROOT
BRANCH   3  12
ATOM     12  C   LIG    1       23.964 -18.848   4.199  0.00  0.00    -0.011 A 
ATOM     13  C   LIG    1       22.602 -18.936   4.531  0.00  0.00    +0.009 A 
ATOM     14  C   LIG    1       22.025 -20.167   4.857  0.00  0.00    +0.001 A 
ATOM     15  C   LIG    1       22.800 -21.324   4.852  0.00  0.00    +0.000 A 
ATOM     16  C   LIG    1       24.151 -21.253   4.517  0.00  0.00    +0.001 A 
ATOM     17  C   LIG    1       24.728 -20.023   4.192  0.00  0.00    +0.009 A 
ENDBRANCH   3  12
TORSDOF 1
ENDMDL
MODEL 4
REMARK VINA RESULT:      -5.6      0.673      6.179
REMARK  Name = *****
REMARK                            x       y       z     vdW  Elec       q    Type
REMARK                         _______ _______ _______ _____ _____    ______ ____
ROOT
ATOM      1  O   LIG    1       22.699 -16.527   4.449  0.00  0.00    -0.286 OA
ATOM      2  C   LIG    1       23.622 -17.277   4.151  0.00  0.00    +0.200 C 
ATOM      3  C   LIG    1       24.926 -16.784   3.618  0.00  0.00    +0.064 C 
ATOM      4  C   LIG    1       25.860 -17.709   3.348  0.00  0.00    +0.208 C 
ATOM      5  O   LIG    1       25.742 -19.071   3.492  0.00  0.00    -0.462 OA
ATOM      6  C   LIG    1       24.553 -19.558   3.967  0.00  0.00    +0.138 A 
ATOM      7  C   LIG    1       24.442 -20.942   4.108  0.00  0.00    +0.047 A 
ATOM      8  C   LIG    1       23.255 -21.500   4.589  0.00  0.00    +0.004 A 
ATOM      9  C   LIG    1       22.182 -20.676   4.930  0.00  0.00    +0.001 A 
ATOM     10  C   LIG    1       22.292 -19.291   4.791  0.00  0.00    +0.015 A 
ATOM     11  C   LIG    1       23.482 -18.735   4.308  0.00  0.00    +0.065 A 
ENDROOT
BRANCH   3  12
ATOM     12  C   LIG    1       25.212 -15.349   3.423  0.00  0.00    -0.011 A 
ATOM     13  C   LIG    1       24.254 -14.372   3.742  0.00  0.00    +0.009 A 
ATOM     14  C   LIG    1       24.526 -13.015   3.547  0.00  0.00    +0.001 A 
ATOM     15  C   LIG    1       25.759 -12.618   3.036  0.00  0.00    +0.000 A 
ATOM     16  C   LIG    1       26.722 -13.575   2.723  0.00  0.00    +0.001 A 
ATOM     17  C   LIG    1       26.450 -14.931   2.916  0.00  0.00    +0.009 A 
ENDBRANCH   3  12
TORSDOF 1
ENDMDL
MODEL 5
REMARK VINA RESULT:      -5.5      0.676      6.286
REMARK  Name = *****
REMARK                            x       y       z     vdW  Elec       q    Type
REMARK                         _______ _______ _______ _____ _____    ______ ____
ROOT
ATOM      1  O   LIG    1       22.705 -16.535   4.448  0.00  0.00    -0.286 OA
ATOM      2  C   LIG    1       23.627 -17.285   4.149  0.00  0.00    +0.200 C 
ATOM      3  C   LIG    1       24.930 -16.794   3.613  0.00  0.00    +0.064 C 
ATOM      4  C   LIG    1       25.863 -17.720   3.342  0.00  0.00    +0.208 C 
ATOM      5  O   LIG    1       25.744 -19.081   3.488  0.00  0.00    -0.462 OA
ATOM      6  C   LIG    1       24.555 -19.568   3.966  0.00  0.00    +0.138 A 
ATOM      7  C   LIG    1       24.444 -20.951   4.108  0.00  0.00    +0.047 A 
ATOM      8  C   LIG    1       23.257 -21.507   4.593  0.00  0.00    +0.004 A 
ATOM      9  C   LIG    1       22.186 -20.682   4.935  0.00  0.00    +0.001 A 
ATOM     10  C   LIG    1       22.297 -19.298   4.794  0.00  0.00    +0.015 A 
ATOM     11  C   LIG    1       23.486 -18.744   4.308  0.00  0.00    +0.065 A 
ENDROOT
BRANCH   3  12
ATOM     12  C   LIG    1       25.216 -15.360   3.416  0.00  0.00    -0.011 A 
ATOM     13  C   LIG    1       26.455 -14.933   2.910  0.00  0.00    +0.009 A 
ATOM     14  C   LIG    1       26.725 -13.573   2.734  0.00  0.00    +0.001 A 
ATOM     15  C   LIG    1       25.759 -12.624   3.059  0.00  0.00    +0.000 A 
ATOM     16  C   LIG    1       24.523 -13.032   3.554  0.00  0.00    +0.001 A 
ATOM     17  C   LIG    1       24.253 -14.391   3.731  0.00  0.00    +0.009 A 
ENDBRANCH   3  12
TORSDOF 1
ENDMDL
