MODEL 1
REMARK VINA RESULT:      -5.8      0.000      0.000
REMARK  Name = *****
REMARK                            x       y       z     vdW  Elec       q    Type
REMARK                         _______ _______ _______ _____ _____    ______ ____
ROOT
ATOM      1  O   LIG    1       26.599 -18.372   3.853  0.00  0.00    -0.489 OA
ENDROOT
BRANCH   1   2
ATOM      2  C   LIG    1       26.740 -19.350   4.820  0.00  0.00    +0.124 A 
ATOM      3  C   LIG    1       25.648 -20.212   5.104  0.00  0.00    -0.003 A 
ATOM      4  C   LIG    1       25.815 -21.147   6.137  0.00  0.00    +0.007 A 
ATOM      5  C   LIG    1       26.983 -21.249   6.887  0.00  0.00    +0.001 A 
ATOM      6  C   LIG    1       28.061 -20.441   6.568  0.00  0.00    +0.004 A 
ATOM      7  C   LIG    1       27.943 -19.527   5.533  0.00  0.00    +0.046 A 
BRANCH   3   8
ATOM      8  C   LIG    1       24.311 -20.179   4.347  0.00  0.00    +0.023 C 
ATOM      9  C   LIG    1       23.138 -20.809   5.144  0.00  0.00    +0.008 C 
ATOM     10  C   LIG    1       21.891 -20.073   4.663  0.00  0.00    +0.001 C 
ATOM     11  C   LIG    1       22.367 -18.638   4.564  0.00  0.00    +0.001 C 
ATOM     12  C   LIG    1       23.769 -18.760   3.967  0.00  0.00    +0.008 C 
ENDBRANCH   3   8
ENDBRANCH   1   2
BRANCH   1  13
ATOM     13  C   LIG    1       27.638 -17.350   3.887  0.00  0.00    +0.261 C 
BRANCH  13  14
ATOM     14  C   LIG    1       27.099 -15.930   4.115  0.00  0.00    +0.166 C 
BRANCH  14  15
ATOM     15  O   LIG    1       28.141 -14.968   3.929  0.00  0.00    -0.387 OA
ATOM     16  H   LIG    1       28.370 -14.648   4.824  0.00  0.00    +0.210 HD
ENDBRANCH  14  15
BRANCH  14  17
ATOM     17  C   LIG    1       25.911 -15.633   3.195  0.00  0.00    +0.116 C 
BRANCH  17  18
ATOM     18  N   LIG    1       25.785 -14.188   2.921  0.00  0.00    -0.309 NA
ATOM     19  H   LIG    1       26.689 -13.736   3.070  0.00  0.00    +0.122 HD
BRANCH  18  21
ATOM     20  C   LIG    1       23.713 -14.560   4.165  0.00  0.00    +0.027 C 
ATOM     21  C   LIG    1       24.765 -13.511   3.754  0.00  0.00    +0.011 C 
ATOM     22  C   LIG    1       25.396 -12.930   5.030  0.00  0.00    +0.027 C 
ATOM     23  C   LIG    1       24.045 -12.401   2.969  0.00  0.00    +0.027 C 
ENDBRANCH  18  21
ENDBRANCH  17  18
ENDBRANCH  14  17
ENDBRANCH  13  14
ENDBRANCH   1  13
TORSDOF 8
ENDMDL
MODEL 2
REMARK VINA RESULT:      -5.6      0.983      3.507
REMARK  Name = *****
REMARK                            x       y       z     vdW  Elec       q    Type
REMARK                         _______ _______ _______ _____ _____    ______ ____
ROOT
ATOM      1  O   LIG    1       25.612 -18.392   3.397  0.00  0.00    -0.489 OA
ENDROOT
BRANCH   1   2
ATOM      2  C   LIG    1       24.553 -18.988   4.056  0.00  0.00    +0.124 A 
ATOM      3  C   LIG    1       24.799 -20.092   4.914  0.00  0.00    -0.003 A 
ATOM      4  C   LIG    1       23.687 -20.705   5.512  0.00  0.00    +0.007 A 
ATOM      5  C   LIG    1       22.378 -20.287   5.289  0.00  0.00    +0.001 A 
ATOM      6  C   LIG    1       22.152 -19.177   4.494  0.00  0.00    +0.004 A 
ATOM      7  C   LIG    1       23.229 -18.527   3.911  0.00  0.00    +0.046 A 
BRANCH   3   8
ATOM      8  C   LIG    1       26.200 -20.643   5.222  0.00  0.00    +0.023 C 
ATOM      9  C   LIG    1       27.345 -19.705   4.756  0.00  0.00    +0.008 C 
ATOM     10  C   LIG    1       28.495 -19.971   5.723  0.00  0.00    +0.001 C 
ATOM     11  C   LIG    1       27.788 -20.088   7.058  0.00  0.00    +0.001 C 
ATOM     12  C   LIG    1       26.527 -20.889   6.733  0.00  0.00    +0.008 C 
ENDBRANCH   3   8
ENDBRANCH   1   2
BRANCH   1  13
ATOM     13  C   LIG    1       25.459 -16.955   3.208  0.00  0.00    +0.261 C 
BRANCH  13  14
ATOM     14  C   LIG    1       26.605 -16.128   3.811  0.00  0.00    +0.166 C 
BRANCH  14  15
ATOM     15  O   LIG    1       27.865 -16.741   3.524  0.00  0.00    -0.387 OA
ATOM     16  H   LIG    1       28.198 -17.077   4.379  0.00  0.00    +0.210 HD
ENDBRANCH  14  15
BRANCH  14  17
ATOM     17  C   LIG    1       26.572 -14.683   3.302  0.00  0.00    +0.116 C 
BRANCH  17  18
ATOM     18  N   LIG    1       25.865 -13.793   4.244  0.00  0.00    -0.309 NA
ATOM     19  H   LIG    1       25.739 -14.276   5.136  0.00  0.00    +0.122 HD
BRANCH  18  21
ATOM     20  C   LIG    1       24.657 -13.097   2.235  0.00  0.00    +0.027 C 
ATOM     21  C   LIG    1       24.544 -13.336   3.754  0.00  0.00    +0.011 C 
ATOM     22  C   LIG    1       23.467 -14.407   3.999  0.00  0.00    +0.027 C 
ATOM     23  C   LIG    1       24.129 -12.009   4.412  0.00  0.00    +0.027 C 
ENDBRANCH  18  21
ENDBRANCH  17  18
ENDBRANCH  14  17
ENDBRANCH  13  14
ENDBRANCH   1  13
TORSDOF 8
ENDMDL
MODEL 3
REMARK VINA RESULT:      -5.5      1.790      2.319
REMARK  Name = *****
REMARK                            x       y       z     vdW  Elec       q    Type
REMARK                         _______ _______ _______ _____ _____    ______ ____
ROOT
ATOM      1  O   LIG    1       26.095 -19.242   4.347  0.00  0.00    -0.489 OA
ENDROOT
BRANCH   1   2
ATOM      2  C   LIG    1       27.041 -19.763   5.209  0.00  0.00    +0.124 A 
ATOM      3  C   LIG    1       26.681 -20.822   6.084  0.00  0.00    -0.003 A 
ATOM      4  C   LIG    1       27.656 -21.276   6.985  0.00  0.00    +0.007 A 
ATOM      5  C   LIG    1       28.933 -20.728   7.061  0.00  0.00    +0.001 A 
ATOM      6  C   LIG    1       29.293 -19.732   6.170  0.00  0.00    +0.004 A 
ATOM      7  C   LIG    1       28.365 -19.280   5.243  0.00  0.00    +0.046 A 
BRANCH   3   8
ATOM      8  C   LIG    1       25.298 -21.492   6.092  0.00  0.00    +0.023 C 
ATOM      9  C   LIG    1       24.286 -20.803   7.047  0.00  0.00    +0.008 C 
ATOM     10  C   LIG    1       22.917 -21.053   6.422  0.00  0.00    +0.001 C 
ATOM     11  C   LIG    1       23.183 -20.853   4.944  0.00  0.00    +0.001 C 
ATOM     12  C   LIG    1       24.539 -21.525   4.724  0.00  0.00    +0.008 C 
ENDBRANCH   3   8
ENDBRANCH   1   2
BRANCH   1  13
ATOM     13  C   LIG    1       26.457 -17.950   3.779  0.00  0.00    +0.261 C 
BRANCH  13  14
ATOM     14  C   LIG    1       25.261 -17.165   3.218  0.00  0.00    +0.166 C 
BRANCH  14  15
ATOM     15  O   LIG    1       24.041 -17.639   3.795  0.00  0.00    -0.387 OA
ATOM     16  H   LIG    1       23.327 -17.136   3.358  0.00  0.00    +0.210 HD
ENDBRANCH  14  15
BRANCH  14  17
ATOM     17  C   LIG    1       25.428 -15.661   3.451  0.00  0.00    +0.116 C 
BRANCH  17  18
ATOM     18  N   LIG    1       26.850 -15.287   3.584  0.00  0.00    -0.309 NA
ATOM     19  H   LIG    1       27.266 -15.810   4.357  0.00  0.00    +0.122 HD
BRANCH  18  21
ATOM     20  C   LIG    1       26.593 -13.506   5.238  0.00  0.00    +0.027 C 
ATOM     21  C   LIG    1       27.067 -13.840   3.810  0.00  0.00    +0.011 C 
ATOM     22  C   LIG    1       28.559 -13.484   3.697  0.00  0.00    +0.027 C 
ATOM     23  C   LIG    1       26.246 -12.987   2.827  0.00  0.00    +0.027 C 
ENDBRANCH  18  21
ENDBRANCH  17  18
ENDBRANCH  14  17
ENDBRANCH  13  14
ENDBRANCH   1  13
TORSDOF 8
ENDMDL
MODEL 4
REMARK VINA RESULT:      -4.9      2.270      6.753
REMARK  Name = *****
REMARK                            x       y       z     vdW  Elec       q    Type
REMARK                         _______ _______ _______ _____ _____    ______ ____
ROOT
ATOM      1  O   LIG    1       26.153 -16.779   3.381  0.00  0.00    -0.489 OA
ENDROOT
BRANCH   1   2
ATOM      2  C   LIG    1       25.344 -15.715   3.730  0.00  0.00    +0.124 A 
ATOM      3  C   LIG    1       25.937 -14.504   4.174  0.00  0.00    -0.003 A 
ATOM      4  C   LIG    1       25.075 -13.472   4.578  0.00  0.00    +0.007 A 
ATOM      5  C   LIG    1       23.689 -13.595   4.572  0.00  0.00    +0.001 A 
ATOM      6  C   LIG    1       23.118 -14.760   4.088  0.00  0.00    +0.004 A 
ATOM      7  C   LIG    1       23.938 -15.788   3.650  0.00  0.00    +0.046 A 
BRANCH   3   8
ATOM      8  C   LIG    1       27.454 -14.264   4.231  0.00  0.00    +0.023 C 
ATOM      9  C   LIG    1       28.003 -13.499   2.997  0.00  0.00    +0.008 C 
ATOM     10  C   LIG    1       29.217 -12.732   3.513  0.00  0.00    +0.001 C 
ATOM     11  C   LIG    1       28.748 -12.232   4.863  0.00  0.00    +0.001 C 
ATOM     12  C   LIG    1       27.973 -13.417   5.441  0.00  0.00    +0.008 C 
ENDBRANCH   3   8
ENDBRANCH   1   2
BRANCH   1  13
ATOM     13  C   LIG    1       25.455 -18.056   3.307  0.00  0.00    +0.261 C 
BRANCH  13  14
ATOM     14  C   LIG    1       26.255 -19.232   3.887  0.00  0.00    +0.166 C 
BRANCH  14  15
ATOM     15  O   LIG    1       27.411 -18.753   4.580  0.00  0.00    -0.387 OA
ATOM     16  H   LIG    1       28.165 -19.261   4.224  0.00  0.00    +0.210 HD
ENDBRANCH  14  15
BRANCH  14  17
ATOM     17  C   LIG    1       25.386 -20.095   4.806  0.00  0.00    +0.116 C 
BRANCH  17  18
ATOM     18  N   LIG    1       24.077 -20.392   4.192  0.00  0.00    -0.309 NA
ATOM     19  H   LIG    1       23.952 -19.807   3.363  0.00  0.00    +0.122 HD
BRANCH  18  21
ATOM     20  C   LIG    1       21.865 -21.253   4.779  0.00  0.00    +0.027 C 
ATOM     21  C   LIG    1       22.929 -20.186   5.104  0.00  0.00    +0.011 C 
ATOM     22  C   LIG    1       23.356 -20.357   6.572  0.00  0.00    +0.027 C 
ATOM     23  C   LIG    1       22.289 -18.802   4.899  0.00  0.00    +0.027 C 
ENDBRANCH  18  21
ENDBRANCH  17  18
ENDBRANCH  14  17
ENDBRANCH  13  14
ENDBRANCH   1  13
TORSDOF 8
ENDMDL
MODEL 5
REMARK VINA RESULT:      -4.2      1.499      1.968
REMARK  Name = *****
REMARK                            x       y       z     vdW  Elec       q    Type
REMARK                         _______ _______ _______ _____ _____    ______ ____
ROOT
ATOM      1  O   LIG    1       26.126 -18.923   3.831  0.00  0.00    -0.489 OA
ENDROOT
BRANCH   1   2
ATOM      2  C   LIG    1       26.278 -19.828   4.865  0.00  0.00    +0.124 A 
ATOM      3  C   LIG    1       25.195 -20.677   5.214  0.00  0.00    -0.003 A 
ATOM      4  C   LIG    1       25.373 -21.534   6.311  0.00  0.00    +0.007 A 
ATOM      5  C   LIG    1       26.544 -21.572   7.062  0.00  0.00    +0.001 A 
ATOM      6  C   LIG    1       27.613 -20.779   6.683  0.00  0.00    +0.004 A 
ATOM      7  C   LIG    1       27.485 -19.943   5.585  0.00  0.00    +0.046 A 
BRANCH   3   8
ATOM      8  C   LIG    1       23.856 -20.709   4.461  0.00  0.00    +0.023 C 
ATOM      9  C   LIG    1       22.661 -21.149   5.349  0.00  0.00    +0.008 C 
ATOM     10  C   LIG    1       21.444 -20.448   4.754  0.00  0.00    +0.001 C 
ATOM     11  C   LIG    1       21.981 -19.071   4.422  0.00  0.00    +0.001 C 
ATOM     12  C   LIG    1       23.373 -19.350   3.853  0.00  0.00    +0.008 C 
ENDBRANCH   3   8
ENDBRANCH   1   2
BRANCH   1  13
ATOM     13  C   LIG    1       27.239 -17.993   3.688  0.00  0.00    +0.261 C 
BRANCH  13  14
ATOM     14  C   LIG    1       26.805 -16.556   3.364  0.00  0.00    +0.166 C 
BRANCH  14  15
ATOM     15  O   LIG    1       25.398 -16.403   3.575  0.00  0.00    -0.387 OA
ATOM     16  H   LIG    1       25.263 -16.485   4.539  0.00  0.00    +0.210 HD
ENDBRANCH  14  15
BRANCH  14  17
ATOM     17  C   LIG    1       27.595 -15.538   4.192  0.00  0.00    +0.116 C 
BRANCH  17  18
ATOM     18  N   LIG    1       27.946 -14.346   3.395  0.00  0.00    -0.309 NA
ATOM     19  H   LIG    1       28.963 -14.292   3.300  0.00  0.00    +0.122 HD
BRANCH  18  21
ATOM     20  C   LIG    1       28.668 -12.229   4.381  0.00  0.00    +0.027 C 
ATOM     21  C   LIG    1       27.448 -13.076   3.969  0.00  0.00    +0.011 C 
ATOM     22  C   LIG    1       26.635 -12.285   2.931  0.00  0.00    +0.027 C 
ATOM     23  C   LIG    1       26.598 -13.324   5.228  0.00  0.00    +0.027 C 
ENDBRANCH  18  21
ENDBRANCH  17  18
ENDBRANCH  14  17
ENDBRANCH  13  14
ENDBRANCH   1  13
TORSDOF 8
ENDMDL
MODEL 6
REMARK VINA RESULT:      -4.0      1.676      2.273
REMARK  Name = *****
REMARK                            x       y       z     vdW  Elec       q    Type
REMARK                         _______ _______ _______ _____ _____    ______ ____
ROOT
ATOM      1  O   LIG    1       25.000 -18.774   4.038  0.00  0.00    -0.489 OA
ENDROOT
BRANCH   1   2
ATOM      2  C   LIG    1       25.393 -19.681   5.004  0.00  0.00    +0.124 A 
ATOM      3  C   LIG    1       24.414 -20.269   5.848  0.00  0.00    -0.003 A 
ATOM      4  C   LIG    1       24.866 -21.135   6.855  0.00  0.00    +0.007 A 
ATOM      5  C   LIG    1       26.212 -21.423   7.062  0.00  0.00    +0.001 A 
ATOM      6  C   LIG    1       27.155 -20.887   6.201  0.00  0.00    +0.004 A 
ATOM      7  C   LIG    1       26.742 -20.052   5.175  0.00  0.00    +0.046 A 
BRANCH   3   8
ATOM      8  C   LIG    1       22.904 -20.014   5.716  0.00  0.00    +0.023 C 
ATOM      9  C   LIG    1       22.553 -18.941   4.650  0.00  0.00    +0.008 C 
ATOM     10  C   LIG    1       21.170 -19.331   4.136  0.00  0.00    +0.001 C 
ATOM     11  C   LIG    1       21.265 -20.840   4.034  0.00  0.00    +0.001 C 
ATOM     12  C   LIG    1       22.032 -21.242   5.294  0.00  0.00    +0.008 C 
ENDBRANCH   3   8
ENDBRANCH   1   2
BRANCH   1  13
ATOM     13  C   LIG    1       26.106 -18.183   3.295  0.00  0.00    +0.261 C 
BRANCH  13  14
ATOM     14  C   LIG    1       26.063 -16.648   3.241  0.00  0.00    +0.166 C 
BRANCH  14  15
ATOM     15  O   LIG    1       24.780 -16.172   3.661  0.00  0.00    -0.387 OA
ATOM     16  H   LIG    1       24.153 -16.898   3.474  0.00  0.00    +0.210 HD
ENDBRANCH  14  15
BRANCH  14  17
ATOM     17  C   LIG    1       27.179 -16.032   4.091  0.00  0.00    +0.116 C 
BRANCH  17  18
ATOM     18  N   LIG    1       27.850 -14.925   3.383  0.00  0.00    -0.309 NA
ATOM     19  H   LIG    1       28.863 -15.030   3.476  0.00  0.00    +0.122 HD
BRANCH  18  21
ATOM     20  C   LIG    1       26.454 -12.986   2.863  0.00  0.00    +0.027 C 
ATOM     21  C   LIG    1       27.459 -13.582   3.869  0.00  0.00    +0.011 C 
ATOM     22  C   LIG    1       26.774 -13.673   5.243  0.00  0.00    +0.027 C 
ATOM     23  C   LIG    1       28.670 -12.636   3.945  0.00  0.00    +0.027 C 
ENDBRANCH  18  21
ENDBRANCH  17  18
ENDBRANCH  14  17
ENDBRANCH  13  14
ENDBRANCH   1  13
TORSDOF 8
ENDMDL
MODEL 7
REMARK VINA RESULT:      -3.9      2.589      6.550
REMARK  Name = *****
REMARK                            x       y       z     vdW  Elec       q    Type
REMARK                         _______ _______ _______ _____ _____    ______ ____
ROOT
ATOM      1  O   LIG    1       25.253 -16.532   2.935  0.00  0.00    -0.489 OA
ENDROOT
BRANCH   1   2
ATOM      2  C   LIG    1       26.223 -15.728   3.505  0.00  0.00    +0.124 A 
ATOM      3  C   LIG    1       25.990 -14.333   3.623  0.00  0.00    -0.003 A 
ATOM      4  C   LIG    1       27.027 -13.547   4.149  0.00  0.00    +0.007 A 
ATOM      5  C   LIG    1       28.255 -14.073   4.538  0.00  0.00    +0.001 A 
ATOM      6  C   LIG    1       28.454 -15.441   4.469  0.00  0.00    +0.004 A 
ATOM      7  C   LIG    1       27.440 -16.253   3.984  0.00  0.00    +0.046 A 
BRANCH   3   8
ATOM      8  C   LIG    1       24.677 -13.645   3.215  0.00  0.00    +0.023 C 
ATOM      9  C   LIG    1       24.251 -12.510   4.184  0.00  0.00    +0.008 C 
ATOM     10  C   LIG    1       23.469 -11.524   3.320  0.00  0.00    +0.001 C 
ATOM     11  C   LIG    1       24.279 -11.487   2.040  0.00  0.00    +0.001 C 
ATOM     12  C   LIG    1       24.671 -12.947   1.815  0.00  0.00    +0.008 C 
ENDBRANCH   3   8
ENDBRANCH   1   2
BRANCH   1  13
ATOM     13  C   LIG    1       24.789 -17.607   3.803  0.00  0.00    +0.261 C 
BRANCH  13  14
ATOM     14  C   LIG    1       25.272 -19.000   3.372  0.00  0.00    +0.166 C 
BRANCH  14  15
ATOM     15  O   LIG    1       26.437 -19.374   4.114  0.00  0.00    -0.387 OA
ATOM     16  H   LIG    1       26.285 -20.295   4.402  0.00  0.00    +0.210 HD
ENDBRANCH  14  15
BRANCH  14  17
ATOM     17  C   LIG    1       24.163 -20.045   3.533  0.00  0.00    +0.116 C 
BRANCH  17  18
ATOM     18  N   LIG    1       24.264 -20.747   4.828  0.00  0.00    -0.309 NA
ATOM     19  H   LIG    1       24.571 -21.709   4.668  0.00  0.00    +0.122 HD
BRANCH  18  21
ATOM     20  C   LIG    1       22.632 -19.313   5.949  0.00  0.00    +0.027 C 
ATOM     21  C   LIG    1       22.998 -20.768   5.595  0.00  0.00    +0.011 C 
ATOM     22  C   LIG    1       21.856 -21.364   4.754  0.00  0.00    +0.027 C 
ATOM     23  C   LIG    1       23.149 -21.551   6.910  0.00  0.00    +0.027 C 
ENDBRANCH  18  21
ENDBRANCH  17  18
ENDBRANCH  14  17
ENDBRANCH  13  14
ENDBRANCH   1  13
TORSDOF 8
ENDMDL
MODEL 8
REMARK VINA RESULT:      -3.4      1.580      3.938
REMARK  Name = *****
REMARK                            x       y       z     vdW  Elec       q    Type
REMARK                         _______ _______ _______ _____ _____    ______ ____
ROOT
ATOM      1  O   LIG    1       25.219 -17.620   3.332  0.00  0.00    -0.489 OA
ENDROOT
BRANCH   1   2
ATOM      2  C   LIG    1       24.252 -18.442   3.879  0.00  0.00    +0.124 A 
ATOM      3  C   LIG    1       24.640 -19.665   4.487  0.00  0.00    -0.003 A 
ATOM      4  C   LIG    1       23.619 -20.497   4.973  0.00  0.00    +0.007 A 
ATOM      5  C   LIG    1       22.268 -20.180   4.870  0.00  0.00    +0.001 A 
ATOM      6  C   LIG    1       21.902 -18.962   4.324  0.00  0.00    +0.004 A 
ATOM      7  C   LIG    1       22.885 -18.100   3.862  0.00  0.00    +0.046 A 
BRANCH   3   8
ATOM      8  C   LIG    1       26.100 -20.119   4.644  0.00  0.00    +0.023 C 
ATOM      9  C   LIG    1       27.102 -18.939   4.751  0.00  0.00    +0.008 C 
ATOM     10  C   LIG    1       28.254 -19.472   5.599  0.00  0.00    +0.001 C 
ATOM     11  C   LIG    1       27.539 -20.269   6.671  0.00  0.00    +0.001 C 
ATOM     12  C   LIG    1       26.421 -20.982   5.909  0.00  0.00    +0.008 C 
ENDBRANCH   3   8
ENDBRANCH   1   2
BRANCH   1  13
ATOM     13  C   LIG    1       25.262 -16.285   3.915  0.00  0.00    +0.261 C 
BRANCH  13  14
ATOM     14  C   LIG    1       25.059 -15.157   2.891  0.00  0.00    +0.166 C 
BRANCH  14  15
ATOM     15  O   LIG    1       24.226 -14.132   3.440  0.00  0.00    -0.387 OA
ATOM     16  H   LIG    1       24.835 -13.475   3.830  0.00  0.00    +0.210 HD
ENDBRANCH  14  15
BRANCH  14  17
ATOM     17  C   LIG    1       26.401 -14.582   2.429  0.00  0.00    +0.116 C 
BRANCH  17  18
ATOM     18  N   LIG    1       26.720 -13.321   3.127  0.00  0.00    -0.309 NA
ATOM     19  H   LIG    1       27.150 -12.669   2.467  0.00  0.00    +0.122 HD
BRANCH  18  21
ATOM     20  C   LIG    1       28.182 -14.930   4.245  0.00  0.00    +0.027 C 
ATOM     21  C   LIG    1       27.622 -13.495   4.288  0.00  0.00    +0.011 C 
ATOM     22  C   LIG    1       28.802 -12.511   4.220  0.00  0.00    +0.027 C 
ATOM     23  C   LIG    1       26.867 -13.321   5.618  0.00  0.00    +0.027 C 
ENDBRANCH  18  21
ENDBRANCH  17  18
ENDBRANCH  14  17
ENDBRANCH  13  14
ENDBRANCH   1  13
TORSDOF 8
ENDMDL
MODEL 9
REMARK VINA RESULT:      -3.3      2.419      6.682
REMARK  Name = *****
REMARK                            x       y       z     vdW  Elec       q    Type
REMARK                         _______ _______ _______ _____ _____    ______ ____
ROOT
ATOM      1  O   LIG    1       24.529 -18.018   3.575  0.00  0.00    -0.489 OA
ENDROOT
BRANCH   1   2
ATOM      2  C   LIG    1       23.910 -16.886   4.071  0.00  0.00    +0.124 A 
ATOM      3  C   LIG    1       24.572 -15.633   3.980  0.00  0.00    -0.003 A 
ATOM      4  C   LIG    1       23.933 -14.522   4.554  0.00  0.00    +0.007 A 
ATOM      5  C   LIG    1       22.707 -14.605   5.207  0.00  0.00    +0.001 A 
ATOM      6  C   LIG    1       22.045 -15.820   5.245  0.00  0.00    +0.004 A 
ATOM      7  C   LIG    1       22.630 -16.932   4.661  0.00  0.00    +0.046 A 
BRANCH   3   8
ATOM      8  C   LIG    1       25.931 -15.430   3.292  0.00  0.00    +0.023 C 
ATOM      9  C   LIG    1       26.056 -14.062   2.569  0.00  0.00    +0.008 C 
ATOM     10  C   LIG    1       27.542 -13.721   2.618  0.00  0.00    +0.001 C 
ATOM     11  C   LIG    1       27.936 -14.145   4.019  0.00  0.00    +0.001 C 
ATOM     12  C   LIG    1       27.187 -15.462   4.224  0.00  0.00    +0.008 C 
ENDBRANCH   3   8
ENDBRANCH   1   2
BRANCH   1  13
ATOM     13  C   LIG    1       23.650 -19.176   3.469  0.00  0.00    +0.261 C 
BRANCH  13  14
ATOM     14  C   LIG    1       24.400 -20.513   3.371  0.00  0.00    +0.166 C 
BRANCH  14  15
ATOM     15  O   LIG    1       25.711 -20.309   2.835  0.00  0.00    -0.387 OA
ATOM     16  H   LIG    1       26.253 -21.049   3.171  0.00  0.00    +0.210 HD
ENDBRANCH  14  15
BRANCH  14  17
ATOM     17  C   LIG    1       24.470 -21.210   4.733  0.00  0.00    +0.116 C 
BRANCH  17  18
ATOM     18  N   LIG    1       25.857 -21.565   5.090  0.00  0.00    -0.309 NA
ATOM     19  H   LIG    1       25.895 -22.552   5.356  0.00  0.00    +0.122 HD
BRANCH  18  21
ATOM     20  C   LIG    1       27.211 -19.586   5.563  0.00  0.00    +0.027 C 
ATOM     21  C   LIG    1       26.417 -20.749   6.191  0.00  0.00    +0.011 C 
ATOM     22  C   LIG    1       25.296 -20.157   7.062  0.00  0.00    +0.027 C 
ATOM     23  C   LIG    1       27.386 -21.567   7.062  0.00  0.00    +0.027 C 
ENDBRANCH  18  21
ENDBRANCH  17  18
ENDBRANCH  14  17
ENDBRANCH  13  14
ENDBRANCH   1  13
TORSDOF 8
ENDMDL
