MODEL 1
REMARK VINA RESULT:      -6.0      0.000      0.000
REMARK  Name = *****
REMARK                            x       y       z     vdW  Elec       q    Type
REMARK                         _______ _______ _______ _____ _____    ______ ____
ROOT
ATOM      1  N   LIG    1       26.475 -19.766   4.822  0.00  0.00    -0.284 N 
ATOM      2  H   LIG    1       26.974 -19.912   3.958  0.00  0.00    +0.155 HD
ATOM      3  C   LIG    1       27.239 -20.056   5.939  0.00  0.00    +0.234 C 
ATOM      4  O   LIG    1       26.827 -20.354   7.061  0.00  0.00    -0.274 OA
ENDROOT
BRANCH   1   7
ATOM      5  C   LIG    1       25.452 -17.612   3.220  0.00  0.00    +0.045 C 
ATOM      6  C   LIG    1       24.559 -18.617   3.902  0.00  0.00    -0.029 A 
ATOM      7  C   LIG    1       25.062 -19.684   4.698  0.00  0.00    +0.039 A 
ATOM      8  C   LIG    1       24.142 -20.541   5.338  0.00  0.00    -0.029 A 
ATOM      9  C   LIG    1       24.494 -21.570   6.379  0.00  0.00    +0.045 C 
ATOM     10  C   LIG    1       22.764 -20.409   5.056  0.00  0.00    +0.005 A 
ATOM     11  C   LIG    1       22.285 -19.404   4.226  0.00  0.00    +0.001 A 
ATOM     12  C   LIG    1       23.177 -18.503   3.668  0.00  0.00    +0.005 A 
ENDBRANCH   1   7
BRANCH   3  13
ATOM     13  C   LIG    1       28.760 -20.066   5.622  0.00  0.00    +0.135 C 
ATOM     14  C   LIG    1       29.289 -18.642   5.536  0.00  0.00    +0.033 C 
BRANCH  13  15
ATOM     15  N   LIG    1       29.470 -20.850   6.653  0.00  0.00    -0.320 NA
ATOM     16  H   LIG    1       29.871 -21.687   6.228  0.00  0.00    +0.119 HD
ATOM     17  H   LIG    1       30.279 -20.306   6.969  0.00  0.00    +0.119 HD
ENDBRANCH  13  15
ENDBRANCH   3  13
TORSDOF 3
ENDMDL
MODEL 2
REMARK VINA RESULT:      -4.1      2.633      3.853
REMARK  Name = *****
REMARK                            x       y       z     vdW  Elec       q    Type
REMARK                         _______ _______ _______ _____ _____    ______ ____
ROOT
ATOM      1  N   LIG    1       24.534 -17.767   4.166  0.00  0.00    -0.284 N 
ATOM      2  H   LIG    1       23.894 -17.008   4.343  0.00  0.00    +0.155 HD
ATOM      3  C   LIG    1       25.538 -17.427   3.276  0.00  0.00    +0.234 C 
ATOM      4  O   LIG    1       26.200 -18.196   2.579  0.00  0.00    -0.274 OA
ENDROOT
BRANCH   1   7
ATOM      5  C   LIG    1       21.685 -18.131   4.174  0.00  0.00    +0.045 C 
ATOM      6  C   LIG    1       22.649 -19.232   4.537  0.00  0.00    -0.029 A 
ATOM      7  C   LIG    1       24.060 -19.055   4.536  0.00  0.00    +0.039 A 
ATOM      8  C   LIG    1       24.877 -20.132   4.942  0.00  0.00    -0.029 A 
ATOM      9  C   LIG    1       26.355 -20.047   5.208  0.00  0.00    +0.045 C 
ATOM     10  C   LIG    1       24.285 -21.390   5.195  0.00  0.00    +0.005 A 
ATOM     11  C   LIG    1       22.910 -21.572   5.131  0.00  0.00    +0.001 A 
ATOM     12  C   LIG    1       22.096 -20.493   4.821  0.00  0.00    +0.005 A 
ENDBRANCH   1   7
BRANCH   3  13
ATOM     13  C   LIG    1       25.713 -15.888   3.150  0.00  0.00    +0.135 C 
ATOM     14  C   LIG    1       24.633 -15.168   3.945  0.00  0.00    +0.033 C 
BRANCH  13  15
ATOM     15  N   LIG    1       27.067 -15.511   3.603  0.00  0.00    -0.320 NA
ATOM     16  H   LIG    1       27.007 -14.699   4.218  0.00  0.00    +0.119 HD
ATOM     17  H   LIG    1       27.426 -16.263   4.200  0.00  0.00    +0.119 HD
ENDBRANCH  13  15
ENDBRANCH   3  13
TORSDOF 3
ENDMDL
MODEL 3
REMARK VINA RESULT:      -3.7      2.901      4.323
REMARK  Name = *****
REMARK                            x       y       z     vdW  Elec       q    Type
REMARK                         _______ _______ _______ _____ _____    ______ ____
ROOT
ATOM      1  N   LIG    1       24.582 -17.645   3.763  0.00  0.00    -0.284 N 
ATOM      2  H   LIG    1       25.543 -17.739   3.470  0.00  0.00    +0.155 HD
ATOM      3  C   LIG    1       24.209 -16.328   3.966  0.00  0.00    +0.234 C 
ATOM      4  O   LIG    1       23.286 -15.921   4.672  0.00  0.00    -0.274 OA
ENDROOT
BRANCH   1   7
ATOM      5  C   LIG    1       26.370 -19.737   4.585  0.00  0.00    +0.045 C 
ATOM      6  C   LIG    1       24.870 -19.868   4.664  0.00  0.00    -0.029 A 
ATOM      7  C   LIG    1       23.982 -18.834   4.256  0.00  0.00    +0.039 A 
ATOM      8  C   LIG    1       22.592 -19.074   4.320  0.00  0.00    -0.029 A 
ATOM      9  C   LIG    1       21.531 -18.185   3.729  0.00  0.00    +0.045 C 
ATOM     10  C   LIG    1       22.124 -20.264   4.919  0.00  0.00    +0.005 A 
ATOM     11  C   LIG    1       22.999 -21.242   5.375  0.00  0.00    +0.001 A 
ATOM     12  C   LIG    1       24.364 -21.051   5.230  0.00  0.00    +0.005 A 
ENDBRANCH   1   7
BRANCH   3  13
ATOM     13  C   LIG    1       25.167 -15.330   3.257  0.00  0.00    +0.135 C 
ATOM     14  C   LIG    1       25.143 -13.984   3.967  0.00  0.00    +0.033 C 
BRANCH  13  15
ATOM     15  N   LIG    1       26.527 -15.902   3.217  0.00  0.00    -0.320 NA
ATOM     16  H   LIG    1       26.625 -16.603   3.953  0.00  0.00    +0.119 HD
ATOM     17  H   LIG    1       26.628 -16.428   2.343  0.00  0.00    +0.119 HD
ENDBRANCH  13  15
ENDBRANCH   3  13
TORSDOF 3
ENDMDL
MODEL 4
REMARK VINA RESULT:      -3.6      3.434      4.482
REMARK  Name = *****
REMARK                            x       y       z     vdW  Elec       q    Type
REMARK                         _______ _______ _______ _____ _____    ______ ____
ROOT
ATOM      1  N   LIG    1       25.334 -15.868   3.254  0.00  0.00    -0.284 N 
ATOM      2  H   LIG    1       25.033 -15.358   2.438  0.00  0.00    +0.155 HD
ATOM      3  C   LIG    1       26.680 -15.699   3.526  0.00  0.00    +0.234 C 
ATOM      4  O   LIG    1       27.406 -16.457   4.171  0.00  0.00    -0.274 OA
ENDROOT
BRANCH   1   7
ATOM      5  C   LIG    1       22.944 -15.033   4.611  0.00  0.00    +0.045 C 
ATOM      6  C   LIG    1       23.271 -16.482   4.351  0.00  0.00    -0.029 A 
ATOM      7  C   LIG    1       24.455 -16.899   3.681  0.00  0.00    +0.039 A 
ATOM      8  C   LIG    1       24.696 -18.281   3.534  0.00  0.00    -0.029 A 
ATOM      9  C   LIG    1       25.985 -18.891   3.054  0.00  0.00    +0.045 C 
ATOM     10  C   LIG    1       23.695 -19.202   3.919  0.00  0.00    +0.005 A 
ATOM     11  C   LIG    1       22.513 -18.782   4.514  0.00  0.00    +0.001 A 
ATOM     12  C   LIG    1       22.311 -17.431   4.745  0.00  0.00    +0.005 A 
ENDBRANCH   1   7
BRANCH   3  13
ATOM     13  C   LIG    1       27.266 -14.438   2.831  0.00  0.00    +0.135 C 
ATOM     14  C   LIG    1       26.161 -13.427   2.559  0.00  0.00    +0.033 C 
BRANCH  13  15
ATOM     15  N   LIG    1       28.334 -13.865   3.675  0.00  0.00    -0.320 NA
ATOM     16  H   LIG    1       28.621 -12.963   3.295  0.00  0.00    +0.119 HD
ATOM     17  H   LIG    1       27.934 -13.646   4.592  0.00  0.00    +0.119 HD
ENDBRANCH  13  15
ENDBRANCH   3  13
TORSDOF 3
ENDMDL
MODEL 5
REMARK VINA RESULT:      -3.6      4.826      6.057
REMARK  Name = *****
REMARK                            x       y       z     vdW  Elec       q    Type
REMARK                         _______ _______ _______ _____ _____    ______ ____
ROOT
ATOM      1  N   LIG    1       26.630 -14.046   3.971  0.00  0.00    -0.284 N 
ATOM      2  H   LIG    1       27.171 -14.233   3.141  0.00  0.00    +0.155 HD
ATOM      3  C   LIG    1       27.389 -13.519   5.001  0.00  0.00    +0.234 C 
ATOM      4  O   LIG    1       27.131 -13.556   6.205  0.00  0.00    -0.274 OA
ENDROOT
BRANCH   1   7
ATOM      5  C   LIG    1       26.608 -16.852   3.358  0.00  0.00    +0.045 C 
ATOM      6  C   LIG    1       25.361 -16.088   3.726  0.00  0.00    -0.029 A 
ATOM      7  C   LIG    1       25.368 -14.697   4.029  0.00  0.00    +0.039 A 
ATOM      8  C   LIG    1       24.141 -14.061   4.310  0.00  0.00    -0.029 A 
ATOM      9  C   LIG    1       23.942 -12.575   4.432  0.00  0.00    +0.045 C 
ATOM     10  C   LIG    1       22.969 -14.843   4.428  0.00  0.00    +0.005 A 
ATOM     11  C   LIG    1       22.982 -16.211   4.194  0.00  0.00    +0.001 A 
ATOM     12  C   LIG    1       24.169 -16.826   3.827  0.00  0.00    +0.005 A 
ENDBRANCH   1   7
BRANCH   3  13
ATOM     13  C   LIG    1       28.728 -12.914   4.493  0.00  0.00    +0.135 C 
ATOM     14  C   LIG    1       28.600 -12.506   3.032  0.00  0.00    +0.033 C 
BRANCH  13  15
ATOM     15  N   LIG    1       29.104 -11.771   5.348  0.00  0.00    -0.320 NA
ATOM     16  H   LIG    1       28.609 -11.833   6.238  0.00  0.00    +0.119 HD
ATOM     17  H   LIG    1       30.094 -11.869   5.595  0.00  0.00    +0.119 HD
ENDBRANCH  13  15
ENDBRANCH   3  13
TORSDOF 3
ENDMDL
MODEL 6
REMARK VINA RESULT:      -3.6      2.419      4.180
REMARK  Name = *****
REMARK                            x       y       z     vdW  Elec       q    Type
REMARK                         _______ _______ _______ _____ _____    ______ ____
ROOT
ATOM      1  N   LIG    1       26.424 -17.961   3.769  0.00  0.00    -0.284 N 
ATOM      2  H   LIG    1       27.429 -17.868   3.783  0.00  0.00    +0.155 HD
ATOM      3  C   LIG    1       25.775 -16.751   3.597  0.00  0.00    +0.234 C 
ATOM      4  O   LIG    1       24.618 -16.480   3.922  0.00  0.00    -0.274 OA
ENDROOT
BRANCH   1   7
ATOM      5  C   LIG    1       28.117 -19.340   5.636  0.00  0.00    +0.045 C 
ATOM      6  C   LIG    1       26.764 -19.861   5.222  0.00  0.00    -0.029 A 
ATOM      7  C   LIG    1       25.924 -19.182   4.296  0.00  0.00    +0.039 A 
ATOM      8  C   LIG    1       24.698 -19.779   3.933  0.00  0.00    -0.029 A 
ATOM      9  C   LIG    1       23.803 -19.311   2.817  0.00  0.00    +0.045 C 
ATOM     10  C   LIG    1       24.274 -20.949   4.603  0.00  0.00    +0.005 A 
ATOM     11  C   LIG    1       25.072 -21.571   5.553  0.00  0.00    +0.001 A 
ATOM     12  C   LIG    1       26.318 -21.039   5.847  0.00  0.00    +0.005 A 
ENDBRANCH   1   7
BRANCH   3  13
ATOM     13  C   LIG    1       26.711 -15.662   3.005  0.00  0.00    +0.135 C 
ATOM     14  C   LIG    1       25.920 -14.397   2.702  0.00  0.00    +0.033 C 
BRANCH  13  15
ATOM     15  N   LIG    1       27.816 -15.401   3.948  0.00  0.00    -0.320 NA
ATOM     16  H   LIG    1       28.234 -16.286   4.238  0.00  0.00    +0.119 HD
ATOM     17  H   LIG    1       28.563 -14.915   3.440  0.00  0.00    +0.119 HD
ENDBRANCH  13  15
ENDBRANCH   3  13
TORSDOF 3
ENDMDL
MODEL 7
REMARK VINA RESULT:      -3.4      4.609      5.665
REMARK  Name = *****
REMARK                            x       y       z     vdW  Elec       q    Type
REMARK                         _______ _______ _______ _____ _____    ______ ____
ROOT
ATOM      1  N   LIG    1       26.430 -14.119   3.639  0.00  0.00    -0.284 N 
ATOM      2  H   LIG    1       26.855 -14.144   2.724  0.00  0.00    +0.155 HD
ATOM      3  C   LIG    1       27.237 -13.518   4.589  0.00  0.00    +0.234 C 
ATOM      4  O   LIG    1       27.190 -13.680   5.809  0.00  0.00    -0.274 OA
ENDROOT
BRANCH   1   7
ATOM      5  C   LIG    1       23.957 -12.947   4.510  0.00  0.00    +0.045 C 
ATOM      6  C   LIG    1       24.113 -14.425   4.252  0.00  0.00    -0.029 A 
ATOM      7  C   LIG    1       25.338 -15.009   3.822  0.00  0.00    +0.039 A 
ATOM      8  C   LIG    1       25.397 -16.409   3.660  0.00  0.00    -0.029 A 
ATOM      9  C   LIG    1       26.655 -17.202   3.428  0.00  0.00    +0.045 C 
ATOM     10  C   LIG    1       24.213 -17.170   3.783  0.00  0.00    +0.005 A 
ATOM     11  C   LIG    1       23.006 -16.583   4.139  0.00  0.00    +0.001 A 
ATOM     12  C   LIG    1       22.962 -15.220   4.390  0.00  0.00    +0.005 A 
ENDBRANCH   1   7
BRANCH   3  13
ATOM     13  C   LIG    1       28.340 -12.632   3.947  0.00  0.00    +0.135 C 
ATOM     14  C   LIG    1       29.115 -11.891   5.027  0.00  0.00    +0.033 C 
BRANCH  13  15
ATOM     15  N   LIG    1       29.226 -13.475   3.120  0.00  0.00    -0.320 NA
ATOM     16  H   LIG    1       29.493 -14.308   3.646  0.00  0.00    +0.119 HD
ATOM     17  H   LIG    1       28.682 -13.831   2.328  0.00  0.00    +0.119 HD
ENDBRANCH  13  15
ENDBRANCH   3  13
TORSDOF 3
ENDMDL
MODEL 8
REMARK VINA RESULT:      -3.3      4.475      6.384
REMARK  Name = *****
REMARK                            x       y       z     vdW  Elec       q    Type
REMARK                         _______ _______ _______ _____ _____    ______ ____
ROOT
ATOM      1  N   LIG    1       24.173 -14.885   4.069  0.00  0.00    -0.284 N 
ATOM      2  H   LIG    1       23.446 -14.734   4.751  0.00  0.00    +0.155 HD
ATOM      3  C   LIG    1       24.354 -13.800   3.229  0.00  0.00    +0.234 C 
ATOM      4  O   LIG    1       24.850 -13.812   2.101  0.00  0.00    -0.274 OA
ENDROOT
BRANCH   1   7
ATOM      5  C   LIG    1       22.137 -16.858   4.533  0.00  0.00    +0.045 C 
ATOM      6  C   LIG    1       23.539 -17.216   4.106  0.00  0.00    -0.029 A 
ATOM      7  C   LIG    1       24.550 -16.241   3.877  0.00  0.00    +0.039 A 
ATOM      8  C   LIG    1       25.845 -16.681   3.532  0.00  0.00    -0.029 A 
ATOM      9  C   LIG    1       27.070 -15.808   3.471  0.00  0.00    +0.045 C 
ATOM     10  C   LIG    1       26.065 -18.054   3.280  0.00  0.00    +0.005 A 
ATOM     11  C   LIG    1       25.055 -18.993   3.444  0.00  0.00    +0.001 A 
ATOM     12  C   LIG    1       23.804 -18.577   3.873  0.00  0.00    +0.005 A 
ENDBRANCH   1   7
BRANCH   3  13
ATOM     13  C   LIG    1       23.762 -12.492   3.823  0.00  0.00    +0.135 C 
ATOM     14  C   LIG    1       24.570 -12.052   5.035  0.00  0.00    +0.033 C 
BRANCH  13  15
ATOM     15  N   LIG    1       23.732 -11.450   2.778  0.00  0.00    -0.320 NA
ATOM     16  H   LIG    1       24.051 -11.844   1.893  0.00  0.00    +0.119 HD
ATOM     17  H   LIG    1       22.754 -11.192   2.611  0.00  0.00    +0.119 HD
ENDBRANCH  13  15
ENDBRANCH   3  13
TORSDOF 3
ENDMDL
MODEL 9
REMARK VINA RESULT:      -3.1      3.318      4.479
REMARK  Name = *****
REMARK                            x       y       z     vdW  Elec       q    Type
REMARK                         _______ _______ _______ _____ _____    ______ ____
ROOT
ATOM      1  N   LIG    1       25.267 -16.866   3.389  0.00  0.00    -0.284 N 
ATOM      2  H   LIG    1       26.120 -17.309   3.083  0.00  0.00    +0.155 HD
ATOM      3  C   LIG    1       25.424 -15.516   3.646  0.00  0.00    +0.234 C 
ATOM      4  O   LIG    1       24.723 -14.815   4.378  0.00  0.00    -0.274 OA
ENDROOT
BRANCH   1   7
ATOM      5  C   LIG    1       25.884 -19.670   3.288  0.00  0.00    +0.045 C 
ATOM      6  C   LIG    1       24.564 -19.142   3.795  0.00  0.00    -0.029 A 
ATOM      7  C   LIG    1       24.255 -17.755   3.844  0.00  0.00    +0.039 A 
ATOM      8  C   LIG    1       22.973 -17.364   4.285  0.00  0.00    -0.029 A 
ATOM      9  C   LIG    1       22.411 -15.971   4.192  0.00  0.00    +0.045 C 
ATOM     10  C   LIG    1       22.092 -18.341   4.799  0.00  0.00    +0.005 A 
ATOM     11  C   LIG    1       22.427 -19.689   4.807  0.00  0.00    +0.001 A 
ATOM     12  C   LIG    1       23.649 -20.088   4.290  0.00  0.00    +0.005 A 
ENDBRANCH   1   7
BRANCH   3  13
ATOM     13  C   LIG    1       26.693 -14.933   2.965  0.00  0.00    +0.135 C 
ATOM     14  C   LIG    1       26.423 -13.519   2.470  0.00  0.00    +0.033 C 
BRANCH  13  15
ATOM     15  N   LIG    1       27.821 -14.971   3.917  0.00  0.00    -0.320 NA
ATOM     16  H   LIG    1       28.446 -15.741   3.676  0.00  0.00    +0.119 HD
ATOM     17  H   LIG    1       28.385 -14.126   3.779  0.00  0.00    +0.119 HD
ENDBRANCH  13  15
ENDBRANCH   3  13
TORSDOF 3
ENDMDL
