MODEL 1
REMARK VINA RESULT:      -8.1      0.000      0.000
REMARK  Name = *****
REMARK                            x       y       z     vdW  Elec       q    Type
REMARK                         _______ _______ _______ _____ _____    ______ ____
ROOT
ATOM      1  S   LIG    1       25.124 -21.371   8.090  0.00  0.00    +0.025 S 
ATOM      2  O   LIG    1       25.610 -21.624   9.435  0.00  0.00    -0.164 OA
ATOM      3  O   LIG    1       23.921 -20.582   7.886  0.00  0.00    -0.164 OA
ENDROOT
BRANCH   1   7
ATOM      4  C   LIG    1       24.414 -25.468   6.178  0.00  0.00    +0.025 A 
ATOM      5  C   LIG    1       23.357 -24.568   6.341  0.00  0.00    +0.024 A 
ATOM      6  C   LIG    1       23.566 -23.319   6.931  0.00  0.00    +0.029 A 
ATOM      7  C   LIG    1       24.857 -22.948   7.312  0.00  0.00    +0.094 A 
ATOM      8  C   LIG    1       25.932 -23.816   7.113  0.00  0.00    +0.029 A 
ATOM      9  C   LIG    1       25.707 -25.060   6.521  0.00  0.00    +0.024 A 
BRANCH   4  10
ATOM     10  N   LIG    1       24.218 -26.664   5.478  0.00  0.00    -0.358 N 
ATOM     11  H   LIG    1       23.240 -26.882   5.305  0.00  0.00    +0.142 HD
ATOM     12  H   LIG    1       24.718 -27.456   5.871  0.00  0.00    +0.142 HD
ENDBRANCH   4  10
ENDBRANCH   1   7
BRANCH   1  13
ATOM     13  C   LIG    1       26.439 -20.586   7.189  0.00  0.00    +0.094 A 
ATOM     14  C   LIG    1       27.642 -20.293   7.835  0.00  0.00    +0.029 A 
ATOM     15  C   LIG    1       28.674 -19.682   7.118  0.00  0.00    +0.024 A 
ATOM     16  C   LIG    1       28.536 -19.410   5.754  0.00  0.00    +0.025 A 
ATOM     17  C   LIG    1       27.309 -19.668   5.135  0.00  0.00    +0.024 A 
ATOM     18  C   LIG    1       26.268 -20.281   5.838  0.00  0.00    +0.029 A 
BRANCH  16  19
ATOM     19  N   LIG    1       29.524 -18.682   5.080  0.00  0.00    -0.358 N 
ATOM     20  H   LIG    1       29.209 -17.778   4.744  0.00  0.00    +0.142 HD
ATOM     21  H   LIG    1       30.402 -18.615   5.586  0.00  0.00    +0.142 HD
ENDBRANCH  16  19
ENDBRANCH   1  13
TORSDOF 4
ENDMDL
MODEL 2
REMARK VINA RESULT:      -8.1      0.060      5.728
REMARK  Name = *****
REMARK                            x       y       z     vdW  Elec       q    Type
REMARK                         _______ _______ _______ _____ _____    ______ ____
ROOT
ATOM      1  S   LIG    1       25.124 -21.412   8.125  0.00  0.00    +0.025 S 
ATOM      2  O   LIG    1       23.918 -20.625   7.946  0.00  0.00    -0.164 OA
ATOM      3  O   LIG    1       25.629 -21.679   9.462  0.00  0.00    -0.164 OA
ENDROOT
BRANCH   1   7
ATOM      4  C   LIG    1       28.513 -19.435   5.770  0.00  0.00    +0.025 A 
ATOM      5  C   LIG    1       27.286 -19.706   5.157  0.00  0.00    +0.024 A 
ATOM      6  C   LIG    1       26.250 -20.316   5.869  0.00  0.00    +0.029 A 
ATOM      7  C   LIG    1       26.428 -20.609   7.222  0.00  0.00    +0.094 A 
ATOM      8  C   LIG    1       27.630 -20.302   7.862  0.00  0.00    +0.029 A 
ATOM      9  C   LIG    1       28.655 -19.690   7.138  0.00  0.00    +0.024 A 
BRANCH   4  10
ATOM     10  N   LIG    1       29.498 -18.715   5.084  0.00  0.00    -0.358 N 
ATOM     11  H   LIG    1       30.344 -18.561   5.626  0.00  0.00    +0.142 HD
ATOM     12  H   LIG    1       29.159 -17.858   4.658  0.00  0.00    +0.142 HD
ENDBRANCH   4  10
ENDBRANCH   1   7
BRANCH   1  13
ATOM     13  C   LIG    1       24.858 -22.980   7.332  0.00  0.00    +0.094 A 
ATOM     14  C   LIG    1       23.572 -23.339   6.923  0.00  0.00    +0.029 A 
ATOM     15  C   LIG    1       23.372 -24.570   6.293  0.00  0.00    +0.024 A 
ATOM     16  C   LIG    1       24.448 -25.420   6.021  0.00  0.00    +0.025 A 
ATOM     17  C   LIG    1       25.721 -25.064   6.478  0.00  0.00    +0.024 A 
ATOM     18  C   LIG    1       25.938 -23.835   7.108  0.00  0.00    +0.029 A 
BRANCH  16  19
ATOM     19  N   LIG    1       24.217 -26.702   5.509  0.00  0.00    -0.358 N 
ATOM     20  H   LIG    1       23.696 -26.709   4.639  0.00  0.00    +0.142 HD
ATOM     21  H   LIG    1       25.050 -27.280   5.458  0.00  0.00    +0.142 HD
ENDBRANCH  16  19
ENDBRANCH   1  13
TORSDOF 4
ENDMDL
MODEL 3
REMARK VINA RESULT:      -8.0      0.119      1.177
REMARK  Name = *****
REMARK                            x       y       z     vdW  Elec       q    Type
REMARK                         _______ _______ _______ _____ _____    ______ ____
ROOT
ATOM      1  S   LIG    1       25.093 -21.409   8.047  0.00  0.00    +0.025 S 
ATOM      2  O   LIG    1       25.549 -21.619   9.410  0.00  0.00    -0.164 OA
ATOM      3  O   LIG    1       23.874 -20.659   7.793  0.00  0.00    -0.164 OA
ENDROOT
BRANCH   1   7
ATOM      4  C   LIG    1       24.598 -25.484   6.025  0.00  0.00    +0.025 A 
ATOM      5  C   LIG    1       25.853 -25.061   6.471  0.00  0.00    +0.024 A 
ATOM      6  C   LIG    1       26.012 -23.814   7.082  0.00  0.00    +0.029 A 
ATOM      7  C   LIG    1       24.893 -23.008   7.296  0.00  0.00    +0.094 A 
ATOM      8  C   LIG    1       23.624 -23.436   6.901  0.00  0.00    +0.029 A 
ATOM      9  C   LIG    1       23.482 -24.685   6.293  0.00  0.00    +0.024 A 
BRANCH   4  10
ATOM     10  N   LIG    1       24.429 -26.781   5.526  0.00  0.00    -0.358 N 
ATOM     11  H   LIG    1       24.218 -26.813   4.532  0.00  0.00    +0.142 HD
ATOM     12  H   LIG    1       23.785 -27.349   6.068  0.00  0.00    +0.142 HD
ENDBRANCH   4  10
ENDBRANCH   1   7
BRANCH   1  13
ATOM     13  C   LIG    1       26.409 -20.604   7.165  0.00  0.00    +0.094 A 
ATOM     14  C   LIG    1       27.604 -20.308   7.824  0.00  0.00    +0.029 A 
ATOM     15  C   LIG    1       28.637 -19.681   7.122  0.00  0.00    +0.024 A 
ATOM     16  C   LIG    1       28.509 -19.396   5.760  0.00  0.00    +0.025 A 
ATOM     17  C   LIG    1       27.289 -19.658   5.128  0.00  0.00    +0.024 A 
ATOM     18  C   LIG    1       26.247 -20.286   5.816  0.00  0.00    +0.029 A 
BRANCH  16  19
ATOM     19  N   LIG    1       29.496 -18.653   5.102  0.00  0.00    -0.358 N 
ATOM     20  H   LIG    1       29.531 -17.679   5.382  0.00  0.00    +0.142 HD
ATOM     21  H   LIG    1       30.415 -19.086   5.118  0.00  0.00    +0.142 HD
ENDBRANCH  16  19
ENDBRANCH   1  13
TORSDOF 4
ENDMDL
MODEL 4
REMARK VINA RESULT:      -8.0      0.108      5.655
REMARK  Name = *****
REMARK                            x       y       z     vdW  Elec       q    Type
REMARK                         _______ _______ _______ _____ _____    ______ ____
ROOT
ATOM      1  S   LIG    1       25.102 -21.398   8.051  0.00  0.00    +0.025 S 
ATOM      2  O   LIG    1       23.884 -20.646   7.804  0.00  0.00    -0.164 OA
ATOM      3  O   LIG    1       25.561 -21.615   9.413  0.00  0.00    -0.164 OA
ENDROOT
BRANCH   1   7
ATOM      4  C   LIG    1       28.525 -19.398   5.765  0.00  0.00    +0.025 A 
ATOM      5  C   LIG    1       27.307 -19.664   5.131  0.00  0.00    +0.024 A 
ATOM      6  C   LIG    1       26.261 -20.280   5.822  0.00  0.00    +0.029 A 
ATOM      7  C   LIG    1       26.419 -20.586   7.174  0.00  0.00    +0.094 A 
ATOM      8  C   LIG    1       27.611 -20.285   7.836  0.00  0.00    +0.029 A 
ATOM      9  C   LIG    1       28.646 -19.667   7.132  0.00  0.00    +0.024 A 
BRANCH   4  10
ATOM     10  N   LIG    1       29.521 -18.673   5.101  0.00  0.00    -0.358 N 
ATOM     11  H   LIG    1       30.403 -18.635   5.603  0.00  0.00    +0.142 HD
ATOM     12  H   LIG    1       29.221 -17.753   4.792  0.00  0.00    +0.142 HD
ENDBRANCH   4  10
ENDBRANCH   1   7
BRANCH   1  13
ATOM     13  C   LIG    1       24.904 -22.993   7.292  0.00  0.00    +0.094 A 
ATOM     14  C   LIG    1       26.020 -23.808   7.093  0.00  0.00    +0.029 A 
ATOM     15  C   LIG    1       25.856 -25.063   6.503  0.00  0.00    +0.024 A 
ATOM     16  C   LIG    1       24.585 -25.533   6.159  0.00  0.00    +0.025 A 
ATOM     17  C   LIG    1       23.485 -24.685   6.323  0.00  0.00    +0.024 A 
ATOM     18  C   LIG    1       23.633 -23.428   6.914  0.00  0.00    +0.029 A 
BRANCH  16  19
ATOM     19  N   LIG    1       24.449 -26.733   5.452  0.00  0.00    -0.358 N 
ATOM     20  H   LIG    1       24.062 -26.619   4.520  0.00  0.00    +0.142 HD
ATOM     21  H   LIG    1       25.287 -27.306   5.447  0.00  0.00    +0.142 HD
ENDBRANCH  16  19
ENDBRANCH   1  13
TORSDOF 4
ENDMDL
MODEL 5
REMARK VINA RESULT:      -7.9      0.989      1.653
REMARK  Name = *****
REMARK                            x       y       z     vdW  Elec       q    Type
REMARK                         _______ _______ _______ _____ _____    ______ ____
ROOT
ATOM      1  S   LIG    1       24.883 -20.953   6.921  0.00  0.00    +0.025 S 
ATOM      2  O   LIG    1       24.419 -20.613   8.255  0.00  0.00    -0.164 OA
ATOM      3  O   LIG    1       24.258 -20.348   5.756  0.00  0.00    -0.164 OA
ENDROOT
BRANCH   1   7
ATOM      4  C   LIG    1       24.530 -25.479   6.348  0.00  0.00    +0.025 A 
ATOM      5  C   LIG    1       25.784 -24.876   6.480  0.00  0.00    +0.024 A 
ATOM      6  C   LIG    1       25.898 -23.494   6.648  0.00  0.00    +0.029 A 
ATOM      7  C   LIG    1       24.743 -22.716   6.737  0.00  0.00    +0.094 A 
ATOM      8  C   LIG    1       23.481 -23.307   6.656  0.00  0.00    +0.029 A 
ATOM      9  C   LIG    1       23.383 -24.690   6.490  0.00  0.00    +0.024 A 
BRANCH   4  10
ATOM     10  N   LIG    1       24.421 -26.874   6.302  0.00  0.00    -0.358 N 
ATOM     11  H   LIG    1       25.316 -27.353   6.262  0.00  0.00    +0.142 HD
ATOM     12  H   LIG    1       23.778 -27.212   5.593  0.00  0.00    +0.142 HD
ENDBRANCH   4  10
ENDBRANCH   1   7
BRANCH   1  13
ATOM     13  C   LIG    1       26.619 -20.579   6.852  0.00  0.00    +0.094 A 
ATOM     14  C   LIG    1       27.430 -20.851   7.956  0.00  0.00    +0.029 A 
ATOM     15  C   LIG    1       28.795 -20.561   7.891  0.00  0.00    +0.024 A 
ATOM     16  C   LIG    1       29.366 -20.052   6.720  0.00  0.00    +0.025 A 
ATOM     17  C   LIG    1       28.531 -19.743   5.642  0.00  0.00    +0.024 A 
ATOM     18  C   LIG    1       27.164 -20.030   5.690  0.00  0.00    +0.029 A 
BRANCH  16  19
ATOM     19  N   LIG    1       30.705 -19.645   6.712  0.00  0.00    -0.358 N 
ATOM     20  H   LIG    1       30.858 -18.748   6.264  0.00  0.00    +0.142 HD
ATOM     21  H   LIG    1       31.156 -19.698   7.620  0.00  0.00    +0.142 HD
ENDBRANCH  16  19
ENDBRANCH   1  13
TORSDOF 4
ENDMDL
MODEL 6
REMARK VINA RESULT:      -7.6      1.718      2.446
REMARK  Name = *****
REMARK                            x       y       z     vdW  Elec       q    Type
REMARK                         _______ _______ _______ _____ _____    ______ ____
ROOT
ATOM      1  S   LIG    1       24.349 -21.985   7.499  0.00  0.00    +0.025 S 
ATOM      2  O   LIG    1       25.276 -21.718   8.584  0.00  0.00    -0.164 OA
ATOM      3  O   LIG    1       22.918 -21.851   7.713  0.00  0.00    -0.164 OA
ENDROOT
BRANCH   1   7
ATOM      4  C   LIG    1       25.126 -26.226   5.965  0.00  0.00    +0.025 A 
ATOM      5  C   LIG    1       26.176 -25.447   6.462  0.00  0.00    +0.024 A 
ATOM      6  C   LIG    1       25.946 -24.149   6.925  0.00  0.00    +0.029 A 
ATOM      7  C   LIG    1       24.644 -23.646   6.939  0.00  0.00    +0.094 A 
ATOM      8  C   LIG    1       23.577 -24.427   6.491  0.00  0.00    +0.029 A 
ATOM      9  C   LIG    1       23.822 -25.723   6.033  0.00  0.00    +0.024 A 
BRANCH   4  10
ATOM     10  N   LIG    1       25.346 -27.564   5.618  0.00  0.00    -0.358 N 
ATOM     11  H   LIG    1       25.019 -27.804   4.686  0.00  0.00    +0.142 HD
ATOM     12  H   LIG    1       25.024 -28.226   6.316  0.00  0.00    +0.142 HD
ENDBRANCH   4  10
ENDBRANCH   1   7
BRANCH   1  13
ATOM     13  C   LIG    1       24.790 -20.916   6.149  0.00  0.00    +0.094 A 
ATOM     14  C   LIG    1       26.126 -20.557   5.959  0.00  0.00    +0.029 A 
ATOM     15  C   LIG    1       26.466 -19.722   4.891  0.00  0.00    +0.024 A 
ATOM     16  C   LIG    1       25.495 -19.287   3.983  0.00  0.00    +0.025 A 
ATOM     17  C   LIG    1       24.157 -19.620   4.216  0.00  0.00    +0.024 A 
ATOM     18  C   LIG    1       23.801 -20.456   5.278  0.00  0.00    +0.029 A 
BRANCH  16  19
ATOM     19  N   LIG    1       25.826 -18.349   2.998  0.00  0.00    -0.358 N 
ATOM     20  H   LIG    1       25.808 -18.722   2.055  0.00  0.00    +0.142 HD
ATOM     21  H   LIG    1       25.311 -17.477   3.072  0.00  0.00    +0.142 HD
ENDBRANCH  16  19
ENDBRANCH   1  13
TORSDOF 4
ENDMDL
MODEL 7
REMARK VINA RESULT:      -7.6      2.596      3.423
REMARK  Name = *****
REMARK                            x       y       z     vdW  Elec       q    Type
REMARK                         _______ _______ _______ _____ _____    ______ ____
ROOT
ATOM      1  S   LIG    1       25.658 -22.013   7.288  0.00  0.00    +0.025 S 
ATOM      2  O   LIG    1       27.056 -21.826   6.942  0.00  0.00    -0.164 OA
ATOM      3  O   LIG    1       25.208 -21.783   8.651  0.00  0.00    -0.164 OA
ENDROOT
BRANCH   1   7
ATOM      4  C   LIG    1       24.550 -26.291   6.099  0.00  0.00    +0.025 A 
ATOM      5  C   LIG    1       25.872 -25.961   6.413  0.00  0.00    +0.024 A 
ATOM      6  C   LIG    1       26.218 -24.655   6.769  0.00  0.00    +0.029 A 
ATOM      7  C   LIG    1       25.220 -23.683   6.864  0.00  0.00    +0.094 A 
ATOM      8  C   LIG    1       23.888 -24.006   6.601  0.00  0.00    +0.029 A 
ATOM      9  C   LIG    1       23.558 -25.316   6.247  0.00  0.00    +0.024 A 
BRANCH   4  10
ATOM     10  N   LIG    1       24.195 -27.624   5.862  0.00  0.00    -0.358 N 
ATOM     11  H   LIG    1       24.987 -28.261   5.845  0.00  0.00    +0.142 HD
ATOM     12  H   LIG    1       23.589 -27.750   5.058  0.00  0.00    +0.142 HD
ENDBRANCH   4  10
ENDBRANCH   1   7
BRANCH   1  13
ATOM     13  C   LIG    1       24.703 -20.959   6.223  0.00  0.00    +0.094 A 
ATOM     14  C   LIG    1       25.245 -20.522   5.013  0.00  0.00    +0.029 A 
ATOM     15  C   LIG    1       24.485 -19.699   4.178  0.00  0.00    +0.024 A 
ATOM     16  C   LIG    1       23.172 -19.354   4.514  0.00  0.00    +0.025 A 
ATOM     17  C   LIG    1       22.662 -19.763   5.750  0.00  0.00    +0.024 A 
ATOM     18  C   LIG    1       23.409 -20.588   6.595  0.00  0.00    +0.029 A 
BRANCH  16  19
ATOM     19  N   LIG    1       22.470 -18.427   3.735  0.00  0.00    -0.358 N 
ATOM     20  H   LIG    1       22.509 -18.615   2.739  0.00  0.00    +0.142 HD
ATOM     21  H   LIG    1       21.520 -18.258   4.053  0.00  0.00    +0.142 HD
ENDBRANCH  16  19
ENDBRANCH   1  13
TORSDOF 4
ENDMDL
MODEL 8
REMARK VINA RESULT:      -7.6      2.594      5.639
REMARK  Name = *****
REMARK                            x       y       z     vdW  Elec       q    Type
REMARK                         _______ _______ _______ _____ _____    ______ ____
ROOT
ATOM      1  S   LIG    1       25.650 -22.041   7.267  0.00  0.00    +0.025 S 
ATOM      2  O   LIG    1       25.185 -21.829   8.626  0.00  0.00    -0.164 OA
ATOM      3  O   LIG    1       27.053 -21.848   6.939  0.00  0.00    -0.164 OA
ENDROOT
BRANCH   1   7
ATOM      4  C   LIG    1       23.189 -19.361   4.491  0.00  0.00    +0.025 A 
ATOM      5  C   LIG    1       22.672 -19.772   5.723  0.00  0.00    +0.024 A 
ATOM      6  C   LIG    1       23.416 -20.596   6.571  0.00  0.00    +0.029 A 
ATOM      7  C   LIG    1       24.710 -20.968   6.205  0.00  0.00    +0.094 A 
ATOM      8  C   LIG    1       25.261 -20.527   5.000  0.00  0.00    +0.029 A 
ATOM      9  C   LIG    1       24.506 -19.702   4.164  0.00  0.00    +0.024 A 
BRANCH   4  10
ATOM     10  N   LIG    1       22.487 -18.439   3.706  0.00  0.00    -0.358 N 
ATOM     11  H   LIG    1       21.498 -18.652   3.610  0.00  0.00    +0.142 HD
ATOM     12  H   LIG    1       22.922 -18.250   2.808  0.00  0.00    +0.142 HD
ENDBRANCH   4  10
ENDBRANCH   1   7
BRANCH   1  13
ATOM     13  C   LIG    1       25.217 -23.702   6.810  0.00  0.00    +0.094 A 
ATOM     14  C   LIG    1       26.218 -24.666   6.674  0.00  0.00    +0.029 A 
ATOM     15  C   LIG    1       25.869 -25.972   6.321  0.00  0.00    +0.024 A 
ATOM     16  C   LIG    1       24.529 -26.337   6.156  0.00  0.00    +0.025 A 
ATOM     17  C   LIG    1       23.545 -25.348   6.251  0.00  0.00    +0.024 A 
ATOM     18  C   LIG    1       23.878 -24.038   6.605  0.00  0.00    +0.029 A 
BRANCH  16  19
ATOM     19  N   LIG    1       24.203 -27.611   5.677  0.00  0.00    -0.358 N 
ATOM     20  H   LIG    1       23.246 -27.693   5.349  0.00  0.00    +0.142 HD
ATOM     21  H   LIG    1       24.868 -27.980   5.004  0.00  0.00    +0.142 HD
ENDBRANCH  16  19
ENDBRANCH   1  13
TORSDOF 4
ENDMDL
MODEL 9
REMARK VINA RESULT:      -7.4      1.893      5.704
REMARK  Name = *****
REMARK                            x       y       z     vdW  Elec       q    Type
REMARK                         _______ _______ _______ _____ _____    ______ ____
ROOT
ATOM      1  S   LIG    1       24.077 -22.275   7.268  0.00  0.00    +0.025 S 
ATOM      2  O   LIG    1       22.625 -22.274   7.278  0.00  0.00    -0.164 OA
ATOM      3  O   LIG    1       24.814 -21.931   8.473  0.00  0.00    -0.164 OA
ENDROOT
BRANCH   1   7
ATOM      4  C   LIG    1       25.421 -19.319   4.044  0.00  0.00    +0.025 A 
ATOM      5  C   LIG    1       26.345 -19.850   4.949  0.00  0.00    +0.024 A 
ATOM      6  C   LIG    1       25.939 -20.748   5.940  0.00  0.00    +0.029 A 
ATOM      7  C   LIG    1       24.605 -21.156   5.991  0.00  0.00    +0.094 A 
ATOM      8  C   LIG    1       23.679 -20.673   5.064  0.00  0.00    +0.029 A 
ATOM      9  C   LIG    1       24.100 -19.779   4.079  0.00  0.00    +0.024 A 
BRANCH   4  10
ATOM     10  N   LIG    1       25.858 -18.518   2.982  0.00  0.00    -0.358 N 
ATOM     11  H   LIG    1       25.144 -18.342   2.281  0.00  0.00    +0.142 HD
ATOM     12  H   LIG    1       26.730 -18.830   2.565  0.00  0.00    +0.142 HD
ENDBRANCH   4  10
ENDBRANCH   1   7
BRANCH   1  13
ATOM     13  C   LIG    1       24.604 -23.895   6.764  0.00  0.00    +0.094 A 
ATOM     14  C   LIG    1       25.948 -24.256   6.886  0.00  0.00    +0.029 A 
ATOM     15  C   LIG    1       26.353 -25.534   6.495  0.00  0.00    +0.024 A 
ATOM     16  C   LIG    1       25.424 -26.471   6.033  0.00  0.00    +0.025 A 
ATOM     17  C   LIG    1       24.091 -26.078   5.874  0.00  0.00    +0.024 A 
ATOM     18  C   LIG    1       23.670 -24.804   6.264  0.00  0.00    +0.029 A 
BRANCH  16  19
ATOM     19  N   LIG    1       25.860 -27.699   5.522  0.00  0.00    -0.358 N 
ATOM     20  H   LIG    1       25.938 -27.719   4.511  0.00  0.00    +0.142 HD
ATOM     21  H   LIG    1       26.695 -28.059   5.975  0.00  0.00    +0.142 HD
ENDBRANCH  16  19
ENDBRANCH   1  13
TORSDOF 4
ENDMDL
