MODEL 1
REMARK VINA RESULT:      -7.7      0.000      0.000
REMARK  Name = *****
REMARK                            x       y       z     vdW  Elec       q    Type
REMARK                         _______ _______ _______ _____ _____    ______ ____
ROOT
ATOM      1  C   LIG    1       25.167 -19.278   4.096  0.00  0.00    +0.162 A 
ATOM      2  C   LIG    1       23.892 -19.648   4.544  0.00  0.00    +0.162 A 
ATOM      3  C   LIG    1       23.775 -20.406   5.717  0.00  0.00    +0.054 A 
ATOM      4  C   LIG    1       24.899 -20.855   6.431  0.00  0.00    -0.023 A 
ATOM      5  C   LIG    1       24.744 -21.666   7.717  0.00  0.00    +0.094 C 
ATOM      6  N   LIG    1       25.928 -22.490   8.041  0.00  0.00    -0.294 NA
ATOM      7  C   LIG    1       27.116 -21.612   8.064  0.00  0.00    +0.089 C 
ATOM      8  C   LIG    1       27.419 -20.915   6.723  0.00  0.00    +0.051 C 
ATOM      9  C   LIG    1       26.120 -23.637   7.137  0.00  0.00    +0.096 C 
ATOM     10  C   LIG    1       24.884 -24.505   6.835  0.00  0.00    +0.070 C 
ATOM     11  C   LIG    1       23.628 -23.651   6.785  0.00  0.00    +0.139 C 
ATOM     12  O   LIG    1       22.676 -23.903   6.032  0.00  0.00    -0.297 OA
ATOM     13  C   LIG    1       23.512 -22.561   7.809  0.00  0.00    +0.098 C 
ATOM     14  C   LIG    1       26.175 -20.473   5.981  0.00  0.00    -0.038 A 
ATOM     15  C   LIG    1       26.296 -19.711   4.807  0.00  0.00    +0.053 A 
ENDROOT
BRANCH   1  17
ATOM     16  C   LIG    1       25.975 -17.241   3.172  0.00  0.00    +0.277 C 
ATOM     17  O   LIG    1       25.462 -18.553   2.968  0.00  0.00    -0.491 OA
ENDBRANCH   1  17
BRANCH   2  18
ATOM     18  O   LIG    1       22.791 -19.233   3.844  0.00  0.00    -0.491 OA
ATOM     19  C   LIG    1       22.060 -18.140   4.390  0.00  0.00    +0.277 C 
ENDBRANCH   2  18
BRANCH  10  20
ATOM     20  C   LIG    1       25.054 -25.286   5.508  0.00  0.00    +0.015 C 
BRANCH  20  21
ATOM     21  C   LIG    1       25.276 -26.808   5.634  0.00  0.00    -0.016 C 
ATOM     22  C   LIG    1       25.753 -27.159   7.048  0.00  0.00    +0.007 C 
ATOM     23  C   LIG    1       26.286 -27.331   4.614  0.00  0.00    +0.007 C 
ENDBRANCH  20  21
ENDBRANCH  10  20
TORSDOF 4
ENDMDL
MODEL 2
REMARK VINA RESULT:      -7.5      2.890      6.511
REMARK  Name = *****
REMARK                            x       y       z     vdW  Elec       q    Type
REMARK                         _______ _______ _______ _____ _____    ______ ____
ROOT
ATOM      1  C   LIG    1       25.573 -25.741   5.346  0.00  0.00    +0.162 A 
ATOM      2  C   LIG    1       25.952 -25.627   6.689  0.00  0.00    +0.162 A 
ATOM      3  C   LIG    1       25.723 -24.420   7.362  0.00  0.00    +0.054 A 
ATOM      4  C   LIG    1       25.173 -23.298   6.718  0.00  0.00    -0.023 A 
ATOM      5  C   LIG    1       24.918 -21.998   7.478  0.00  0.00    +0.094 C 
ATOM      6  N   LIG    1       24.858 -20.806   6.605  0.00  0.00    -0.294 NA
ATOM      7  C   LIG    1       23.856 -21.050   5.548  0.00  0.00    +0.089 C 
ATOM      8  C   LIG    1       24.175 -22.250   4.633  0.00  0.00    +0.051 C 
ATOM      9  C   LIG    1       26.161 -20.419   6.037  0.00  0.00    +0.096 C 
ATOM     10  C   LIG    1       27.358 -20.360   7.004  0.00  0.00    +0.070 C 
ATOM     11  C   LIG    1       27.240 -21.438   8.069  0.00  0.00    +0.139 C 
ATOM     12  O   LIG    1       28.227 -22.005   8.560  0.00  0.00    -0.297 OA
ATOM     13  C   LIG    1       25.871 -21.687   8.629  0.00  0.00    +0.098 C 
ATOM     14  C   LIG    1       24.787 -23.421   5.371  0.00  0.00    -0.038 A 
ATOM     15  C   LIG    1       25.013 -24.632   4.694  0.00  0.00    +0.053 A 
ENDROOT
BRANCH   1  17
ATOM     16  C   LIG    1       24.754 -27.866   4.655  0.00  0.00    +0.277 C 
ATOM     17  O   LIG    1       25.735 -26.840   4.537  0.00  0.00    -0.491 OA
ENDBRANCH   1  17
BRANCH   2  18
ATOM     18  O   LIG    1       26.507 -26.707   7.321  0.00  0.00    -0.491 OA
ATOM     19  C   LIG    1       25.615 -27.742   7.724  0.00  0.00    +0.277 C 
ENDBRANCH   2  18
BRANCH  10  20
ATOM     20  C   LIG    1       28.702 -20.498   6.248  0.00  0.00    +0.015 C 
BRANCH  20  21
ATOM     21  C   LIG    1       29.660 -19.291   6.329  0.00  0.00    -0.016 C 
ATOM     22  C   LIG    1       29.725 -18.761   7.766  0.00  0.00    +0.007 C 
ATOM     23  C   LIG    1       29.246 -18.161   5.389  0.00  0.00    +0.007 C 
ENDBRANCH  20  21
ENDBRANCH  10  20
TORSDOF 4
ENDMDL
MODEL 3
REMARK VINA RESULT:      -6.4      5.412      9.726
REMARK  Name = *****
REMARK                            x       y       z     vdW  Elec       q    Type
REMARK                         _______ _______ _______ _____ _____    ______ ____
ROOT
ATOM      1  C   LIG    1       22.110 -29.667  11.672  0.00  0.00    +0.162 A 
ATOM      2  C   LIG    1       21.954 -30.436  10.512  0.00  0.00    +0.162 A 
ATOM      3  C   LIG    1       23.078 -30.717   9.724  0.00  0.00    +0.054 A 
ATOM      4  C   LIG    1       24.351 -30.205  10.029  0.00  0.00    -0.023 A 
ATOM      5  C   LIG    1       25.565 -30.539   9.163  0.00  0.00    +0.094 C 
ATOM      6  N   LIG    1       26.659 -29.551   9.273  0.00  0.00    -0.294 NA
ATOM      7  C   LIG    1       27.007 -29.396  10.701  0.00  0.00    +0.089 C 
ATOM      8  C   LIG    1       25.855 -28.878  11.585  0.00  0.00    +0.051 C 
ATOM      9  C   LIG    1       26.353 -28.252   8.647  0.00  0.00    +0.096 C 
ATOM     10  C   LIG    1       25.750 -28.282   7.230  0.00  0.00    +0.070 C 
ATOM     11  C   LIG    1       24.836 -29.484   7.062  0.00  0.00    +0.139 C 
ATOM     12  O   LIG    1       23.823 -29.461   6.347  0.00  0.00    -0.297 OA
ATOM     13  C   LIG    1       25.294 -30.772   7.679  0.00  0.00    +0.098 C 
ATOM     14  C   LIG    1       24.503 -29.440  11.200  0.00  0.00    -0.038 A 
ATOM     15  C   LIG    1       23.378 -29.159  11.993  0.00  0.00    +0.053 A 
ENDROOT
BRANCH   1  17
ATOM     16  C   LIG    1       21.036 -27.901  12.848  0.00  0.00    +0.277 C 
ATOM     17  O   LIG    1       21.120 -29.290  12.546  0.00  0.00    -0.491 OA
ENDBRANCH   1  17
BRANCH   2  18
ATOM     18  O   LIG    1       20.715 -30.923  10.194  0.00  0.00    -0.491 OA
ATOM     19  C   LIG    1       20.547 -32.336  10.253  0.00  0.00    +0.277 C 
ENDBRANCH   2  18
BRANCH  10  20
ATOM     20  C   LIG    1       24.980 -26.975   6.917  0.00  0.00    +0.015 C 
BRANCH  20  21
ATOM     21  C   LIG    1       25.770 -25.879   6.172  0.00  0.00    -0.016 C 
ATOM     22  C   LIG    1       25.727 -24.564   6.960  0.00  0.00    +0.007 C 
ATOM     23  C   LIG    1       25.237 -25.641   4.760  0.00  0.00    +0.007 C 
ENDBRANCH  20  21
ENDBRANCH  10  20
TORSDOF 4
ENDMDL
MODEL 4
REMARK VINA RESULT:      -6.1      6.027      9.746
REMARK  Name = *****
REMARK                            x       y       z     vdW  Elec       q    Type
REMARK                         _______ _______ _______ _____ _____    ______ ____
ROOT
ATOM      1  C   LIG    1       22.672 -29.179  12.599  0.00  0.00    +0.162 A 
ATOM      2  C   LIG    1       22.492 -30.278  11.749  0.00  0.00    +0.162 A 
ATOM      3  C   LIG    1       23.547 -30.677  10.918  0.00  0.00    +0.054 A 
ATOM      4  C   LIG    1       24.764 -29.977  10.868  0.00  0.00    -0.023 A 
ATOM      5  C   LIG    1       25.906 -30.442   9.965  0.00  0.00    +0.094 C 
ATOM      6  N   LIG    1       26.860 -29.368   9.619  0.00  0.00    -0.294 NA
ATOM      7  C   LIG    1       27.344 -28.751  10.871  0.00  0.00    +0.089 C 
ATOM      8  C   LIG    1       26.240 -28.100  11.728  0.00  0.00    +0.051 C 
ATOM      9  C   LIG    1       26.312 -28.359   8.695  0.00  0.00    +0.096 C 
ATOM     10  C   LIG    1       25.561 -28.879   7.455  0.00  0.00    +0.070 C 
ATOM     11  C   LIG    1       24.806 -30.156   7.781  0.00  0.00    +0.139 C 
ATOM     12  O   LIG    1       23.725 -30.450   7.250  0.00  0.00    -0.297 OA
ATOM     13  C   LIG    1       25.503 -31.144   8.670  0.00  0.00    +0.098 C 
ATOM     14  C   LIG    1       24.943 -28.879  11.729  0.00  0.00    -0.038 A 
ATOM     15  C   LIG    1       23.887 -28.479  12.566  0.00  0.00    +0.053 A 
ENDROOT
BRANCH   1  17
ATOM     16  C   LIG    1       20.991 -27.541  12.983  0.00  0.00    +0.277 C 
ATOM     17  O   LIG    1       21.746 -28.649  13.463  0.00  0.00    -0.491 OA
ENDBRANCH   1  17
BRANCH   2  18
ATOM     18  O   LIG    1       21.303 -30.955  11.775  0.00  0.00    -0.491 OA
ATOM     19  C   LIG    1       20.445 -30.787  10.651  0.00  0.00    +0.277 C 
ENDBRANCH   2  18
BRANCH  10  20
ATOM     20  C   LIG    1       24.590 -27.810   6.894  0.00  0.00    +0.015 C 
BRANCH  20  21
ATOM     21  C   LIG    1       25.235 -26.512   6.363  0.00  0.00    -0.016 C 
ATOM     22  C   LIG    1       24.165 -25.431   6.166  0.00  0.00    +0.007 C 
ATOM     23  C   LIG    1       25.982 -26.733   5.050  0.00  0.00    +0.007 C 
ENDBRANCH  20  21
ENDBRANCH  10  20
TORSDOF 4
ENDMDL
MODEL 5
REMARK VINA RESULT:      -5.9      2.225      6.480
REMARK  Name = *****
REMARK                            x       y       z     vdW  Elec       q    Type
REMARK                         _______ _______ _______ _____ _____    ______ ____
ROOT
ATOM      1  C   LIG    1       24.780 -25.896   5.629  0.00  0.00    +0.162 A 
ATOM      2  C   LIG    1       25.999 -25.612   6.257  0.00  0.00    +0.162 A 
ATOM      3  C   LIG    1       26.098 -24.476   7.070  0.00  0.00    +0.054 A 
ATOM      4  C   LIG    1       25.029 -23.579   7.234  0.00  0.00    -0.023 A 
ATOM      5  C   LIG    1       25.157 -22.355   8.140  0.00  0.00    +0.094 C 
ATOM      6  N   LIG    1       24.208 -21.271   7.806  0.00  0.00    -0.294 NA
ATOM      7  C   LIG    1       22.841 -21.832   7.801  0.00  0.00    +0.089 C 
ATOM      8  C   LIG    1       22.616 -22.950   6.764  0.00  0.00    +0.051 C 
ATOM      9  C   LIG    1       24.514 -20.581   6.541  0.00  0.00    +0.096 C 
ATOM     10  C   LIG    1       25.976 -20.151   6.313  0.00  0.00    +0.070 C 
ATOM     11  C   LIG    1       26.933 -21.162   6.923  0.00  0.00    +0.139 C 
ATOM     12  O   LIG    1       28.042 -21.417   6.430  0.00  0.00    -0.297 OA
ATOM     13  C   LIG    1       26.549 -21.738   8.254  0.00  0.00    +0.098 C 
ATOM     14  C   LIG    1       23.805 -23.873   6.607  0.00  0.00    -0.038 A 
ATOM     15  C   LIG    1       23.702 -25.014   5.793  0.00  0.00    +0.053 A 
ENDROOT
BRANCH   1  17
ATOM     16  C   LIG    1       24.111 -28.169   5.416  0.00  0.00    +0.277 C 
ATOM     17  O   LIG    1       24.514 -26.953   4.794  0.00  0.00    -0.491 OA
ENDBRANCH   1  17
BRANCH   2  18
ATOM     18  O   LIG    1       27.054 -26.469   6.089  0.00  0.00    -0.491 OA
ATOM     19  C   LIG    1       27.121 -27.584   6.971  0.00  0.00    +0.277 C 
ENDBRANCH   2  18
BRANCH  10  20
ATOM     20  C   LIG    1       26.281 -19.966   4.806  0.00  0.00    +0.015 C 
BRANCH  20  21
ATOM     21  C   LIG    1       25.199 -19.247   3.973  0.00  0.00    -0.016 C 
ATOM     22  C   LIG    1       24.583 -20.213   2.954  0.00  0.00    +0.007 C 
ATOM     23  C   LIG    1       25.750 -18.023   3.244  0.00  0.00    +0.007 C 
ENDBRANCH  20  21
ENDBRANCH  10  20
TORSDOF 4
ENDMDL
MODEL 6
REMARK VINA RESULT:      -5.6      7.597      9.487
REMARK  Name = *****
REMARK                            x       y       z     vdW  Elec       q    Type
REMARK                         _______ _______ _______ _____ _____    ______ ____
ROOT
ATOM      1  C   LIG    1       24.043 -27.037  13.357  0.00  0.00    +0.162 A 
ATOM      2  C   LIG    1       23.201 -28.118  13.067  0.00  0.00    +0.162 A 
ATOM      3  C   LIG    1       23.727 -29.232  12.400  0.00  0.00    +0.054 A 
ATOM      4  C   LIG    1       25.061 -29.279  11.962  0.00  0.00    -0.023 A 
ATOM      5  C   LIG    1       25.616 -30.512  11.251  0.00  0.00    +0.094 C 
ATOM      6  N   LIG    1       26.797 -30.227  10.408  0.00  0.00    -0.294 NA
ATOM      7  C   LIG    1       27.812 -29.548  11.240  0.00  0.00    +0.089 C 
ATOM      8  C   LIG    1       27.354 -28.199  11.828  0.00  0.00    +0.051 C 
ATOM      9  C   LIG    1       26.488 -29.453   9.193  0.00  0.00    +0.096 C 
ATOM     10  C   LIG    1       25.285 -29.920   8.352  0.00  0.00    +0.070 C 
ATOM     11  C   LIG    1       24.188 -30.472   9.247  0.00  0.00    +0.139 C 
ATOM     12  O   LIG    1       22.983 -30.359   8.978  0.00  0.00    -0.297 OA
ATOM     13  C   LIG    1       24.625 -31.313  10.410  0.00  0.00    +0.098 C 
ATOM     14  C   LIG    1       25.904 -28.193  12.262  0.00  0.00    -0.038 A 
ATOM     15  C   LIG    1       25.380 -27.076  12.934  0.00  0.00    +0.053 A 
ENDROOT
BRANCH   1  17
ATOM     16  C   LIG    1       24.751 -25.121  14.575  0.00  0.00    +0.277 C 
ATOM     17  O   LIG    1       23.692 -25.869  13.988  0.00  0.00    -0.491 OA
ENDBRANCH   1  17
BRANCH   2  18
ATOM     18  O   LIG    1       21.894 -28.075  13.472  0.00  0.00    -0.491 OA
ATOM     19  C   LIG    1       20.963 -28.844  12.717  0.00  0.00    +0.277 C 
ENDBRANCH   2  18
BRANCH  10  20
ATOM     20  C   LIG    1       24.731 -28.771   7.474  0.00  0.00    +0.015 C 
BRANCH  20  21
ATOM     21  C   LIG    1       24.548 -29.085   5.973  0.00  0.00    -0.016 C 
ATOM     22  C   LIG    1       25.273 -30.386   5.611  0.00  0.00    +0.007 C 
ATOM     23  C   LIG    1       25.056 -27.955   5.080  0.00  0.00    +0.007 C 
ENDBRANCH  20  21
ENDBRANCH  10  20
TORSDOF 4
ENDMDL
MODEL 7
REMARK VINA RESULT:      -5.5      5.752      9.291
REMARK  Name = *****
REMARK                            x       y       z     vdW  Elec       q    Type
REMARK                         _______ _______ _______ _____ _____    ______ ____
ROOT
ATOM      1  C   LIG    1       24.793 -28.619   7.295  0.00  0.00    +0.162 A 
ATOM      2  C   LIG    1       25.932 -27.932   7.733  0.00  0.00    +0.162 A 
ATOM      3  C   LIG    1       26.540 -28.317   8.935  0.00  0.00    +0.054 A 
ATOM      4  C   LIG    1       26.012 -29.336   9.746  0.00  0.00    -0.023 A 
ATOM      5  C   LIG    1       26.704 -29.748  11.045  0.00  0.00    +0.094 C 
ATOM      6  N   LIG    1       25.799 -30.405  12.012  0.00  0.00    -0.294 NA
ATOM      7  C   LIG    1       25.137 -31.541  11.338  0.00  0.00    +0.089 C 
ATOM      8  C   LIG    1       24.272 -31.143  10.125  0.00  0.00    +0.051 C 
ATOM      9  C   LIG    1       24.818 -29.492  12.624  0.00  0.00    +0.096 C 
ATOM     10  C   LIG    1       25.348 -28.148  13.158  0.00  0.00    +0.070 C 
ATOM     11  C   LIG    1       26.480 -27.634  12.285  0.00  0.00    +0.139 C 
ATOM     12  O   LIG    1       26.679 -26.426  12.088  0.00  0.00    -0.297 OA
ATOM     13  C   LIG    1       27.464 -28.651  11.786  0.00  0.00    +0.098 C 
ATOM     14  C   LIG    1       24.872 -30.027   9.298  0.00  0.00    -0.038 A 
ATOM     15  C   LIG    1       24.262 -29.645   8.092  0.00  0.00    +0.053 A 
ENDROOT
BRANCH   1  17
ATOM     16  C   LIG    1       24.590 -28.895   4.941  0.00  0.00    +0.277 C 
ATOM     17  O   LIG    1       24.068 -28.366   6.156  0.00  0.00    -0.491 OA
ENDBRANCH   1  17
BRANCH   2  18
ATOM     18  O   LIG    1       26.444 -26.925   6.960  0.00  0.00    -0.491 OA
ATOM     19  C   LIG    1       25.721 -25.697   6.947  0.00  0.00    +0.277 C 
ENDBRANCH   2  18
BRANCH  10  20
ATOM     20  C   LIG    1       24.219 -27.092  13.248  0.00  0.00    +0.015 C 
BRANCH  20  21
ATOM     21  C   LIG    1       22.834 -27.609  13.693  0.00  0.00    -0.016 C 
ATOM     22  C   LIG    1       21.731 -26.668  13.192  0.00  0.00    +0.007 C 
ATOM     23  C   LIG    1       22.730 -27.751  15.210  0.00  0.00    +0.007 C 
ENDBRANCH  20  21
ENDBRANCH  10  20
TORSDOF 4
ENDMDL
MODEL 8
REMARK VINA RESULT:      -5.4      7.387      9.966
REMARK  Name = *****
REMARK                            x       y       z     vdW  Elec       q    Type
REMARK                         _______ _______ _______ _____ _____    ______ ____
ROOT
ATOM      1  C   LIG    1       22.049 -28.690  12.700  0.00  0.00    +0.162 A 
ATOM      2  C   LIG    1       21.762 -29.880  12.020  0.00  0.00    +0.162 A 
ATOM      3  C   LIG    1       22.805 -30.574  11.391  0.00  0.00    +0.054 A 
ATOM      4  C   LIG    1       24.123 -30.087  11.374  0.00  0.00    -0.023 A 
ATOM      5  C   LIG    1       25.245 -30.871  10.695  0.00  0.00    +0.094 C 
ATOM      6  N   LIG    1       26.395 -30.031  10.298  0.00  0.00    -0.294 NA
ATOM      7  C   LIG    1       26.862 -29.285  11.485  0.00  0.00    +0.089 C 
ATOM      8  C   LIG    1       25.811 -28.335  12.093  0.00  0.00    +0.051 C 
ATOM      9  C   LIG    1       26.110 -29.128   9.169  0.00  0.00    +0.096 C 
ATOM     10  C   LIG    1       25.397 -29.737   7.947  0.00  0.00    +0.070 C 
ATOM     11  C   LIG    1       24.411 -30.807   8.381  0.00  0.00    +0.139 C 
ATOM     12  O   LIG    1       23.348 -31.022   7.780  0.00  0.00    -0.297 OA
ATOM     13  C   LIG    1       24.847 -31.718   9.490  0.00  0.00    +0.098 C 
ATOM     14  C   LIG    1       24.406 -28.896  12.065  0.00  0.00    -0.038 A 
ATOM     15  C   LIG    1       23.363 -28.199  12.699  0.00  0.00    +0.053 A 
ENDROOT
BRANCH   1  17
ATOM     16  C   LIG    1       21.690 -26.741  14.016  0.00  0.00    +0.277 C 
ATOM     17  O   LIG    1       21.152 -27.883  13.355  0.00  0.00    -0.491 OA
ENDBRANCH   1  17
BRANCH   2  18
ATOM     18  O   LIG    1       20.478 -30.354  12.013  0.00  0.00    -0.491 OA
ATOM     19  C   LIG    1       19.996 -30.881  10.781  0.00  0.00    +0.277 C 
ENDBRANCH   2  18
BRANCH  10  20
ATOM     20  C   LIG    1       24.675 -28.648   7.115  0.00  0.00    +0.015 C 
BRANCH  20  21
ATOM     21  C   LIG    1       24.924 -28.675   5.592  0.00  0.00    -0.016 C 
ATOM     22  C   LIG    1       25.558 -30.009   5.181  0.00  0.00    +0.007 C 
ATOM     23  C   LIG    1       25.817 -27.524   5.132  0.00  0.00    +0.007 C 
ENDBRANCH  20  21
ENDBRANCH  10  20
TORSDOF 4
ENDMDL
MODEL 9
REMARK VINA RESULT:      -5.4      6.344     10.470
REMARK  Name = *****
REMARK                            x       y       z     vdW  Elec       q    Type
REMARK                         _______ _______ _______ _____ _____    ______ ____
ROOT
ATOM      1  C   LIG    1       21.456 -30.562  11.494  0.00  0.00    +0.162 A 
ATOM      2  C   LIG    1       21.616 -31.512  10.478  0.00  0.00    +0.162 A 
ATOM      3  C   LIG    1       22.875 -31.668   9.883  0.00  0.00    +0.054 A 
ATOM      4  C   LIG    1       23.973 -30.864  10.235  0.00  0.00    -0.023 A 
ATOM      5  C   LIG    1       25.340 -31.065   9.583  0.00  0.00    +0.094 C 
ATOM      6  N   LIG    1       26.204 -29.867   9.640  0.00  0.00    -0.294 NA
ATOM      7  C   LIG    1       26.306 -29.431  11.048  0.00  0.00    +0.089 C 
ATOM      8  C   LIG    1       24.961 -29.036  11.691  0.00  0.00    +0.051 C 
ATOM      9  C   LIG    1       25.757 -28.769   8.765  0.00  0.00    +0.096 C 
ATOM     10  C   LIG    1       25.383 -29.136   7.316  0.00  0.00    +0.070 C 
ATOM     11  C   LIG    1       24.742 -30.512   7.261  0.00  0.00    +0.139 C 
ATOM     12  O   LIG    1       23.857 -30.807   6.443  0.00  0.00    -0.297 OA
ATOM     13  C   LIG    1       25.336 -31.570   8.143  0.00  0.00    +0.098 C 
ATOM     14  C   LIG    1       23.808 -29.917  11.261  0.00  0.00    -0.038 A 
ATOM     15  C   LIG    1       22.547 -29.760  11.862  0.00  0.00    +0.053 A 
ENDROOT
BRANCH   1  17
ATOM     16  C   LIG    1       20.439 -29.864  13.528  0.00  0.00    +0.277 C 
ATOM     17  O   LIG    1       20.297 -30.270  12.171  0.00  0.00    -0.491 OA
ENDBRANCH   1  17
BRANCH   2  18
ATOM     18  O   LIG    1       20.549 -32.287  10.113  0.00  0.00    -0.491 OA
ATOM     19  C   LIG    1       20.838 -33.611   9.674  0.00  0.00    +0.277 C 
ENDBRANCH   2  18
BRANCH  10  20
ATOM     20  C   LIG    1       24.437 -28.079   6.694  0.00  0.00    +0.015 C 
BRANCH  20  21
ATOM     21  C   LIG    1       25.115 -26.860   6.034  0.00  0.00    -0.016 C 
ATOM     22  C   LIG    1       24.057 -25.910   5.460  0.00  0.00    +0.007 C 
ATOM     23  C   LIG    1       26.086 -27.267   4.927  0.00  0.00    +0.007 C 
ENDBRANCH  20  21
ENDBRANCH  10  20
TORSDOF 4
ENDMDL
