MODEL 1
REMARK VINA RESULT:      -9.5      0.000      0.000
REMARK  Name = *****
REMARK                            x       y       z     vdW  Elec       q    Type
REMARK                         _______ _______ _______ _____ _____    ______ ____
ROOT
ATOM      1  N   LIG    1       24.726 -21.170   6.579  0.00  0.00    -0.310 NA
ATOM      2  H   LIG    1       24.789 -20.388   5.921  0.00  0.00    +0.122 HD
ENDROOT
BRANCH   1   4
ATOM      3  C   LIG    1       25.918 -20.628   8.683  0.00  0.00    +0.024 C 
ATOM      4  C   LIG    1       26.002 -21.321   7.315  0.00  0.00    +0.055 C 
BRANCH   4   5
ATOM      5  C   LIG    1       27.150 -20.730   6.441  0.00  0.00    +0.053 C 
BRANCH   5   6
ATOM      6  C   LIG    1       28.480 -20.501   7.135  0.00  0.00    -0.042 A 
ATOM      7  C   LIG    1       29.081 -19.228   7.097  0.00  0.00    +0.053 A 
ATOM      8  C   LIG    1       30.252 -19.025   7.791  0.00  0.00    +0.167 A 
ATOM      9  O   LIG    1       30.919 -17.844   7.898  0.00  0.00    -0.453 OA
ATOM     10  C   LIG    1       32.012 -18.225   8.758  0.00  0.00    +0.466 C 
ATOM     11  O   LIG    1       32.002 -19.628   9.106  0.00  0.00    -0.453 OA
ATOM     12  C   LIG    1       30.872 -20.042   8.480  0.00  0.00    +0.166 A 
ATOM     13  C   LIG    1       30.353 -21.318   8.492  0.00  0.00    +0.050 A 
ATOM     14  C   LIG    1       29.149 -21.548   7.815  0.00  0.00    +0.007 A 
ENDBRANCH   5   6
ENDBRANCH   4   5
ENDBRANCH   1   4
BRANCH   1  15
ATOM     15  C   LIG    1       24.332 -22.362   5.803  0.00  0.00    +0.117 C 
BRANCH  15  16
ATOM     16  C   LIG    1       23.889 -23.531   6.718  0.00  0.00    +0.158 C 
BRANCH  16  17
ATOM     17  C   LIG    1       24.563 -24.842   6.355  0.00  0.00    -0.014 A 
ATOM     18  C   LIG    1       23.794 -25.955   5.978  0.00  0.00    +0.055 A 
ATOM     19  C   LIG    1       24.424 -27.145   5.638  0.00  0.00    +0.159 A 
ATOM     20  C   LIG    1       25.812 -27.255   5.660  0.00  0.00    +0.158 A 
ATOM     21  C   LIG    1       26.593 -26.168   6.029  0.00  0.00    +0.049 A 
ATOM     22  C   LIG    1       25.967 -24.965   6.374  0.00  0.00    +0.010 A 
BRANCH  19  23
ATOM     23  O   LIG    1       23.664 -28.220   5.272  0.00  0.00    -0.503 OA
ATOM     24  H   LIG    1       23.751 -28.263   4.300  0.00  0.00    +0.292 HD
ENDBRANCH  19  23
BRANCH  20  25
ATOM     25  O   LIG    1       26.361 -28.455   5.303  0.00  0.00    -0.503 OA
ATOM     26  H   LIG    1       27.320 -28.407   5.460  0.00  0.00    +0.292 HD
ENDBRANCH  20  25
ENDBRANCH  16  17
BRANCH  16  27
ATOM     27  O   LIG    1       22.469 -23.700   6.633  0.00  0.00    -0.386 OA
ATOM     28  H   LIG    1       22.153 -23.819   7.546  0.00  0.00    +0.210 HD
ENDBRANCH  16  27
ENDBRANCH  15  16
ENDBRANCH   1  15
TORSDOF 9
ENDMDL
MODEL 2
REMARK VINA RESULT:      -9.2      2.171      9.525
REMARK  Name = *****
REMARK                            x       y       z     vdW  Elec       q    Type
REMARK                         _______ _______ _______ _____ _____    ______ ____
ROOT
ATOM      1  N   LIG    1       28.393 -19.842   8.049  0.00  0.00    -0.310 NA
ATOM      2  H   LIG    1       28.759 -20.428   8.805  0.00  0.00    +0.122 HD
ENDROOT
BRANCH   1   4
ATOM      3  C   LIG    1       27.485 -19.984   5.748  0.00  0.00    +0.024 C 
ATOM      4  C   LIG    1       27.570 -20.655   7.127  0.00  0.00    +0.055 C 
BRANCH   4   5
ATOM      5  C   LIG    1       26.159 -20.847   7.761  0.00  0.00    +0.053 C 
BRANCH   5   6
ATOM      6  C   LIG    1       25.376 -22.069   7.314  0.00  0.00    -0.042 A 
ATOM      7  C   LIG    1       26.059 -23.247   6.959  0.00  0.00    +0.053 A 
ATOM      8  C   LIG    1       25.327 -24.364   6.623  0.00  0.00    +0.167 A 
ATOM      9  O   LIG    1       25.837 -25.587   6.314  0.00  0.00    -0.453 OA
ATOM     10  C   LIG    1       24.627 -26.343   6.105  0.00  0.00    +0.466 C 
ATOM     11  O   LIG    1       23.427 -25.548   6.244  0.00  0.00    -0.453 OA
ATOM     12  C   LIG    1       23.951 -24.343   6.581  0.00  0.00    +0.166 A 
ATOM     13  C   LIG    1       23.245 -23.194   6.859  0.00  0.00    +0.050 A 
ATOM     14  C   LIG    1       23.963 -22.050   7.229  0.00  0.00    +0.007 A 
ENDBRANCH   5   6
ENDBRANCH   4   5
ENDBRANCH   1   4
BRANCH   1  15
ATOM     15  C   LIG    1       29.550 -19.185   7.408  0.00  0.00    +0.117 C 
BRANCH  15  16
ATOM     16  C   LIG    1       30.872 -19.471   8.164  0.00  0.00    +0.158 C 
BRANCH  16  17
ATOM     17  C   LIG    1       31.206 -18.395   9.181  0.00  0.00    -0.014 A 
ATOM     18  C   LIG    1       31.981 -17.284   8.811  0.00  0.00    +0.055 A 
ATOM     19  C   LIG    1       32.269 -16.301   9.749  0.00  0.00    +0.159 A 
ATOM     20  C   LIG    1       31.798 -16.395  11.055  0.00  0.00    +0.158 A 
ATOM     21  C   LIG    1       31.030 -17.484  11.445  0.00  0.00    +0.049 A 
ATOM     22  C   LIG    1       30.734 -18.479  10.507  0.00  0.00    +0.010 A 
BRANCH  19  23
ATOM     23  O   LIG    1       33.024 -15.225   9.375  0.00  0.00    -0.503 OA
ATOM     24  H   LIG    1       32.560 -14.455   9.757  0.00  0.00    +0.292 HD
ENDBRANCH  19  23
BRANCH  20  25
ATOM     25  O   LIG    1       32.114 -15.385  11.920  0.00  0.00    -0.503 OA
ATOM     26  H   LIG    1       33.041 -15.498  12.193  0.00  0.00    +0.292 HD
ENDBRANCH  20  25
ENDBRANCH  16  17
BRANCH  16  27
ATOM     27  O   LIG    1       31.951 -19.575   7.227  0.00  0.00    -0.386 OA
ATOM     28  H   LIG    1       31.548 -19.539   6.342  0.00  0.00    +0.210 HD
ENDBRANCH  16  27
ENDBRANCH  15  16
ENDBRANCH   1  15
TORSDOF 9
ENDMDL
MODEL 3
REMARK VINA RESULT:      -9.2      1.448      1.933
REMARK  Name = *****
REMARK                            x       y       z     vdW  Elec       q    Type
REMARK                         _______ _______ _______ _____ _____    ______ ____
ROOT
ATOM      1  N   LIG    1       25.418 -22.410   7.839  0.00  0.00    -0.310 NA
ATOM      2  H   LIG    1       24.481 -22.748   8.078  0.00  0.00    +0.122 HD
ENDROOT
BRANCH   1   4
ATOM      3  C   LIG    1       23.914 -20.597   7.071  0.00  0.00    +0.024 C 
ATOM      4  C   LIG    1       25.357 -20.992   7.419  0.00  0.00    +0.055 C 
BRANCH   4   5
ATOM      5  C   LIG    1       26.315 -20.794   6.206  0.00  0.00    +0.053 C 
BRANCH   5   6
ATOM      6  C   LIG    1       27.630 -20.089   6.489  0.00  0.00    -0.042 A 
ATOM      7  C   LIG    1       28.255 -20.248   7.740  0.00  0.00    +0.053 A 
ATOM      8  C   LIG    1       29.480 -19.656   7.952  0.00  0.00    +0.167 A 
ATOM      9  O   LIG    1       30.232 -19.765   9.080  0.00  0.00    -0.453 OA
ATOM     10  C   LIG    1       31.393 -18.994   8.710  0.00  0.00    +0.466 C 
ATOM     11  O   LIG    1       31.289 -18.403   7.394  0.00  0.00    -0.453 OA
ATOM     12  C   LIG    1       30.084 -18.877   6.991  0.00  0.00    +0.166 A 
ATOM     13  C   LIG    1       29.478 -18.643   5.776  0.00  0.00    +0.050 A 
ATOM     14  C   LIG    1       28.244 -19.253   5.525  0.00  0.00    +0.007 A 
ENDBRANCH   5   6
ENDBRANCH   4   5
ENDBRANCH   1   4
BRANCH   1  15
ATOM     15  C   LIG    1       25.961 -23.322   6.812  0.00  0.00    +0.117 C 
BRANCH  15  16
ATOM     16  C   LIG    1       24.845 -24.135   6.110  0.00  0.00    +0.158 C 
BRANCH  16  17
ATOM     17  C   LIG    1       25.000 -25.632   6.312  0.00  0.00    -0.014 A 
ATOM     18  C   LIG    1       24.190 -26.531   5.602  0.00  0.00    +0.055 A 
ATOM     19  C   LIG    1       24.350 -27.899   5.789  0.00  0.00    +0.159 A 
ATOM     20  C   LIG    1       25.306 -28.396   6.669  0.00  0.00    +0.158 A 
ATOM     21  C   LIG    1       26.119 -27.525   7.383  0.00  0.00    +0.049 A 
ATOM     22  C   LIG    1       25.965 -26.147   7.201  0.00  0.00    +0.010 A 
BRANCH  19  23
ATOM     23  O   LIG    1       23.555 -28.764   5.090  0.00  0.00    -0.503 OA
ATOM     24  H   LIG    1       22.654 -28.394   5.179  0.00  0.00    +0.292 HD
ENDBRANCH  19  23
BRANCH  20  25
ATOM     25  O   LIG    1       25.412 -29.753   6.794  0.00  0.00    -0.503 OA
ATOM     26  H   LIG    1       24.746 -30.051   7.436  0.00  0.00    +0.292 HD
ENDBRANCH  20  25
ENDBRANCH  16  17
BRANCH  16  27
ATOM     27  O   LIG    1       24.854 -23.854   4.705  0.00  0.00    -0.386 OA
ATOM     28  H   LIG    1       23.928 -23.905   4.410  0.00  0.00    +0.210 HD
ENDBRANCH  16  27
ENDBRANCH  15  16
ENDBRANCH   1  15
TORSDOF 9
ENDMDL
MODEL 4
REMARK VINA RESULT:      -9.1      2.358      4.409
REMARK  Name = *****
REMARK                            x       y       z     vdW  Elec       q    Type
REMARK                         _______ _______ _______ _____ _____    ______ ____
ROOT
ATOM      1  N   LIG    1       25.824 -22.996   7.979  0.00  0.00    -0.310 NA
ATOM      2  H   LIG    1       24.843 -22.954   8.272  0.00  0.00    +0.122 HD
ENDROOT
BRANCH   1   4
ATOM      3  C   LIG    1       25.504 -20.567   8.346  0.00  0.00    +0.024 C 
ATOM      4  C   LIG    1       26.510 -21.727   8.308  0.00  0.00    +0.055 C 
BRANCH   4   5
ATOM      5  C   LIG    1       27.630 -21.482   7.252  0.00  0.00    +0.053 C 
BRANCH   5   6
ATOM      6  C   LIG    1       28.928 -20.886   7.768  0.00  0.00    -0.042 A 
ATOM      7  C   LIG    1       29.174 -19.508   7.621  0.00  0.00    +0.053 A 
ATOM      8  C   LIG    1       30.325 -18.977   8.157  0.00  0.00    +0.167 A 
ATOM      9  O   LIG    1       30.675 -17.662   8.148  0.00  0.00    -0.453 OA
ATOM     10  C   LIG    1       31.920 -17.706   8.875  0.00  0.00    +0.466 C 
ATOM     11  O   LIG    1       32.310 -19.044   9.258  0.00  0.00    -0.453 OA
ATOM     12  C   LIG    1       31.260 -19.764   8.790  0.00  0.00    +0.166 A 
ATOM     13  C   LIG    1       31.090 -21.127   8.901  0.00  0.00    +0.050 A 
ATOM     14  C   LIG    1       29.916 -21.690   8.387  0.00  0.00    +0.007 A 
ENDBRANCH   5   6
ENDBRANCH   4   5
ENDBRANCH   1   4
BRANCH   1  15
ATOM     15  C   LIG    1       25.835 -23.334   6.542  0.00  0.00    +0.117 C 
BRANCH  15  16
ATOM     16  C   LIG    1       24.417 -23.276   5.920  0.00  0.00    +0.158 C 
BRANCH  16  17
ATOM     17  C   LIG    1       24.062 -21.890   5.411  0.00  0.00    -0.014 A 
ATOM     18  C   LIG    1       24.968 -21.173   4.614  0.00  0.00    +0.055 A 
ATOM     19  C   LIG    1       24.625 -19.911   4.146  0.00  0.00    +0.159 A 
ATOM     20  C   LIG    1       23.392 -19.342   4.451  0.00  0.00    +0.158 A 
ATOM     21  C   LIG    1       22.480 -20.032   5.238  0.00  0.00    +0.049 A 
ATOM     22  C   LIG    1       22.816 -21.305   5.714  0.00  0.00    +0.010 A 
BRANCH  19  23
ATOM     23  O   LIG    1       25.517 -19.223   3.371  0.00  0.00    -0.503 OA
ATOM     24  H   LIG    1       26.393 -19.546   3.661  0.00  0.00    +0.292 HD
ENDBRANCH  19  23
BRANCH  20  25
ATOM     25  O   LIG    1       23.121 -18.101   3.948  0.00  0.00    -0.503 OA
ATOM     26  H   LIG    1       23.033 -17.484   4.694  0.00  0.00    +0.292 HD
ENDBRANCH  20  25
ENDBRANCH  16  17
BRANCH  16  27
ATOM     27  O   LIG    1       23.446 -23.676   6.895  0.00  0.00    -0.386 OA
ATOM     28  H   LIG    1       22.575 -23.464   6.515  0.00  0.00    +0.210 HD
ENDBRANCH  16  27
ENDBRANCH  15  16
ENDBRANCH   1  15
TORSDOF 9
ENDMDL
MODEL 5
REMARK VINA RESULT:      -9.0      1.377      1.774
REMARK  Name = *****
REMARK                            x       y       z     vdW  Elec       q    Type
REMARK                         _______ _______ _______ _____ _____    ______ ____
ROOT
ATOM      1  N   LIG    1       24.143 -22.192   4.912  0.00  0.00    -0.310 NA
ATOM      2  H   LIG    1       24.388 -21.873   3.970  0.00  0.00    +0.122 HD
ENDROOT
BRANCH   1   4
ATOM      3  C   LIG    1       23.265 -20.304   6.255  0.00  0.00    +0.024 C 
ATOM      4  C   LIG    1       24.495 -21.155   5.908  0.00  0.00    +0.055 C 
BRANCH   4   5
ATOM      5  C   LIG    1       25.652 -20.285   5.329  0.00  0.00    +0.053 C 
BRANCH   5   6
ATOM      6  C   LIG    1       26.991 -20.379   6.038  0.00  0.00    -0.042 A 
ATOM      7  C   LIG    1       28.045 -19.527   5.660  0.00  0.00    +0.053 A 
ATOM      8  C   LIG    1       29.229 -19.581   6.362  0.00  0.00    +0.167 A 
ATOM      9  O   LIG    1       30.314 -18.788   6.156  0.00  0.00    -0.453 OA
ATOM     10  C   LIG    1       31.199 -19.261   7.191  0.00  0.00    +0.466 C 
ATOM     11  O   LIG    1       30.646 -20.355   7.958  0.00  0.00    -0.453 OA
ATOM     12  C   LIG    1       29.421 -20.476   7.390  0.00  0.00    +0.166 A 
ATOM     13  C   LIG    1       28.438 -21.371   7.752  0.00  0.00    +0.050 A 
ATOM     14  C   LIG    1       27.215 -21.321   7.072  0.00  0.00    +0.007 A 
ENDBRANCH   5   6
ENDBRANCH   4   5
ENDBRANCH   1   4
BRANCH   1  15
ATOM     15  C   LIG    1       24.819 -23.487   5.123  0.00  0.00    +0.117 C 
BRANCH  15  16
ATOM     16  C   LIG    1       24.302 -24.212   6.391  0.00  0.00    +0.158 C 
BRANCH  16  17
ATOM     17  C   LIG    1       24.703 -25.676   6.429  0.00  0.00    -0.014 A 
ATOM     18  C   LIG    1       23.995 -26.626   5.676  0.00  0.00    +0.055 A 
ATOM     19  C   LIG    1       24.380 -27.960   5.710  0.00  0.00    +0.159 A 
ATOM     20  C   LIG    1       25.463 -28.375   6.480  0.00  0.00    +0.158 A 
ATOM     21  C   LIG    1       26.178 -27.454   7.233  0.00  0.00    +0.049 A 
ATOM     22  C   LIG    1       25.798 -26.108   7.204  0.00  0.00    +0.010 A 
BRANCH  19  23
ATOM     23  O   LIG    1       23.681 -28.874   4.972  0.00  0.00    -0.503 OA
ATOM     24  H   LIG    1       23.935 -29.739   5.350  0.00  0.00    +0.292 HD
ENDBRANCH  19  23
BRANCH  20  25
ATOM     25  O   LIG    1       25.788 -29.702   6.458  0.00  0.00    -0.503 OA
ATOM     26  H   LIG    1       26.735 -29.785   6.663  0.00  0.00    +0.292 HD
ENDBRANCH  20  25
ENDBRANCH  16  17
BRANCH  16  27
ATOM     27  O   LIG    1       22.874 -24.121   6.451  0.00  0.00    -0.386 OA
ATOM     28  H   LIG    1       22.669 -23.203   6.701  0.00  0.00    +0.210 HD
ENDBRANCH  16  27
ENDBRANCH  15  16
ENDBRANCH   1  15
TORSDOF 9
ENDMDL
MODEL 6
REMARK VINA RESULT:      -9.0      1.734      8.497
REMARK  Name = *****
REMARK                            x       y       z     vdW  Elec       q    Type
REMARK                         _______ _______ _______ _____ _____    ______ ____
ROOT
ATOM      1  N   LIG    1       26.250 -21.201   5.792  0.00  0.00    -0.310 NA
ATOM      2  H   LIG    1       25.831 -20.454   5.229  0.00  0.00    +0.122 HD
ENDROOT
BRANCH   1   4
ATOM      3  C   LIG    1       24.361 -21.215   7.394  0.00  0.00    +0.024 C 
ATOM      4  C   LIG    1       25.190 -22.037   6.398  0.00  0.00    +0.055 C 
BRANCH   4   5
ATOM      5  C   LIG    1       25.862 -23.265   7.085  0.00  0.00    +0.053 C 
BRANCH   5   6
ATOM      6  C   LIG    1       25.593 -24.622   6.459  0.00  0.00    -0.042 A 
ATOM      7  C   LIG    1       25.774 -25.793   7.219  0.00  0.00    +0.053 A 
ATOM      8  C   LIG    1       25.459 -27.008   6.654  0.00  0.00    +0.167 A 
ATOM      9  O   LIG    1       25.524 -28.216   7.276  0.00  0.00    -0.453 OA
ATOM     10  C   LIG    1       25.043 -29.087   6.232  0.00  0.00    +0.466 C 
ATOM     11  O   LIG    1       24.749 -28.391   4.999  0.00  0.00    -0.453 OA
ATOM     12  C   LIG    1       25.018 -27.110   5.354  0.00  0.00    +0.166 A 
ATOM     13  C   LIG    1       24.887 -25.996   4.554  0.00  0.00    +0.050 A 
ATOM     14  C   LIG    1       25.176 -24.745   5.111  0.00  0.00    +0.007 A 
ENDBRANCH   5   6
ENDBRANCH   4   5
ENDBRANCH   1   4
BRANCH   1  15
ATOM     15  C   LIG    1       27.147 -20.558   6.772  0.00  0.00    +0.117 C 
BRANCH  15  16
ATOM     16  C   LIG    1       28.530 -20.222   6.160  0.00  0.00    +0.158 C 
BRANCH  16  17
ATOM     17  C   LIG    1       29.520 -19.721   7.197  0.00  0.00    -0.014 A 
ATOM     18  C   LIG    1       30.377 -20.619   7.852  0.00  0.00    +0.055 A 
ATOM     19  C   LIG    1       31.285 -20.146   8.790  0.00  0.00    +0.159 A 
ATOM     20  C   LIG    1       31.364 -18.790   9.092  0.00  0.00    +0.158 A 
ATOM     21  C   LIG    1       30.526 -17.883   8.459  0.00  0.00    +0.049 A 
ATOM     22  C   LIG    1       29.608 -18.350   7.511  0.00  0.00    +0.010 A 
BRANCH  19  23
ATOM     23  O   LIG    1       32.115 -21.032   9.420  0.00  0.00    -0.503 OA
ATOM     24  H   LIG    1       32.842 -21.181   8.783  0.00  0.00    +0.292 HD
ENDBRANCH  19  23
BRANCH  20  25
ATOM     25  O   LIG    1       32.288 -18.397  10.020  0.00  0.00    -0.503 OA
ATOM     26  H   LIG    1       31.846 -18.342  10.884  0.00  0.00    +0.292 HD
ENDBRANCH  20  25
ENDBRANCH  16  17
BRANCH  16  27
ATOM     27  O   LIG    1       28.379 -19.224   5.143  0.00  0.00    -0.386 OA
ATOM     28  H   LIG    1       27.495 -19.358   4.759  0.00  0.00    +0.210 HD
ENDBRANCH  16  27
ENDBRANCH  15  16
ENDBRANCH   1  15
TORSDOF 9
ENDMDL
MODEL 7
REMARK VINA RESULT:      -9.0      1.591      8.165
REMARK  Name = *****
REMARK                            x       y       z     vdW  Elec       q    Type
REMARK                         _______ _______ _______ _____ _____    ______ ____
ROOT
ATOM      1  N   LIG    1       27.364 -20.355   7.582  0.00  0.00    -0.310 NA
ATOM      2  H   LIG    1       27.890 -21.217   7.752  0.00  0.00    +0.122 HD
ENDROOT
BRANCH   1   4
ATOM      3  C   LIG    1       25.843 -21.629   9.066  0.00  0.00    +0.024 C 
ATOM      4  C   LIG    1       25.955 -20.527   8.003  0.00  0.00    +0.055 C 
BRANCH   4   5
ATOM      5  C   LIG    1       25.099 -20.855   6.742  0.00  0.00    +0.053 C 
BRANCH   5   6
ATOM      6  C   LIG    1       24.701 -22.308   6.553  0.00  0.00    -0.042 A 
ATOM      7  C   LIG    1       25.650 -23.241   6.096  0.00  0.00    +0.053 A 
ATOM      8  C   LIG    1       25.287 -24.566   5.998  0.00  0.00    +0.167 A 
ATOM      9  O   LIG    1       26.103 -25.590   5.629  0.00  0.00    -0.453 OA
ATOM     10  C   LIG    1       25.206 -26.712   5.754  0.00  0.00    +0.466 C 
ATOM     11  O   LIG    1       23.867 -26.332   6.146  0.00  0.00    -0.453 OA
ATOM     12  C   LIG    1       24.011 -24.991   6.291  0.00  0.00    +0.166 A 
ATOM     13  C   LIG    1       23.034 -24.102   6.682  0.00  0.00    +0.050 A 
ATOM     14  C   LIG    1       23.382 -22.753   6.814  0.00  0.00    +0.007 A 
ENDBRANCH   5   6
ENDBRANCH   4   5
ENDBRANCH   1   4
BRANCH   1  15
ATOM     15  C   LIG    1       27.532 -20.016   6.155  0.00  0.00    +0.117 C 
BRANCH  15  16
ATOM     16  C   LIG    1       28.987 -19.599   5.824  0.00  0.00    +0.158 C 
BRANCH  16  17
ATOM     17  C   LIG    1       29.790 -19.254   7.066  0.00  0.00    -0.014 A 
ATOM     18  C   LIG    1       30.645 -20.204   7.645  0.00  0.00    +0.055 A 
ATOM     19  C   LIG    1       31.383 -19.871   8.774  0.00  0.00    +0.159 A 
ATOM     20  C   LIG    1       31.291 -18.604   9.342  0.00  0.00    +0.158 A 
ATOM     21  C   LIG    1       30.451 -17.648   8.788  0.00  0.00    +0.049 A 
ATOM     22  C   LIG    1       29.705 -17.974   7.650  0.00  0.00    +0.010 A 
BRANCH  19  23
ATOM     23  O   LIG    1       32.212 -20.805   9.327  0.00  0.00    -0.503 OA
ATOM     24  H   LIG    1       33.038 -20.318   9.519  0.00  0.00    +0.292 HD
ENDBRANCH  19  23
BRANCH  20  25
ATOM     25  O   LIG    1       32.053 -18.345  10.447  0.00  0.00    -0.503 OA
ATOM     26  H   LIG    1       32.928 -18.750  10.314  0.00  0.00    +0.292 HD
ENDBRANCH  20  25
ENDBRANCH  16  17
BRANCH  16  27
ATOM     27  O   LIG    1       28.977 -18.466   4.947  0.00  0.00    -0.386 OA
ATOM     28  H   LIG    1       29.814 -18.498   4.451  0.00  0.00    +0.210 HD
ENDBRANCH  16  27
ENDBRANCH  15  16
ENDBRANCH   1  15
TORSDOF 9
ENDMDL
MODEL 8
REMARK VINA RESULT:      -8.9      2.469      4.377
REMARK  Name = *****
REMARK                            x       y       z     vdW  Elec       q    Type
REMARK                         _______ _______ _______ _____ _____    ______ ____
ROOT
ATOM      1  N   LIG    1       29.049 -21.123   6.794  0.00  0.00    -0.310 NA
ATOM      2  H   LIG    1       29.007 -22.103   7.089  0.00  0.00    +0.122 HD
ENDROOT
BRANCH   1   4
ATOM      3  C   LIG    1       30.595 -21.258   8.726  0.00  0.00    +0.024 C 
ATOM      4  C   LIG    1       30.113 -20.413   7.538  0.00  0.00    +0.055 C 
BRANCH   4   5
ATOM      5  C   LIG    1       29.556 -19.033   8.002  0.00  0.00    +0.053 C 
BRANCH   5   6
ATOM      6  C   LIG    1       30.488 -18.171   8.834  0.00  0.00    -0.042 A 
ATOM      7  C   LIG    1       30.084 -17.727  10.107  0.00  0.00    +0.053 A 
ATOM      8  C   LIG    1       30.971 -17.004  10.872  0.00  0.00    +0.167 A 
ATOM      9  O   LIG    1       30.750 -16.556  12.138  0.00  0.00    -0.453 OA
ATOM     10  C   LIG    1       32.014 -15.928  12.430  0.00  0.00    +0.466 C 
ATOM     11  O   LIG    1       32.942 -15.970  11.321  0.00  0.00    -0.453 OA
ATOM     12  C   LIG    1       32.222 -16.667  10.407  0.00  0.00    +0.166 A 
ATOM     13  C   LIG    1       32.636 -17.027   9.144  0.00  0.00    +0.050 A 
ATOM     14  C   LIG    1       31.763 -17.784   8.353  0.00  0.00    +0.007 A 
ENDBRANCH   5   6
ENDBRANCH   4   5
ENDBRANCH   1   4
BRANCH   1  15
ATOM     15  C   LIG    1       27.699 -20.554   6.979  0.00  0.00    +0.117 C 
BRANCH  15  16
ATOM     16  C   LIG    1       26.926 -21.253   8.125  0.00  0.00    +0.158 C 
BRANCH  16  17
ATOM     17  C   LIG    1       25.640 -21.904   7.648  0.00  0.00    -0.014 A 
ATOM     18  C   LIG    1       25.626 -23.257   7.276  0.00  0.00    +0.055 A 
ATOM     19  C   LIG    1       24.439 -23.843   6.852  0.00  0.00    +0.159 A 
ATOM     20  C   LIG    1       23.258 -23.109   6.793  0.00  0.00    +0.158 A 
ATOM     21  C   LIG    1       23.248 -21.769   7.155  0.00  0.00    +0.049 A 
ATOM     22  C   LIG    1       24.438 -21.171   7.584  0.00  0.00    +0.010 A 
BRANCH  19  23
ATOM     23  O   LIG    1       24.439 -25.161   6.493  0.00  0.00    -0.503 OA
ATOM     24  H   LIG    1       23.911 -25.604   7.187  0.00  0.00    +0.292 HD
ENDBRANCH  19  23
BRANCH  20  25
ATOM     25  O   LIG    1       22.128 -23.755   6.374  0.00  0.00    -0.503 OA
ATOM     26  H   LIG    1       21.952 -23.493   5.454  0.00  0.00    +0.292 HD
ENDBRANCH  20  25
ENDBRANCH  16  17
BRANCH  16  27
ATOM     27  O   LIG    1       26.613 -20.300   9.148  0.00  0.00    -0.386 OA
ATOM     28  H   LIG    1       26.486 -19.447   8.696  0.00  0.00    +0.210 HD
ENDBRANCH  16  27
ENDBRANCH  15  16
ENDBRANCH   1  15
TORSDOF 9
ENDMDL
MODEL 9
REMARK VINA RESULT:      -8.9      1.483      2.328
REMARK  Name = *****
REMARK                            x       y       z     vdW  Elec       q    Type
REMARK                         _______ _______ _______ _____ _____    ______ ____
ROOT
ATOM      1  N   LIG    1       25.451 -22.307   5.574  0.00  0.00    -0.310 NA
ATOM      2  H   LIG    1       26.225 -22.425   4.915  0.00  0.00    +0.122 HD
ENDROOT
BRANCH   1   4
ATOM      3  C   LIG    1       23.993 -20.315   5.787  0.00  0.00    +0.024 C 
ATOM      4  C   LIG    1       25.388 -20.904   6.041  0.00  0.00    +0.055 C 
BRANCH   4   5
ATOM      5  C   LIG    1       26.498 -20.090   5.311  0.00  0.00    +0.053 C 
BRANCH   5   6
ATOM      6  C   LIG    1       27.837 -19.983   6.019  0.00  0.00    -0.042 A 
ATOM      7  C   LIG    1       28.121 -20.823   7.112  0.00  0.00    +0.053 A 
ATOM      8  C   LIG    1       29.366 -20.758   7.695  0.00  0.00    +0.167 A 
ATOM      9  O   LIG    1       29.809 -21.539   8.717  0.00  0.00    -0.453 OA
ATOM     10  C   LIG    1       31.160 -21.059   8.863  0.00  0.00    +0.466 C 
ATOM     11  O   LIG    1       31.479 -19.972   7.964  0.00  0.00    -0.453 OA
ATOM     12  C   LIG    1       30.320 -19.863   7.268  0.00  0.00    +0.166 A 
ATOM     13  C   LIG    1       30.064 -18.979   6.243  0.00  0.00    +0.050 A 
ATOM     14  C   LIG    1       28.814 -19.040   5.614  0.00  0.00    +0.007 A 
ENDBRANCH   5   6
ENDBRANCH   4   5
ENDBRANCH   1   4
BRANCH   1  15
ATOM     15  C   LIG    1       25.643 -23.296   6.654  0.00  0.00    +0.117 C 
BRANCH  15  16
ATOM     16  C   LIG    1       24.473 -24.309   6.728  0.00  0.00    +0.158 C 
BRANCH  16  17
ATOM     17  C   LIG    1       24.877 -25.700   6.274  0.00  0.00    -0.014 A 
ATOM     18  C   LIG    1       26.129 -25.915   5.676  0.00  0.00    +0.055 A 
ATOM     19  C   LIG    1       26.491 -27.194   5.275  0.00  0.00    +0.159 A 
ATOM     20  C   LIG    1       25.632 -28.274   5.458  0.00  0.00    +0.158 A 
ATOM     21  C   LIG    1       24.388 -28.086   6.046  0.00  0.00    +0.049 A 
ATOM     22  C   LIG    1       24.016 -26.800   6.454  0.00  0.00    +0.010 A 
BRANCH  19  23
ATOM     23  O   LIG    1       27.713 -27.390   4.695  0.00  0.00    -0.503 OA
ATOM     24  H   LIG    1       27.895 -28.343   4.822  0.00  0.00    +0.292 HD
ENDBRANCH  19  23
BRANCH  20  25
ATOM     25  O   LIG    1       26.060 -29.506   5.047  0.00  0.00    -0.503 OA
ATOM     26  H   LIG    1       26.612 -29.386   4.255  0.00  0.00    +0.292 HD
ENDBRANCH  20  25
ENDBRANCH  16  17
BRANCH  16  27
ATOM     27  O   LIG    1       23.386 -23.852   5.914  0.00  0.00    -0.386 OA
ATOM     28  H   LIG    1       23.524 -24.239   5.032  0.00  0.00    +0.210 HD
ENDBRANCH  16  27
ENDBRANCH  15  16
ENDBRANCH   1  15
TORSDOF 9
ENDMDL
