MODEL 1
REMARK VINA RESULT:      -4.4      0.000      0.000
REMARK  Name = *****
REMARK                            x       y       z     vdW  Elec       q    Type
REMARK                         _______ _______ _______ _____ _____    ______ ____
ROOT
ATOM      1  C1*   C A  1       24.313 -20.760   4.927  0.00  0.00    +0.255 C 
ATOM      2  C2*   C A  1       23.140 -20.921   5.910  0.00  0.00    +0.195 C 
ATOM      3  C3*   C A  1       21.974 -20.478   5.030  0.00  0.00    +0.178 C 
ATOM      4  C4*   C A  1       22.595 -19.421   4.099  0.00  0.00    +0.177 C 
ATOM      5  O4*   C A  1       24.035 -19.572   4.156  0.00  0.00    -0.346 OA
ENDROOT
BRANCH   1  10
ATOM      6  C4    C A  1       28.124 -20.466   6.504  0.00  0.00    +0.123 C 
ATOM      7  N3    C A  1       27.786 -19.688   5.524  0.00  0.00    -0.178 NA
ATOM      8  C2    C A  1       26.539 -19.807   4.956  0.00  0.00    +0.352 C 
ATOM      9  O2    C A  1       26.211 -19.106   4.002  0.00  0.00    -0.244 OA
ATOM     10  N1    C A  1       25.637 -20.716   5.518  0.00  0.00    -0.270 N 
ATOM     11  C6    C A  1       26.017 -21.572   6.525  0.00  0.00    +0.096 C 
ATOM     12  C5    C A  1       27.237 -21.509   7.055  0.00  0.00    +0.061 C 
BRANCH   6  13
ATOM     13  N4    C A  1       29.366 -20.282   7.045  0.00  0.00    -0.343 N 
ATOM     14  H41   C A  1       29.975 -21.078   6.878  0.00  0.00    +0.144 HD
ATOM     15  H42   C A  1       29.818 -19.393   6.869  0.00  0.00    +0.144 HD
ENDBRANCH   6  13
ENDBRANCH   1  10
BRANCH   2  16
ATOM     16  O2*   C A  1       23.255 -20.074   7.062  0.00  0.00    -0.385 OA
ATOM     17  H2*   C A  1       22.354 -19.834   7.365  0.00  0.00    +0.210 HD
ENDBRANCH   2  16
BRANCH   3  18
ATOM     18  O3*   C A  1       21.455 -21.570   4.259  0.00  0.00    -0.386 OA
ATOM     19  H3*   C A  1       21.545 -22.403   4.752  0.00  0.00    +0.210 HD
ENDBRANCH   3  18
BRANCH   4  20
ATOM     20  C5*   C A  1       22.263 -17.986   4.507  0.00  0.00    +0.190 C 
BRANCH  20  21
ATOM     21  O5*   C A  1       23.285 -17.090   4.067  0.00  0.00    -0.392 OA
ATOM     22  H5*   C A  1       24.132 -17.505   4.319  0.00  0.00    +0.209 HD
ENDBRANCH  20  21
ENDBRANCH   4  20
TORSDOF 6
ENDMDL
MODEL 2
REMARK VINA RESULT:      -3.8      3.252      4.805
REMARK  Name = *****
REMARK                            x       y       z     vdW  Elec       q    Type
REMARK                         _______ _______ _______ _____ _____    ______ ____
ROOT
ATOM      1  C1*   C A  1       23.986 -18.653   3.679  0.00  0.00    +0.255 C 
ATOM      2  C2*   C A  1       25.094 -19.712   3.558  0.00  0.00    +0.195 C 
ATOM      3  C3*   C A  1       24.333 -20.965   3.982  0.00  0.00    +0.178 C 
ATOM      4  C4*   C A  1       23.308 -20.445   5.006  0.00  0.00    +0.177 C 
ATOM      5  O4*   C A  1       23.212 -19.008   4.845  0.00  0.00    -0.346 OA
ENDROOT
BRANCH   1  10
ATOM      6  C4    C A  1       25.075 -14.673   3.933  0.00  0.00    +0.123 C 
ATOM      7  N3    C A  1       23.886 -15.024   4.307  0.00  0.00    -0.178 NA
ATOM      8  C2    C A  1       23.491 -16.336   4.182  0.00  0.00    +0.352 C 
ATOM      9  O2    C A  1       22.355 -16.685   4.495  0.00  0.00    -0.244 OA
ATOM     10  N1    C A  1       24.427 -17.272   3.732  0.00  0.00    -0.270 N 
ATOM     11  C6    C A  1       25.671 -16.885   3.292  0.00  0.00    +0.096 C 
ATOM     12  C5    C A  1       26.056 -15.612   3.354  0.00  0.00    +0.061 C 
BRANCH   6  13
ATOM     13  N4    C A  1       25.419 -13.361   4.106  0.00  0.00    -0.343 N 
ATOM     14  H41   C A  1       25.277 -12.816   3.260  0.00  0.00    +0.144 HD
ATOM     15  H42   C A  1       25.073 -12.899   4.938  0.00  0.00    +0.144 HD
ENDBRANCH   6  13
ENDBRANCH   1  10
BRANCH   2  16
ATOM     16  O2*   C A  1       26.200 -19.469   4.440  0.00  0.00    -0.385 OA
ATOM     17  H2*   C A  1       26.033 -19.933   5.287  0.00  0.00    +0.210 HD
ENDBRANCH   2  16
BRANCH   3  18
ATOM     18  O3*   C A  1       23.658 -21.570   2.872  0.00  0.00    -0.386 OA
ATOM     19  H3*   C A  1       23.181 -22.367   3.162  0.00  0.00    +0.210 HD
ENDBRANCH   3  18
BRANCH   4  20
ATOM     20  C5*   C A  1       23.704 -20.725   6.456  0.00  0.00    +0.190 C 
BRANCH  20  21
ATOM     21  O5*   C A  1       24.996 -21.329   6.514  0.00  0.00    -0.392 OA
ATOM     22  H5*   C A  1       24.880 -22.243   6.189  0.00  0.00    +0.209 HD
ENDBRANCH  20  21
ENDBRANCH   4  20
TORSDOF 6
ENDMDL
MODEL 3
REMARK VINA RESULT:      -3.6      3.064      4.611
REMARK  Name = *****
REMARK                            x       y       z     vdW  Elec       q    Type
REMARK                         _______ _______ _______ _____ _____    ______ ____
ROOT
ATOM      1  C1*   C A  1       23.871 -18.621   3.620  0.00  0.00    +0.255 C 
ATOM      2  C2*   C A  1       25.004 -19.643   3.818  0.00  0.00    +0.195 C 
ATOM      3  C3*   C A  1       24.196 -20.911   4.076  0.00  0.00    +0.178 C 
ATOM      4  C4*   C A  1       22.929 -20.404   4.788  0.00  0.00    +0.177 C 
ATOM      5  O4*   C A  1       22.837 -18.976   4.562  0.00  0.00    -0.346 OA
ENDROOT
BRANCH   1  10
ATOM      6  C4    C A  1       25.099 -14.679   3.840  0.00  0.00    +0.123 C 
ATOM      7  N3    C A  1       25.896 -15.559   3.319  0.00  0.00    -0.178 NA
ATOM      8  C2    C A  1       25.522 -16.882   3.284  0.00  0.00    +0.352 C 
ATOM      9  O2    C A  1       26.278 -17.738   2.830  0.00  0.00    -0.244 OA
ATOM     10  N1    C A  1       24.245 -17.225   3.738  0.00  0.00    -0.270 N 
ATOM     11  C6    C A  1       23.423 -16.296   4.332  0.00  0.00    +0.096 C 
ATOM     12  C5    C A  1       23.786 -15.018   4.424  0.00  0.00    +0.061 C 
BRANCH   6  13
ATOM     13  N4    C A  1       25.513 -13.376   3.822  0.00  0.00    -0.343 N 
ATOM     14  H41   C A  1       26.386 -13.263   3.314  0.00  0.00    +0.144 HD
ATOM     15  H42   C A  1       24.822 -12.676   3.584  0.00  0.00    +0.144 HD
ENDBRANCH   6  13
ENDBRANCH   1  10
BRANCH   2  16
ATOM     16  O2*   C A  1       25.841 -19.339   4.943  0.00  0.00    -0.385 OA
ATOM     17  H2*   C A  1       25.922 -20.142   5.499  0.00  0.00    +0.210 HD
ENDBRANCH   2  16
BRANCH   3  18
ATOM     18  O3*   C A  1       23.843 -21.567   2.850  0.00  0.00    -0.386 OA
ATOM     19  H3*   C A  1       24.505 -22.245   2.628  0.00  0.00    +0.210 HD
ENDBRANCH   3  18
BRANCH   4  20
ATOM     20  C5*   C A  1       22.950 -20.634   6.299  0.00  0.00    +0.190 C 
BRANCH  20  21
ATOM     21  O5*   C A  1       24.209 -21.174   6.706  0.00  0.00    -0.392 OA
ATOM     22  H5*   C A  1       24.201 -21.165   7.682  0.00  0.00    +0.209 HD
ENDBRANCH  20  21
ENDBRANCH   4  20
TORSDOF 6
ENDMDL
MODEL 4
REMARK VINA RESULT:      -3.5      3.806      5.501
REMARK  Name = *****
REMARK                            x       y       z     vdW  Elec       q    Type
REMARK                         _______ _______ _______ _____ _____    ______ ____
ROOT
ATOM      1  C1*   C A  1       26.737 -16.346   3.303  0.00  0.00    +0.255 C 
ATOM      2  C2*   C A  1       25.600 -15.338   3.067  0.00  0.00    +0.195 C 
ATOM      3  C3*   C A  1       26.378 -14.025   3.102  0.00  0.00    +0.178 C 
ATOM      4  C4*   C A  1       27.522 -14.300   4.094  0.00  0.00    +0.177 C 
ATOM      5  O4*   C A  1       27.629 -15.736   4.260  0.00  0.00    -0.346 OA
ENDROOT
BRANCH   1  10
ATOM      6  C4    C A  1       25.751 -20.141   4.617  0.00  0.00    +0.123 C 
ATOM      7  N3    C A  1       26.913 -19.653   4.918  0.00  0.00    -0.178 NA
ATOM      8  C2    C A  1       27.275 -18.413   4.447  0.00  0.00    +0.352 C 
ATOM      9  O2    C A  1       28.387 -17.947   4.688  0.00  0.00    -0.244 OA
ATOM     10  N1    C A  1       26.333 -17.675   3.723  0.00  0.00    -0.270 N 
ATOM     11  C6    C A  1       25.121 -18.217   3.367  0.00  0.00    +0.096 C 
ATOM     12  C5    C A  1       24.770 -19.437   3.768  0.00  0.00    +0.061 C 
BRANCH   6  13
ATOM     13  N4    C A  1       25.437 -21.366   5.137  0.00  0.00    -0.343 N 
ATOM     14  H41   C A  1       26.267 -21.894   5.391  0.00  0.00    +0.144 HD
ATOM     15  H42   C A  1       24.715 -21.394   5.847  0.00  0.00    +0.144 HD
ENDBRANCH   6  13
ENDBRANCH   1  10
BRANCH   2  16
ATOM     16  O2*   C A  1       24.605 -15.364   4.101  0.00  0.00    -0.385 OA
ATOM     17  H2*   C A  1       24.591 -16.259   4.499  0.00  0.00    +0.210 HD
ENDBRANCH   2  16
BRANCH   3  18
ATOM     18  O3*   C A  1       26.912 -13.698   1.812  0.00  0.00    -0.386 OA
ATOM     19  H3*   C A  1       26.193 -13.606   1.163  0.00  0.00    +0.210 HD
ENDBRANCH   3  18
BRANCH   4  20
ATOM     20  C5*   C A  1       27.285 -13.689   5.476  0.00  0.00    +0.190 C 
BRANCH  20  21
ATOM     21  O5*   C A  1       26.061 -12.952   5.494  0.00  0.00    -0.392 OA
ATOM     22  H5*   C A  1       26.225 -12.177   6.064  0.00  0.00    +0.209 HD
ENDBRANCH  20  21
ENDBRANCH   4  20
TORSDOF 6
ENDMDL
MODEL 5
REMARK VINA RESULT:      -3.1      4.043      6.120
REMARK  Name = *****
REMARK                            x       y       z     vdW  Elec       q    Type
REMARK                         _______ _______ _______ _____ _____    ______ ____
ROOT
ATOM      1  C1*   C A  1       24.859 -15.482   3.369  0.00  0.00    +0.255 C 
ATOM      2  C2*   C A  1       24.058 -14.218   3.725  0.00  0.00    +0.195 C 
ATOM      3  C3*   C A  1       25.150 -13.157   3.629  0.00  0.00    +0.178 C 
ATOM      4  C4*   C A  1       26.427 -13.902   4.059  0.00  0.00    +0.177 C 
ATOM      5  O4*   C A  1       26.157 -15.324   3.979  0.00  0.00    -0.346 OA
ENDROOT
BRANCH   1  10
ATOM      6  C4    C A  1       23.299 -19.176   4.376  0.00  0.00    +0.123 C 
ATOM      7  N3    C A  1       24.492 -19.112   3.873  0.00  0.00    -0.178 NA
ATOM      8  C2    C A  1       25.006 -17.897   3.487  0.00  0.00    +0.352 C 
ATOM      9  O2    C A  1       26.119 -17.818   2.974  0.00  0.00    -0.244 OA
ATOM     10  N1    C A  1       24.249 -16.747   3.732  0.00  0.00    -0.270 N 
ATOM     11  C6    C A  1       22.966 -16.826   4.221  0.00  0.00    +0.096 C 
ATOM     12  C5    C A  1       22.428 -17.998   4.553  0.00  0.00    +0.061 C 
BRANCH   6  13
ATOM     13  N4    C A  1       22.853 -20.409   4.765  0.00  0.00    -0.343 N 
ATOM     14  H41   C A  1       22.325 -20.871   4.031  0.00  0.00    +0.144 HD
ATOM     15  H42   C A  1       23.523 -21.019   5.217  0.00  0.00    +0.144 HD
ENDBRANCH   6  13
ENDBRANCH   1  10
BRANCH   2  16
ATOM     16  O2*   C A  1       23.506 -14.259   5.049  0.00  0.00    -0.385 OA
ATOM     17  H2*   C A  1       23.772 -13.444   5.524  0.00  0.00    +0.210 HD
ENDBRANCH   2  16
BRANCH   3  18
ATOM     18  O3*   C A  1       25.291 -12.669   2.289  0.00  0.00    -0.386 OA
ATOM     19  H3*   C A  1       26.021 -12.027   2.240  0.00  0.00    +0.210 HD
ENDBRANCH   3  18
BRANCH   4  20
ATOM     20  C5*   C A  1       26.857 -13.590   5.492  0.00  0.00    +0.190 C 
BRANCH  20  21
ATOM     21  O5*   C A  1       27.930 -12.648   5.499  0.00  0.00    -0.392 OA
ATOM     22  H5*   C A  1       28.750 -13.175   5.565  0.00  0.00    +0.209 HD
ENDBRANCH  20  21
ENDBRANCH   4  20
TORSDOF 6
ENDMDL
MODEL 6
REMARK VINA RESULT:      -2.9      4.418      6.690
REMARK  Name = *****
REMARK                            x       y       z     vdW  Elec       q    Type
REMARK                         _______ _______ _______ _____ _____    ______ ____
ROOT
ATOM      1  C1*   C A  1       25.197 -14.923   3.812  0.00  0.00    +0.255 C 
ATOM      2  C2*   C A  1       24.881 -14.000   2.623  0.00  0.00    +0.195 C 
ATOM      3  C3*   C A  1       25.654 -12.748   3.027  0.00  0.00    +0.178 C 
ATOM      4  C4*   C A  1       25.587 -12.753   4.565  0.00  0.00    +0.177 C 
ATOM      5  O4*   C A  1       25.201 -14.084   4.987  0.00  0.00    -0.346 OA
ENDROOT
BRANCH   1  10
ATOM      6  C4    C A  1       22.867 -18.312   4.243  0.00  0.00    +0.123 C 
ATOM      7  N3    C A  1       24.063 -18.428   3.759  0.00  0.00    -0.178 NA
ATOM      8  C2    C A  1       24.832 -17.305   3.563  0.00  0.00    +0.352 C 
ATOM      9  O2    C A  1       25.955 -17.388   3.069  0.00  0.00    -0.244 OA
ATOM     10  N1    C A  1       24.324 -16.070   3.978  0.00  0.00    -0.270 N 
ATOM     11  C6    C A  1       23.038 -15.947   4.447  0.00  0.00    +0.096 C 
ATOM     12  C5    C A  1       22.256 -17.015   4.596  0.00  0.00    +0.061 C 
BRANCH   6  13
ATOM     13  N4    C A  1       22.161 -19.466   4.440  0.00  0.00    -0.343 N 
ATOM     14  H41   C A  1       21.233 -19.284   4.812  0.00  0.00    +0.144 HD
ATOM     15  H42   C A  1       22.161 -20.141   3.686  0.00  0.00    +0.144 HD
ENDBRANCH   6  13
ENDBRANCH   1  10
BRANCH   2  16
ATOM     16  O2*   C A  1       23.481 -13.712   2.495  0.00  0.00    -0.385 OA
ATOM     17  H2*   C A  1       23.378 -12.777   2.217  0.00  0.00    +0.210 HD
ENDBRANCH   2  16
BRANCH   3  18
ATOM     18  O3*   C A  1       27.019 -12.811   2.592  0.00  0.00    -0.386 OA
ATOM     19  H3*   C A  1       27.145 -12.264   1.798  0.00  0.00    +0.210 HD
ENDBRANCH   3  18
BRANCH   4  20
ATOM     20  C5*   C A  1       24.561 -11.771   5.130  0.00  0.00    +0.190 C 
BRANCH  20  21
ATOM     21  O5*   C A  1       23.581 -11.447   4.142  0.00  0.00    -0.392 OA
ATOM     22  H5*   C A  1       23.701 -10.498   3.946  0.00  0.00    +0.209 HD
ENDBRANCH  20  21
ENDBRANCH   4  20
TORSDOF 6
ENDMDL
MODEL 7
REMARK VINA RESULT:      -2.9      4.540      6.523
REMARK  Name = *****
REMARK                            x       y       z     vdW  Elec       q    Type
REMARK                         _______ _______ _______ _____ _____    ______ ____
ROOT
ATOM      1  C1*   C A  1       24.056 -14.438   4.082  0.00  0.00    +0.255 C 
ATOM      2  C2*   C A  1       25.066 -13.562   4.844  0.00  0.00    +0.195 C 
ATOM      3  C3*   C A  1       24.564 -12.169   4.473  0.00  0.00    +0.178 C 
ATOM      4  C4*   C A  1       23.993 -12.348   3.054  0.00  0.00    +0.177 C 
ATOM      5  O4*   C A  1       23.800 -13.767   2.831  0.00  0.00    -0.346 OA
ENDROOT
BRANCH   1  10
ATOM      6  C4    C A  1       24.962 -18.434   3.528  0.00  0.00    +0.123 C 
ATOM      7  N3    C A  1       23.791 -18.111   3.980  0.00  0.00    -0.178 NA
ATOM      8  C2    C A  1       23.492 -16.790   4.216  0.00  0.00    +0.352 C 
ATOM      9  O2    C A  1       22.401 -16.464   4.680  0.00  0.00    -0.244 OA
ATOM     10  N1    C A  1       24.442 -15.822   3.876  0.00  0.00    -0.270 N 
ATOM     11  C6    C A  1       25.699 -16.173   3.443  0.00  0.00    +0.096 C 
ATOM     12  C5    C A  1       26.028 -17.450   3.257  0.00  0.00    +0.061 C 
BRANCH   6  13
ATOM     13  N4    C A  1       25.192 -19.760   3.287  0.00  0.00    -0.343 N 
ATOM     14  H41   C A  1       25.592 -20.229   4.096  0.00  0.00    +0.144 HD
ATOM     15  H42   C A  1       24.443 -20.286   2.853  0.00  0.00    +0.144 HD
ENDBRANCH   6  13
ENDBRANCH   1  10
BRANCH   2  16
ATOM     16  O2*   C A  1       26.417 -13.748   4.398  0.00  0.00    -0.385 OA
ATOM     17  H2*   C A  1       26.887 -12.889   4.455  0.00  0.00    +0.210 HD
ENDBRANCH   2  16
BRANCH   3  18
ATOM     18  O3*   C A  1       23.533 -11.728   5.367  0.00  0.00    -0.386 OA
ATOM     19  H3*   C A  1       23.314 -10.796   5.194  0.00  0.00    +0.210 HD
ENDBRANCH   3  18
BRANCH   4  20
ATOM     20  C5*   C A  1       24.923 -11.828   1.958  0.00  0.00    +0.190 C 
BRANCH  20  21
ATOM     21  O5*   C A  1       26.075 -12.663   1.840  0.00  0.00    -0.392 OA
ATOM     22  H5*   C A  1       25.808 -13.409   1.269  0.00  0.00    +0.209 HD
ENDBRANCH  20  21
ENDBRANCH   4  20
TORSDOF 6
ENDMDL
MODEL 8
REMARK VINA RESULT:      -2.7      4.426      5.851
REMARK  Name = *****
REMARK                            x       y       z     vdW  Elec       q    Type
REMARK                         _______ _______ _______ _____ _____    ______ ____
ROOT
ATOM      1  C1*   C A  1       25.597 -15.371   2.905  0.00  0.00    +0.255 C 
ATOM      2  C2*   C A  1       24.886 -14.457   3.918  0.00  0.00    +0.195 C 
ATOM      3  C3*   C A  1       24.953 -13.120   3.185  0.00  0.00    +0.178 C 
ATOM      4  C4*   C A  1       26.271 -13.200   2.393  0.00  0.00    +0.177 C 
ATOM      5  O4*   C A  1       26.673 -14.591   2.342  0.00  0.00    -0.346 OA
ENDROOT
BRANCH   1  10
ATOM      6  C4    C A  1       27.099 -18.896   4.458  0.00  0.00    +0.123 C 
ATOM      7  N3    C A  1       27.800 -17.812   4.565  0.00  0.00    -0.178 NA
ATOM      8  C2    C A  1       27.337 -16.642   4.010  0.00  0.00    +0.352 C 
ATOM      9  O2    C A  1       28.004 -15.611   4.066  0.00  0.00    -0.244 OA
ATOM     10  N1    C A  1       26.071 -16.642   3.417  0.00  0.00    -0.270 N 
ATOM     11  C6    C A  1       25.353 -17.805   3.265  0.00  0.00    +0.096 C 
ATOM     12  C5    C A  1       25.806 -18.960   3.748  0.00  0.00    +0.061 C 
BRANCH   6  13
ATOM     13  N4    C A  1       27.598 -20.022   5.053  0.00  0.00    -0.343 N 
ATOM     14  H41   C A  1       27.270 -20.122   6.010  0.00  0.00    +0.144 HD
ATOM     15  H42   C A  1       27.548 -20.884   4.524  0.00  0.00    +0.144 HD
ENDBRANCH   6  13
ENDBRANCH   1  10
BRANCH   2  16
ATOM     16  O2*   C A  1       25.569 -14.379   5.177  0.00  0.00    -0.385 OA
ATOM     17  H2*   C A  1       25.889 -13.461   5.304  0.00  0.00    +0.210 HD
ENDBRANCH   2  16
BRANCH   3  18
ATOM     18  O3*   C A  1       23.847 -12.957   2.288  0.00  0.00    -0.386 OA
ATOM     19  H3*   C A  1       24.168 -12.785   1.386  0.00  0.00    +0.210 HD
ENDBRANCH   3  18
BRANCH   4  20
ATOM     20  C5*   C A  1       27.412 -12.410   3.033  0.00  0.00    +0.190 C 
BRANCH  20  21
ATOM     21  O5*   C A  1       28.611 -13.185   3.049  0.00  0.00    -0.392 OA
ATOM     22  H5*   C A  1       29.208 -12.741   3.682  0.00  0.00    +0.209 HD
ENDBRANCH  20  21
ENDBRANCH   4  20
TORSDOF 6
ENDMDL
MODEL 9
REMARK VINA RESULT:      -2.6      1.341      2.768
REMARK  Name = *****
REMARK                            x       y       z     vdW  Elec       q    Type
REMARK                         _______ _______ _______ _____ _____    ______ ____
ROOT
ATOM      1  C1*   C A  1       24.739 -19.490   5.176  0.00  0.00    +0.255 C 
ATOM      2  C2*   C A  1       24.429 -19.747   3.691  0.00  0.00    +0.195 C 
ATOM      3  C3*   C A  1       22.916 -19.555   3.683  0.00  0.00    +0.178 C 
ATOM      4  C4*   C A  1       22.476 -20.033   5.079  0.00  0.00    +0.177 C 
ATOM      5  O4*   C A  1       23.652 -20.074   5.924  0.00  0.00    -0.346 OA
ENDROOT
BRANCH   1  10
ATOM      6  C4    C A  1       28.314 -20.989   6.615  0.00  0.00    +0.123 C 
ATOM      7  N3    C A  1       27.201 -21.491   7.049  0.00  0.00    -0.178 NA
ATOM      8  C2    C A  1       26.003 -20.970   6.617  0.00  0.00    +0.352 C 
ATOM      9  O2    C A  1       24.936 -21.406   7.044  0.00  0.00    -0.244 OA
ATOM     10  N1    C A  1       26.027 -19.962   5.648  0.00  0.00    -0.270 N 
ATOM     11  C6    C A  1       27.210 -19.401   5.228  0.00  0.00    +0.096 C 
ATOM     12  C5    C A  1       28.381 -19.855   5.673  0.00  0.00    +0.061 C 
BRANCH   6  13
ATOM     13  N4    C A  1       29.471 -21.566   7.059  0.00  0.00    -0.343 N 
ATOM     14  H41   C A  1       29.290 -22.361   7.666  0.00  0.00    +0.144 HD
ATOM     15  H42   C A  1       30.189 -21.749   6.369  0.00  0.00    +0.144 HD
ENDBRANCH   6  13
ENDBRANCH   1  10
BRANCH   2  16
ATOM     16  O2*   C A  1       24.773 -21.074   3.269  0.00  0.00    -0.385 OA
ATOM     17  H2*   C A  1       25.749 -21.166   3.287  0.00  0.00    +0.210 HD
ENDBRANCH   2  16
BRANCH   3  18
ATOM     18  O3*   C A  1       22.562 -18.178   3.500  0.00  0.00    -0.386 OA
ATOM     19  H3*   C A  1       23.279 -17.601   3.818  0.00  0.00    +0.210 HD
ENDBRANCH   3  18
BRANCH   4  20
ATOM     20  C5*   C A  1       21.860 -21.432   5.073  0.00  0.00    +0.190 C 
BRANCH  20  21
ATOM     21  O5*   C A  1       20.860 -21.535   4.057  0.00  0.00    -0.392 OA
ATOM     22  H5*   C A  1       20.322 -22.317   4.289  0.00  0.00    +0.209 HD
ENDBRANCH  20  21
ENDBRANCH   4  20
TORSDOF 6
ENDMDL
