MODEL 1
REMARK VINA RESULT:      -9.1      0.000      0.000
REMARK  Name = *****
REMARK                            x       y       z     vdW  Elec       q    Type
REMARK                         _______ _______ _______ _____ _____    ______ ____
ROOT
ATOM      1  O   LIG    1       26.507 -20.761   8.938  0.00  0.00    -0.286 OA
ATOM      2  C   LIG    1       26.544 -20.544   7.731  0.00  0.00    +0.200 C 
ATOM      3  C   LIG    1       27.787 -20.126   7.021  0.00  0.00    +0.064 C 
ATOM      4  C   LIG    1       27.695 -19.939   5.695  0.00  0.00    +0.208 C 
ATOM      5  O   LIG    1       26.570 -20.072   4.917  0.00  0.00    -0.462 OA
ATOM      6  C   LIG    1       25.407 -20.442   5.540  0.00  0.00    +0.138 A 
ATOM      7  C   LIG    1       24.270 -20.573   4.742  0.00  0.00    +0.047 A 
ATOM      8  C   LIG    1       23.055 -20.950   5.318  0.00  0.00    +0.004 A 
ATOM      9  C   LIG    1       22.977 -21.197   6.690  0.00  0.00    +0.001 A 
ATOM     10  C   LIG    1       24.114 -21.067   7.489  0.00  0.00    +0.015 A 
ATOM     11  C   LIG    1       25.330 -20.688   6.908  0.00  0.00    +0.065 A 
ENDROOT
BRANCH   3  12
ATOM     12  C   LIG    1       29.079 -19.957   7.715  0.00  0.00    -0.011 A 
ATOM     13  C   LIG    1       29.855 -21.069   8.077  0.00  0.00    +0.009 A 
ATOM     14  C   LIG    1       31.073 -20.904   8.742  0.00  0.00    +0.001 A 
ATOM     15  C   LIG    1       31.531 -19.625   9.050  0.00  0.00    +0.000 A 
ATOM     16  C   LIG    1       30.776 -18.512   8.690  0.00  0.00    +0.001 A 
ATOM     17  C   LIG    1       29.558 -18.677   8.026  0.00  0.00    +0.009 A 
ENDBRANCH   3  12
TORSDOF 1
ENDMDL
MODEL 2
REMARK VINA RESULT:      -8.9      0.725      2.010
REMARK  Name = *****
REMARK                            x       y       z     vdW  Elec       q    Type
REMARK                         _______ _______ _______ _____ _____    ______ ____
ROOT
ATOM      1  O   LIG    1       27.621 -19.993   5.218  0.00  0.00    -0.286 OA
ATOM      2  C   LIG    1       26.858 -20.250   6.143  0.00  0.00    +0.200 C 
ATOM      3  C   LIG    1       27.311 -20.363   7.560  0.00  0.00    +0.064 C 
ATOM      4  C   LIG    1       26.370 -20.631   8.479  0.00  0.00    +0.208 C 
ATOM      5  O   LIG    1       25.030 -20.834   8.255  0.00  0.00    -0.462 OA
ATOM      6  C   LIG    1       24.582 -20.750   6.962  0.00  0.00    +0.138 A 
ATOM      7  C   LIG    1       23.219 -20.959   6.745  0.00  0.00    +0.047 A 
ATOM      8  C   LIG    1       22.702 -20.884   5.450  0.00  0.00    +0.004 A 
ATOM      9  C   LIG    1       23.544 -20.601   4.374  0.00  0.00    +0.001 A 
ATOM     10  C   LIG    1       24.907 -20.391   4.590  0.00  0.00    +0.015 A 
ATOM     11  C   LIG    1       25.423 -20.467   5.889  0.00  0.00    +0.065 A 
ENDROOT
BRANCH   3  12
ATOM     12  C   LIG    1       28.716 -20.156   7.962  0.00  0.00    -0.011 A 
ATOM     13  C   LIG    1       29.577 -21.247   8.164  0.00  0.00    +0.009 A 
ATOM     14  C   LIG    1       30.905 -21.046   8.554  0.00  0.00    +0.001 A 
ATOM     15  C   LIG    1       31.387 -19.754   8.743  0.00  0.00    +0.000 A 
ATOM     16  C   LIG    1       30.547 -18.662   8.539  0.00  0.00    +0.001 A 
ATOM     17  C   LIG    1       29.220 -18.862   8.151  0.00  0.00    +0.009 A 
ENDBRANCH   3  12
TORSDOF 1
ENDMDL
MODEL 3
REMARK VINA RESULT:      -8.9      1.744      6.032
REMARK  Name = *****
REMARK                            x       y       z     vdW  Elec       q    Type
REMARK                         _______ _______ _______ _____ _____    ______ ____
ROOT
ATOM      1  O   LIG    1       26.226 -20.300   5.231  0.00  0.00    -0.286 OA
ATOM      2  C   LIG    1       26.876 -20.636   6.214  0.00  0.00    +0.200 C 
ATOM      3  C   LIG    1       26.400 -21.659   7.190  0.00  0.00    +0.064 C 
ATOM      4  C   LIG    1       27.217 -21.948   8.215  0.00  0.00    +0.208 C 
ATOM      5  O   LIG    1       28.445 -21.389   8.476  0.00  0.00    -0.462 OA
ATOM      6  C   LIG    1       28.908 -20.436   7.606  0.00  0.00    +0.138 A 
ATOM      7  C   LIG    1       30.155 -19.874   7.881  0.00  0.00    +0.047 A 
ATOM      8  C   LIG    1       30.681 -18.899   7.030  0.00  0.00    +0.004 A 
ATOM      9  C   LIG    1       29.963 -18.489   5.906  0.00  0.00    +0.001 A 
ATOM     10  C   LIG    1       28.716 -19.052   5.630  0.00  0.00    +0.015 A 
ATOM     11  C   LIG    1       28.191 -20.028   6.485  0.00  0.00    +0.065 A 
ENDROOT
BRANCH   3  12
ATOM     12  C   LIG    1       25.110 -22.360   7.038  0.00  0.00    -0.011 A 
ATOM     13  C   LIG    1       25.065 -23.722   6.698  0.00  0.00    +0.009 A 
ATOM     14  C   LIG    1       23.841 -24.380   6.546  0.00  0.00    +0.001 A 
ATOM     15  C   LIG    1       22.649 -23.686   6.735  0.00  0.00    +0.000 A 
ATOM     16  C   LIG    1       22.678 -22.337   7.080  0.00  0.00    +0.001 A 
ATOM     17  C   LIG    1       23.901 -21.679   7.231  0.00  0.00    +0.009 A 
ENDBRANCH   3  12
TORSDOF 1
ENDMDL
MODEL 4
REMARK VINA RESULT:      -8.7      1.509      5.806
REMARK  Name = *****
REMARK                            x       y       z     vdW  Elec       q    Type
REMARK                         _______ _______ _______ _____ _____    ______ ____
ROOT
ATOM      1  O   LIG    1       27.570 -21.974   8.792  0.00  0.00    -0.286 OA
ATOM      2  C   LIG    1       27.731 -21.264   7.806  0.00  0.00    +0.200 C 
ATOM      3  C   LIG    1       26.698 -21.111   6.740  0.00  0.00    +0.064 C 
ATOM      4  C   LIG    1       26.993 -20.289   5.721  0.00  0.00    +0.208 C 
ATOM      5  O   LIG    1       28.157 -19.581   5.540  0.00  0.00    -0.462 OA
ATOM      6  C   LIG    1       29.133 -19.708   6.495  0.00  0.00    +0.138 A 
ATOM      7  C   LIG    1       30.312 -18.987   6.301  0.00  0.00    +0.047 A 
ATOM      8  C   LIG    1       31.342 -19.073   7.240  0.00  0.00    +0.004 A 
ATOM      9  C   LIG    1       31.195 -19.879   8.369  0.00  0.00    +0.001 A 
ATOM     10  C   LIG    1       30.015 -20.600   8.565  0.00  0.00    +0.015 A 
ATOM     11  C   LIG    1       28.985 -20.511   7.622  0.00  0.00    +0.065 A 
ENDROOT
BRANCH   3  12
ATOM     12  C   LIG    1       25.390 -21.793   6.800  0.00  0.00    -0.011 A 
ATOM     13  C   LIG    1       25.270 -23.154   6.476  0.00  0.00    +0.009 A 
ATOM     14  C   LIG    1       24.028 -23.793   6.525  0.00  0.00    +0.001 A 
ATOM     15  C   LIG    1       22.892 -23.081   6.902  0.00  0.00    +0.000 A 
ATOM     16  C   LIG    1       22.997 -21.732   7.234  0.00  0.00    +0.001 A 
ATOM     17  C   LIG    1       24.238 -21.092   7.183  0.00  0.00    +0.009 A 
ENDBRANCH   3  12
TORSDOF 1
ENDMDL
MODEL 5
REMARK VINA RESULT:      -8.4      1.117      6.227
REMARK  Name = *****
REMARK                            x       y       z     vdW  Elec       q    Type
REMARK                         _______ _______ _______ _____ _____    ______ ____
ROOT
ATOM      1  O   LIG    1       27.645 -19.083   5.175  0.00  0.00    -0.286 OA
ATOM      2  C   LIG    1       27.767 -19.854   6.121  0.00  0.00    +0.200 C 
ATOM      3  C   LIG    1       26.652 -20.714   6.614  0.00  0.00    +0.064 C 
ATOM      4  C   LIG    1       26.924 -21.527   7.647  0.00  0.00    +0.208 C 
ATOM      5  O   LIG    1       28.118 -21.642   8.317  0.00  0.00    -0.462 OA
ATOM      6  C   LIG    1       29.160 -20.856   7.898  0.00  0.00    +0.138 A 
ATOM      7  C   LIG    1       30.368 -20.979   8.587  0.00  0.00    +0.047 A 
ATOM      8  C   LIG    1       31.467 -20.206   8.205  0.00  0.00    +0.004 A 
ATOM      9  C   LIG    1       31.360 -19.314   7.138  0.00  0.00    +0.001 A 
ATOM     10  C   LIG    1       30.152 -19.191   6.448  0.00  0.00    +0.015 A 
ATOM     11  C   LIG    1       29.052 -19.966   6.833  0.00  0.00    +0.065 A 
ENDROOT
BRANCH   3  12
ATOM     12  C   LIG    1       25.316 -20.716   5.988  0.00  0.00    -0.011 A 
ATOM     13  C   LIG    1       25.173 -20.714   4.591  0.00  0.00    +0.009 A 
ATOM     14  C   LIG    1       23.905 -20.707   4.002  0.00  0.00    +0.001 A 
ATOM     15  C   LIG    1       22.765 -20.706   4.803  0.00  0.00    +0.000 A 
ATOM     16  C   LIG    1       22.891 -20.717   6.190  0.00  0.00    +0.001 A 
ATOM     17  C   LIG    1       24.158 -20.723   6.779  0.00  0.00    +0.009 A 
ENDBRANCH   3  12
TORSDOF 1
ENDMDL
MODEL 6
REMARK VINA RESULT:      -7.9      1.102      5.907
REMARK  Name = *****
REMARK                            x       y       z     vdW  Elec       q    Type
REMARK                         _______ _______ _______ _____ _____    ______ ____
ROOT
ATOM      1  O   LIG    1       27.174 -21.534   8.511  0.00  0.00    -0.286 OA
ATOM      2  C   LIG    1       27.628 -20.840   7.608  0.00  0.00    +0.200 C 
ATOM      3  C   LIG    1       26.820 -20.418   6.426  0.00  0.00    +0.064 C 
ATOM      4  C   LIG    1       27.433 -19.643   5.517  0.00  0.00    +0.208 C 
ATOM      5  O   LIG    1       28.736 -19.209   5.545  0.00  0.00    -0.462 OA
ATOM      6  C   LIG    1       29.511 -19.590   6.610  0.00  0.00    +0.138 A 
ATOM      7  C   LIG    1       30.833 -19.145   6.627  0.00  0.00    +0.047 A 
ATOM      8  C   LIG    1       31.672 -19.498   7.687  0.00  0.00    +0.004 A 
ATOM      9  C   LIG    1       31.189 -20.293   8.727  0.00  0.00    +0.001 A 
ATOM     10  C   LIG    1       29.866 -20.737   8.711  0.00  0.00    +0.015 A 
ATOM     11  C   LIG    1       29.028 -20.382   7.647  0.00  0.00    +0.065 A 
ENDROOT
BRANCH   3  12
ATOM     12  C   LIG    1       25.401 -20.790   6.262  0.00  0.00    -0.011 A 
ATOM     13  C   LIG    1       24.839 -20.947   4.984  0.00  0.00    +0.009 A 
ATOM     14  C   LIG    1       23.493 -21.291   4.833  0.00  0.00    +0.001 A 
ATOM     15  C   LIG    1       22.693 -21.484   5.957  0.00  0.00    +0.000 A 
ATOM     16  C   LIG    1       23.239 -21.340   7.231  0.00  0.00    +0.001 A 
ATOM     17  C   LIG    1       24.584 -20.995   7.382  0.00  0.00    +0.009 A 
ENDBRANCH   3  12
TORSDOF 1
ENDMDL
MODEL 7
REMARK VINA RESULT:      -7.2      5.054      7.007
REMARK  Name = *****
REMARK                            x       y       z     vdW  Elec       q    Type
REMARK                         _______ _______ _______ _____ _____    ______ ____
ROOT
ATOM      1  O   LIG    1       22.807 -24.826   6.500  0.00  0.00    -0.286 OA
ATOM      2  C   LIG    1       23.968 -24.449   6.616  0.00  0.00    +0.200 C 
ATOM      3  C   LIG    1       25.131 -25.384   6.582  0.00  0.00    +0.064 C 
ATOM      4  C   LIG    1       26.352 -24.839   6.703  0.00  0.00    +0.208 C 
ATOM      5  O   LIG    1       26.650 -23.508   6.875  0.00  0.00    -0.462 OA
ATOM      6  C   LIG    1       25.604 -22.624   6.924  0.00  0.00    +0.138 A 
ATOM      7  C   LIG    1       25.918 -21.275   7.101  0.00  0.00    +0.047 A 
ATOM      8  C   LIG    1       24.896 -20.325   7.157  0.00  0.00    +0.004 A 
ATOM      9  C   LIG    1       23.563 -20.721   7.035  0.00  0.00    +0.001 A 
ATOM     10  C   LIG    1       23.249 -22.070   6.858  0.00  0.00    +0.015 A 
ATOM     11  C   LIG    1       24.275 -23.020   6.803  0.00  0.00    +0.065 A 
ENDROOT
BRANCH   3  12
ATOM     12  C   LIG    1       24.974 -26.838   6.387  0.00  0.00    -0.011 A 
ATOM     13  C   LIG    1       24.493 -27.356   5.174  0.00  0.00    +0.009 A 
ATOM     14  C   LIG    1       24.337 -28.734   4.998  0.00  0.00    +0.001 A 
ATOM     15  C   LIG    1       24.664 -29.610   6.030  0.00  0.00    +0.000 A 
ATOM     16  C   LIG    1       25.150 -29.111   7.236  0.00  0.00    +0.001 A 
ATOM     17  C   LIG    1       25.305 -27.734   7.413  0.00  0.00    +0.009 A 
ENDBRANCH   3  12
TORSDOF 1
ENDMDL
MODEL 8
REMARK VINA RESULT:      -7.0      4.226      6.353
REMARK  Name = *****
REMARK                            x       y       z     vdW  Elec       q    Type
REMARK                         _______ _______ _______ _____ _____    ______ ____
ROOT
ATOM      1  O   LIG    1       24.346 -23.360   3.555  0.00  0.00    -0.286 OA
ATOM      2  C   LIG    1       24.659 -23.355   4.741  0.00  0.00    +0.200 C 
ATOM      3  C   LIG    1       24.573 -22.136   5.597  0.00  0.00    +0.064 C 
ATOM      4  C   LIG    1       24.930 -22.270   6.883  0.00  0.00    +0.208 C 
ATOM      5  O   LIG    1       25.388 -23.410   7.499  0.00  0.00    -0.462 OA
ATOM      6  C   LIG    1       25.493 -24.546   6.739  0.00  0.00    +0.138 A 
ATOM      7  C   LIG    1       25.961 -25.697   7.373  0.00  0.00    +0.047 A 
ATOM      8  C   LIG    1       26.087 -26.886   6.652  0.00  0.00    +0.004 A 
ATOM      9  C   LIG    1       25.746 -26.925   5.299  0.00  0.00    +0.001 A 
ATOM     10  C   LIG    1       25.277 -25.773   4.664  0.00  0.00    +0.015 A 
ATOM     11  C   LIG    1       25.152 -24.583   5.390  0.00  0.00    +0.065 A 
ENDROOT
BRANCH   3  12
ATOM     12  C   LIG    1       24.084 -20.841   5.085  0.00  0.00    -0.011 A 
ATOM     13  C   LIG    1       22.852 -20.316   5.508  0.00  0.00    +0.009 A 
ATOM     14  C   LIG    1       22.389 -19.093   5.014  0.00  0.00    +0.001 A 
ATOM     15  C   LIG    1       23.153 -18.379   4.093  0.00  0.00    +0.000 A 
ATOM     16  C   LIG    1       24.381 -18.884   3.670  0.00  0.00    +0.001 A 
ATOM     17  C   LIG    1       24.843 -20.106   4.163  0.00  0.00    +0.009 A 
ENDBRANCH   3  12
TORSDOF 1
ENDMDL
MODEL 9
REMARK VINA RESULT:      -6.8      4.895      6.055
REMARK  Name = *****
REMARK                            x       y       z     vdW  Elec       q    Type
REMARK                         _______ _______ _______ _____ _____    ______ ____
ROOT
ATOM      1  O   LIG    1       24.962 -23.188   3.912  0.00  0.00    -0.286 OA
ATOM      2  C   LIG    1       24.353 -22.712   4.864  0.00  0.00    +0.200 C 
ATOM      3  C   LIG    1       24.107 -23.466   6.127  0.00  0.00    +0.064 C 
ATOM      4  C   LIG    1       23.443 -22.822   7.099  0.00  0.00    +0.208 C 
ATOM      5  O   LIG    1       22.944 -21.542   7.052  0.00  0.00    -0.462 OA
ATOM      6  C   LIG    1       23.141 -20.825   5.901  0.00  0.00    +0.138 A 
ATOM      7  C   LIG    1       22.630 -19.527   5.862  0.00  0.00    +0.047 A 
ATOM      8  C   LIG    1       22.801 -18.746   4.717  0.00  0.00    +0.004 A 
ATOM      9  C   LIG    1       23.482 -19.260   3.613  0.00  0.00    +0.001 A 
ATOM     10  C   LIG    1       23.995 -20.558   3.651  0.00  0.00    +0.015 A 
ATOM     11  C   LIG    1       23.822 -21.339   4.800  0.00  0.00    +0.065 A 
ENDROOT
BRANCH   3  12
ATOM     12  C   LIG    1       24.594 -24.843   6.337  0.00  0.00    -0.011 A 
ATOM     13  C   LIG    1       23.868 -25.946   5.859  0.00  0.00    +0.009 A 
ATOM     14  C   LIG    1       24.328 -27.249   6.068  0.00  0.00    +0.001 A 
ATOM     15  C   LIG    1       25.522 -27.465   6.753  0.00  0.00    +0.000 A 
ATOM     16  C   LIG    1       26.257 -26.380   7.226  0.00  0.00    +0.001 A 
ATOM     17  C   LIG    1       25.796 -25.078   7.018  0.00  0.00    +0.009 A 
ENDBRANCH   3  12
TORSDOF 1
ENDMDL
