MODEL 1
REMARK VINA RESULT:      -7.1      0.000      0.000
REMARK  Name = *****
REMARK                            x       y       z     vdW  Elec       q    Type
REMARK                         _______ _______ _______ _____ _____    ______ ____
ROOT
ATOM      1  C   LIG    1       25.985 -22.401   6.679  0.00  0.00    -0.011 A 
ATOM      2  C   LIG    1       25.263 -21.664   5.715  0.00  0.00    +0.043 A 
ATOM      3  C   LIG    1       25.839 -20.487   5.191  0.00  0.00    +0.040 A 
ATOM      4 BR   LIG    1       24.956 -19.490   3.836  0.00  0.00    -0.048 Br
ATOM      5  C   LIG    1       27.052 -19.999   5.675  0.00  0.00    +0.032 A 
ATOM      6  C   LIG    1       27.727 -20.703   6.664  0.00  0.00    +0.019 A 
ATOM      7 BR   LIG    1       29.363 -20.041   7.342  0.00  0.00    -0.050 Br
ATOM      8  C   LIG    1       27.211 -21.900   7.160  0.00  0.00    +0.022 A 
ENDROOT
BRANCH   2   9
ATOM      9  N   LIG    1       24.088 -22.212   5.152  0.00  0.00    -0.357 N 
ATOM     10  H   LIG    1       23.365 -22.335   5.874  0.00  0.00    +0.142 HD
ATOM     11  H   LIG    1       23.745 -21.661   4.375  0.00  0.00    +0.142 HD
ENDBRANCH   2   9
BRANCH   1  12
ATOM     12  C   LIG    1       25.463 -23.715   7.248  0.00  0.00    +0.121 C 
BRANCH  12  14
ATOM     13  C   LIG    1       23.648 -25.069   6.385  0.00  0.00    +0.105 C 
ATOM     14  N   LIG    1       25.043 -24.681   6.207  0.00  0.00    -0.298 NA
BRANCH  14  15
ATOM     15  C   LIG    1       26.020 -25.784   6.035  0.00  0.00    +0.057 C 
ATOM     16  C   LIG    1       26.259 -26.735   7.227  0.00  0.00    +0.019 C 
ATOM     17  C   LIG    1       25.271 -27.891   7.328  0.00  0.00    +0.002 C 
ATOM     18  C   LIG    1       25.221 -28.693   6.036  0.00  0.00    +0.000 C 
ATOM     19  C   LIG    1       24.908 -27.818   4.830  0.00  0.00    +0.002 C 
ATOM     20  C   LIG    1       25.820 -26.592   4.729  0.00  0.00    +0.019 C 
ENDBRANCH  14  15
ENDBRANCH  12  14
ENDBRANCH   1  12
TORSDOF 4
ENDMDL
MODEL 2
REMARK VINA RESULT:      -7.0      3.553      4.700
REMARK  Name = *****
REMARK                            x       y       z     vdW  Elec       q    Type
REMARK                         _______ _______ _______ _____ _____    ______ ____
ROOT
ATOM      1  C   LIG    1       27.957 -21.388   7.086  0.00  0.00    -0.011 A 
ATOM      2  C   LIG    1       28.074 -20.251   6.257  0.00  0.00    +0.043 A 
ATOM      3  C   LIG    1       29.273 -19.508   6.291  0.00  0.00    +0.040 A 
ATOM      4 BR   LIG    1       29.528 -18.013   5.147  0.00  0.00    -0.048 Br
ATOM      5  C   LIG    1       30.293 -19.823   7.190  0.00  0.00    +0.032 A 
ATOM      6  C   LIG    1       30.143 -20.911   8.040  0.00  0.00    +0.019 A 
ATOM      7 BR   LIG    1       31.510 -21.337   9.276  0.00  0.00    -0.050 Br
ATOM      8  C   LIG    1       28.993 -21.698   7.988  0.00  0.00    +0.022 A 
ENDROOT
BRANCH   2   9
ATOM      9  N   LIG    1       27.088 -19.994   5.278  0.00  0.00    -0.357 N 
ATOM     10  H   LIG    1       27.151 -20.680   4.513  0.00  0.00    +0.142 HD
ATOM     11  H   LIG    1       26.157 -19.965   5.673  0.00  0.00    +0.142 HD
ENDBRANCH   2   9
BRANCH   1  12
ATOM     12  C   LIG    1       26.721 -22.280   7.063  0.00  0.00    +0.121 C 
BRANCH  12  14
ATOM     13  C   LIG    1       25.392 -21.474   8.922  0.00  0.00    +0.105 C 
ATOM     14  N   LIG    1       25.482 -21.577   7.470  0.00  0.00    -0.298 NA
BRANCH  14  15
ATOM     15  C   LIG    1       24.283 -22.098   6.767  0.00  0.00    +0.057 C 
ATOM     16  C   LIG    1       22.973 -21.289   6.870  0.00  0.00    +0.019 C 
ATOM     17  C   LIG    1       22.837 -20.162   5.851  0.00  0.00    +0.002 C 
ATOM     18  C   LIG    1       23.012 -20.676   4.429  0.00  0.00    +0.000 C 
ATOM     19  C   LIG    1       24.329 -21.416   4.246  0.00  0.00    +0.002 C 
ATOM     20  C   LIG    1       24.555 -22.505   5.297  0.00  0.00    +0.019 C 
ENDBRANCH  14  15
ENDBRANCH  12  14
ENDBRANCH   1  12
TORSDOF 4
ENDMDL
MODEL 3
REMARK VINA RESULT:      -6.9      3.841      6.537
REMARK  Name = *****
REMARK                            x       y       z     vdW  Elec       q    Type
REMARK                         _______ _______ _______ _____ _____    ______ ____
ROOT
ATOM      1  C   LIG    1       25.726 -20.784   5.666  0.00  0.00    -0.011 A 
ATOM      2  C   LIG    1       25.256 -22.021   6.159  0.00  0.00    +0.043 A 
ATOM      3  C   LIG    1       23.876 -22.304   6.073  0.00  0.00    +0.040 A 
ATOM      4 BR   LIG    1       23.187 -23.979   6.648  0.00  0.00    -0.048 Br
ATOM      5  C   LIG    1       22.971 -21.353   5.601  0.00  0.00    +0.032 A 
ATOM      6  C   LIG    1       23.439 -20.119   5.170  0.00  0.00    +0.019 A 
ATOM      7 BR   LIG    1       22.220 -18.814   4.546  0.00  0.00    -0.050 Br
ATOM      8  C   LIG    1       24.803 -19.832   5.189  0.00  0.00    +0.022 A 
ENDROOT
BRANCH   2   9
ATOM      9  N   LIG    1       26.181 -23.019   6.540  0.00  0.00    -0.357 N 
ATOM     10  H   LIG    1       26.898 -23.142   5.813  0.00  0.00    +0.142 HD
ATOM     11  H   LIG    1       26.596 -22.829   7.443  0.00  0.00    +0.142 HD
ENDBRANCH   2   9
BRANCH   1  12
ATOM     12  C   LIG    1       27.207 -20.426   5.663  0.00  0.00    +0.121 C 
BRANCH  12  14
ATOM     13  C   LIG    1       27.284 -20.091   8.062  0.00  0.00    +0.105 C 
ATOM     14  N   LIG    1       27.897 -20.772   6.927  0.00  0.00    -0.298 NA
BRANCH  14  15
ATOM     15  C   LIG    1       29.373 -20.666   6.810  0.00  0.00    +0.057 C 
ATOM     16  C   LIG    1       29.972 -19.307   6.389  0.00  0.00    +0.019 C 
ATOM     17  C   LIG    1       30.190 -18.325   7.534  0.00  0.00    +0.002 C 
ATOM     18  C   LIG    1       31.039 -18.939   8.638  0.00  0.00    +0.000 C 
ATOM     19  C   LIG    1       30.453 -20.246   9.151  0.00  0.00    +0.002 C 
ATOM     20  C   LIG    1       30.135 -21.239   8.031  0.00  0.00    +0.019 C 
ENDBRANCH  14  15
ENDBRANCH  12  14
ENDBRANCH   1  12
TORSDOF 4
ENDMDL
MODEL 4
REMARK VINA RESULT:      -6.7      3.871      6.812
REMARK  Name = *****
REMARK                            x       y       z     vdW  Elec       q    Type
REMARK                         _______ _______ _______ _____ _____    ______ ____
ROOT
ATOM      1  C   LIG    1       25.511 -27.269   6.624  0.00  0.00    -0.011 A 
ATOM      2  C   LIG    1       24.925 -28.435   6.085  0.00  0.00    +0.043 A 
ATOM      3  C   LIG    1       24.863 -29.595   6.885  0.00  0.00    +0.040 A 
ATOM      4 BR   LIG    1       24.021 -31.175   6.250  0.00  0.00    -0.048 Br
ATOM      5  C   LIG    1       25.451 -29.632   8.150  0.00  0.00    +0.032 A 
ATOM      6  C   LIG    1       26.073 -28.495   8.648  0.00  0.00    +0.019 A 
ATOM      7 BR   LIG    1       26.890 -28.538  10.354  0.00  0.00    -0.050 Br
ATOM      8  C   LIG    1       26.099 -27.317   7.903  0.00  0.00    +0.022 A 
ENDROOT
BRANCH   2   9
ATOM      9  N   LIG    1       24.241 -28.367   4.849  0.00  0.00    -0.357 N 
ATOM     10  H   LIG    1       24.168 -27.392   4.531  0.00  0.00    +0.142 HD
ATOM     11  H   LIG    1       24.668 -28.956   4.145  0.00  0.00    +0.142 HD
ENDBRANCH   2   9
BRANCH   1  12
ATOM     12  C   LIG    1       25.560 -25.957   5.849  0.00  0.00    +0.121 C 
BRANCH  12  14
ATOM     13  C   LIG    1       23.484 -24.892   6.499  0.00  0.00    +0.105 C 
ATOM     14  N   LIG    1       24.939 -24.824   6.572  0.00  0.00    -0.298 NA
BRANCH  14  15
ATOM     15  C   LIG    1       25.559 -23.523   6.218  0.00  0.00    +0.057 C 
ATOM     16  C   LIG    1       24.687 -22.475   5.496  0.00  0.00    +0.019 C 
ATOM     17  C   LIG    1       23.847 -21.599   6.420  0.00  0.00    +0.002 C 
ATOM     18  C   LIG    1       24.710 -20.912   7.469  0.00  0.00    +0.000 C 
ATOM     19  C   LIG    1       25.537 -21.907   8.271  0.00  0.00    +0.002 C 
ATOM     20  C   LIG    1       26.336 -22.869   7.388  0.00  0.00    +0.019 C 
ENDBRANCH  14  15
ENDBRANCH  12  14
ENDBRANCH   1  12
TORSDOF 4
ENDMDL
MODEL 5
REMARK VINA RESULT:      -6.7      1.287      2.633
REMARK  Name = *****
REMARK                            x       y       z     vdW  Elec       q    Type
REMARK                         _______ _______ _______ _____ _____    ______ ____
ROOT
ATOM      1  C   LIG    1       25.907 -21.825   6.476  0.00  0.00    -0.011 A 
ATOM      2  C   LIG    1       27.176 -21.360   6.887  0.00  0.00    +0.043 A 
ATOM      3  C   LIG    1       27.696 -20.193   6.289  0.00  0.00    +0.040 A 
ATOM      4 BR   LIG    1       29.362 -19.471   6.848  0.00  0.00    -0.048 Br
ATOM      5  C   LIG    1       27.025 -19.554   5.247  0.00  0.00    +0.032 A 
ATOM      6  C   LIG    1       25.803 -20.052   4.814  0.00  0.00    +0.019 A 
ATOM      7 BR   LIG    1       24.892 -19.206   3.389  0.00  0.00    -0.050 Br
ATOM      8  C   LIG    1       25.237 -21.171   5.424  0.00  0.00    +0.022 A 
ENDROOT
BRANCH   2   9
ATOM      9  N   LIG    1       27.806 -21.945   8.009  0.00  0.00    -0.357 N 
ATOM     10  H   LIG    1       27.115 -22.428   8.599  0.00  0.00    +0.142 HD
ATOM     11  H   LIG    1       28.562 -22.563   7.742  0.00  0.00    +0.142 HD
ENDBRANCH   2   9
BRANCH   1  12
ATOM     12  C   LIG    1       25.247 -23.042   7.115  0.00  0.00    +0.121 C 
BRANCH  12  14
ATOM     13  C   LIG    1       23.229 -24.319   6.710  0.00  0.00    +0.105 C 
ATOM     14  N   LIG    1       24.501 -23.880   6.148  0.00  0.00    -0.298 NA
BRANCH  14  15
ATOM     15  C   LIG    1       25.354 -24.930   5.539  0.00  0.00    +0.057 C 
ATOM     16  C   LIG    1       26.472 -25.550   6.404  0.00  0.00    +0.019 C 
ATOM     17  C   LIG    1       26.025 -26.706   7.291  0.00  0.00    +0.002 C 
ATOM     18  C   LIG    1       25.342 -27.797   6.479  0.00  0.00    +0.000 C 
ATOM     19  C   LIG    1       24.175 -27.258   5.664  0.00  0.00    +0.002 C 
ATOM     20  C   LIG    1       24.550 -26.040   4.816  0.00  0.00    +0.019 C 
ENDBRANCH  14  15
ENDBRANCH  12  14
ENDBRANCH   1  12
TORSDOF 4
ENDMDL
MODEL 6
REMARK VINA RESULT:      -6.5      3.490      5.172
REMARK  Name = *****
REMARK                            x       y       z     vdW  Elec       q    Type
REMARK                         _______ _______ _______ _____ _____    ______ ____
ROOT
ATOM      1  C   LIG    1       27.936 -20.718   6.550  0.00  0.00    -0.011 A 
ATOM      2  C   LIG    1       29.225 -20.578   7.109  0.00  0.00    +0.043 A 
ATOM      3  C   LIG    1       29.974 -19.422   6.804  0.00  0.00    +0.040 A 
ATOM      4 BR   LIG    1       31.683 -19.133   7.582  0.00  0.00    -0.048 Br
ATOM      5  C   LIG    1       29.502 -18.474   5.896  0.00  0.00    +0.032 A 
ATOM      6  C   LIG    1       28.255 -18.650   5.309  0.00  0.00    +0.019 A 
ATOM      7 BR   LIG    1       27.612 -17.383   4.062  0.00  0.00    -0.050 Br
ATOM      8  C   LIG    1       27.468 -19.754   5.636  0.00  0.00    +0.022 A 
ENDROOT
BRANCH   2   9
ATOM      9  N   LIG    1       29.658 -21.483   8.105  0.00  0.00    -0.357 N 
ATOM     10  H   LIG    1       28.857 -21.987   8.507  0.00  0.00    +0.142 HD
ATOM     11  H   LIG    1       30.363 -22.121   7.759  0.00  0.00    +0.142 HD
ENDBRANCH   2   9
BRANCH   1  12
ATOM     12  C   LIG    1       27.038 -21.906   6.878  0.00  0.00    +0.121 C 
BRANCH  12  14
ATOM     13  C   LIG    1       25.804 -21.685   8.952  0.00  0.00    +0.105 C 
ATOM     14  N   LIG    1       25.754 -21.515   7.504  0.00  0.00    -0.298 NA
BRANCH  14  15
ATOM     15  C   LIG    1       24.586 -22.110   6.808  0.00  0.00    +0.057 C 
ATOM     16  C   LIG    1       23.204 -21.455   7.020  0.00  0.00    +0.019 C 
ATOM     17  C   LIG    1       22.907 -20.280   6.096  0.00  0.00    +0.002 C 
ATOM     18  C   LIG    1       23.071 -20.668   4.633  0.00  0.00    +0.000 C 
ATOM     19  C   LIG    1       24.448 -21.248   4.346  0.00  0.00    +0.002 C 
ATOM     20  C   LIG    1       24.832 -22.379   5.303  0.00  0.00    +0.019 C 
ENDBRANCH  14  15
ENDBRANCH  12  14
ENDBRANCH   1  12
TORSDOF 4
ENDMDL
MODEL 7
REMARK VINA RESULT:      -6.3      3.784      6.557
REMARK  Name = *****
REMARK                            x       y       z     vdW  Elec       q    Type
REMARK                         _______ _______ _______ _____ _____    ______ ____
ROOT
ATOM      1  C   LIG    1       26.504 -21.624   6.493  0.00  0.00    -0.011 A 
ATOM      2  C   LIG    1       26.357 -20.679   5.454  0.00  0.00    +0.043 A 
ATOM      3  C   LIG    1       25.073 -20.468   4.908  0.00  0.00    +0.040 A 
ATOM      4 BR   LIG    1       24.790 -19.158   3.561  0.00  0.00    -0.048 Br
ATOM      5  C   LIG    1       23.981 -21.236   5.311  0.00  0.00    +0.032 A 
ATOM      6  C   LIG    1       24.150 -22.201   6.295  0.00  0.00    +0.019 A 
ATOM      7 BR   LIG    1       22.681 -23.262   6.836  0.00  0.00    -0.050 Br
ATOM      8  C   LIG    1       25.394 -22.393   6.894  0.00  0.00    +0.022 A 
ENDROOT
BRANCH   2   9
ATOM      9  N   LIG    1       27.438 -19.832   5.119  0.00  0.00    -0.357 N 
ATOM     10  H   LIG    1       28.169 -20.359   4.624  0.00  0.00    +0.142 HD
ATOM     11  H   LIG    1       27.139 -19.025   4.588  0.00  0.00    +0.142 HD
ENDBRANCH   2   9
BRANCH   1  12
ATOM     12  C   LIG    1       27.844 -21.867   7.179  0.00  0.00    +0.121 C 
BRANCH  12  14
ATOM     13  C   LIG    1       27.063 -20.046   8.572  0.00  0.00    +0.105 C 
ATOM     14  N   LIG    1       28.233 -20.782   8.109  0.00  0.00    -0.298 NA
BRANCH  14  15
ATOM     15  C   LIG    1       29.361 -19.972   7.586  0.00  0.00    +0.057 C 
ATOM     16  C   LIG    1       29.375 -18.460   7.898  0.00  0.00    +0.019 C 
ATOM     17  C   LIG    1       29.992 -18.092   9.242  0.00  0.00    +0.002 C 
ATOM     18  C   LIG    1       31.399 -18.657   9.381  0.00  0.00    +0.000 C 
ATOM     19  C   LIG    1       31.435 -20.163   9.163  0.00  0.00    +0.002 C 
ATOM     20  C   LIG    1       30.752 -20.595   7.864  0.00  0.00    +0.019 C 
ENDBRANCH  14  15
ENDBRANCH  12  14
ENDBRANCH   1  12
TORSDOF 4
ENDMDL
MODEL 8
REMARK VINA RESULT:      -6.3      1.752      2.651
REMARK  Name = *****
REMARK                            x       y       z     vdW  Elec       q    Type
REMARK                         _______ _______ _______ _____ _____    ______ ____
ROOT
ATOM      1  C   LIG    1       27.107 -21.346   7.196  0.00  0.00    -0.011 A 
ATOM      2  C   LIG    1       27.349 -20.246   6.344  0.00  0.00    +0.043 A 
ATOM      3  C   LIG    1       28.653 -19.710   6.283  0.00  0.00    +0.040 A 
ATOM      4 BR   LIG    1       29.064 -18.280   5.102  0.00  0.00    -0.048 Br
ATOM      5  C   LIG    1       29.669 -20.186   7.111  0.00  0.00    +0.032 A 
ATOM      6  C   LIG    1       29.405 -21.232   7.986  0.00  0.00    +0.019 A 
ATOM      7 BR   LIG    1       30.770 -21.873   9.127  0.00  0.00    -0.050 Br
ATOM      8  C   LIG    1       28.141 -21.820   8.027  0.00  0.00    +0.022 A 
ENDROOT
BRANCH   2   9
ATOM      9  N   LIG    1       26.350 -19.833   5.434  0.00  0.00    -0.357 N 
ATOM     10  H   LIG    1       25.452 -20.286   5.654  0.00  0.00    +0.142 HD
ATOM     11  H   LIG    1       26.258 -18.826   5.399  0.00  0.00    +0.142 HD
ENDBRANCH   2   9
BRANCH   1  12
ATOM     12  C   LIG    1       25.744 -22.023   7.274  0.00  0.00    +0.121 C 
BRANCH  12  14
ATOM     13  C   LIG    1       24.771 -22.644   5.144  0.00  0.00    +0.105 C 
ATOM     14  N   LIG    1       25.567 -23.103   6.276  0.00  0.00    -0.298 NA
BRANCH  14  15
ATOM     15  C   LIG    1       25.152 -24.384   6.902  0.00  0.00    +0.057 C 
ATOM     16  C   LIG    1       23.871 -25.067   6.377  0.00  0.00    +0.019 C 
ATOM     17  C   LIG    1       24.078 -25.958   5.157  0.00  0.00    +0.002 C 
ATOM     18  C   LIG    1       25.151 -27.007   5.412  0.00  0.00    +0.000 C 
ATOM     19  C   LIG    1       26.467 -26.384   5.856  0.00  0.00    +0.002 C 
ATOM     20  C   LIG    1       26.302 -25.413   7.028  0.00  0.00    +0.019 C 
ENDBRANCH  14  15
ENDBRANCH  12  14
ENDBRANCH   1  12
TORSDOF 4
ENDMDL
MODEL 9
REMARK VINA RESULT:      -6.2      3.068      6.293
REMARK  Name = *****
REMARK                            x       y       z     vdW  Elec       q    Type
REMARK                         _______ _______ _______ _____ _____    ______ ____
ROOT
ATOM      1  C   LIG    1       25.897 -22.390   7.387  0.00  0.00    -0.011 A 
ATOM      2  C   LIG    1       24.511 -22.164   7.234  0.00  0.00    +0.043 A 
ATOM      3  C   LIG    1       23.696 -23.229   6.795  0.00  0.00    +0.040 A 
ATOM      4 BR   LIG    1       21.814 -23.015   6.640  0.00  0.00    -0.048 Br
ATOM      5  C   LIG    1       24.246 -24.456   6.426  0.00  0.00    +0.032 A 
ATOM      6  C   LIG    1       25.618 -24.649   6.528  0.00  0.00    +0.019 A 
ATOM      7 BR   LIG    1       26.378 -26.302   6.013  0.00  0.00    -0.050 Br
ATOM      8  C   LIG    1       26.442 -23.634   7.013  0.00  0.00    +0.022 A 
ENDROOT
BRANCH   2   9
ATOM      9  N   LIG    1       23.943 -20.959   7.704  0.00  0.00    -0.357 N 
ATOM     10  H   LIG    1       24.178 -20.812   8.695  0.00  0.00    +0.142 HD
ATOM     11  H   LIG    1       24.212 -20.165   7.138  0.00  0.00    +0.142 HD
ENDBRANCH   2   9
BRANCH   1  12
ATOM     12  C   LIG    1       26.837 -21.313   7.916  0.00  0.00    +0.121 C 
BRANCH  12  14
ATOM     13  C   LIG    1       26.369 -20.337   5.748  0.00  0.00    +0.105 C 
ATOM     14  N   LIG    1       27.301 -20.374   6.869  0.00  0.00    -0.298 NA
BRANCH  14  15
ATOM     15  C   LIG    1       28.734 -20.568   6.534  0.00  0.00    +0.057 C 
ATOM     16  C   LIG    1       29.515 -19.367   5.959  0.00  0.00    +0.019 C 
ATOM     17  C   LIG    1       30.092 -18.422   7.006  0.00  0.00    +0.002 C 
ATOM     18  C   LIG    1       30.964 -19.168   8.006  0.00  0.00    +0.000 C 
ATOM     19  C   LIG    1       30.219 -20.318   8.668  0.00  0.00    +0.002 C 
ATOM     20  C   LIG    1       29.547 -21.254   7.660  0.00  0.00    +0.019 C 
ENDBRANCH  14  15
ENDBRANCH  12  14
ENDBRANCH   1  12
TORSDOF 4
ENDMDL
