MODEL 1
REMARK VINA RESULT:       2.8      0.000      0.000
REMARK  Name = *****
REMARK                            x       y       z     vdW  Elec       q    Type
REMARK                         _______ _______ _______ _____ _____    ______ ____
ROOT
ATOM      1  C   LIG    1       26.505 -16.931   3.658  0.00  0.00    +0.065 C 
ATOM      2  C   LIG    1       25.683 -15.704   3.199  0.00  0.00    +0.097 C 
ATOM      3  C   LIG    1       26.569 -14.452   3.151  0.00  0.00    +0.065 C 
ATOM      4  C   LIG    1       27.667 -14.364   3.938  0.00  0.00    +0.016 C 
ATOM      5  C   LIG    1       28.491 -13.115   4.130  0.00  0.00    +0.061 C 
ATOM      6  N   LIG    1       28.060 -15.467   4.687  0.00  0.00    -0.321 N 
ATOM      7  H   LIG    1       28.958 -15.389   5.161  0.00  0.00    +0.152 HD
ATOM      8  C   LIG    1       27.608 -16.760   4.431  0.00  0.00    +0.016 C 
ATOM      9  C   LIG    1       28.433 -17.853   5.073  0.00  0.00    +0.061 C 
ENDROOT
BRANCH   2  10
ATOM     10  C   LIG    1       24.448 -15.500   4.132  0.00  0.00    -0.015 A 
ATOM     11  C   LIG    1       23.368 -16.406   4.265  0.00  0.00    +0.063 A 
ATOM     12 CL   LIG    1       23.293 -17.852   3.310  0.00  0.00    -0.082 Cl
ATOM     13  C   LIG    1       22.318 -16.135   5.180  0.00  0.00    +0.059 A 
ATOM     14 CL   LIG    1       20.965 -17.196   5.414  0.00  0.00    -0.082 Cl
ATOM     15  C   LIG    1       22.325 -14.974   5.955  0.00  0.00    +0.021 A 
ATOM     16  C   LIG    1       23.361 -14.065   5.814  0.00  0.00    +0.002 A 
ATOM     17  C   LIG    1       24.399 -14.326   4.920  0.00  0.00    +0.006 A 
ENDBRANCH   2  10
BRANCH   1  18
ATOM     18  C   LIG    1       26.122 -18.276   3.135  0.00  0.00    +0.340 C 
ATOM     19  O   LIG    1       26.004 -18.578   1.968  0.00  0.00    -0.245 OA
BRANCH  18  20
ATOM     20  O   LIG    1       25.823 -19.074   4.193  0.00  0.00    -0.424 OA
BRANCH  20  21
ATOM     21  C   LIG    1       25.272 -20.348   3.865  0.00  0.00    +0.473 C 
BRANCH  21  22
ATOM     22  O   LIG    1       25.443 -21.282   4.924  0.00  0.00    -0.427 OA
BRANCH  22  23
ATOM     23  C   LIG    1       25.644 -20.756   6.150  0.00  0.00    +0.310 C 
ATOM     24  O   LIG    1       26.692 -20.248   6.532  0.00  0.00    -0.251 OA
BRANCH  23  25
ATOM     25  C   LIG    1       24.393 -20.840   6.973  0.00  0.00    +0.120 C 
BRANCH  25  27
ATOM     26  C   LIG    1       22.347 -20.518   5.488  0.00  0.00    +0.004 C 
ATOM     27  C   LIG    1       23.249 -21.505   6.216  0.00  0.00    +0.008 C 
ENDBRANCH  25  27
ENDBRANCH  23  25
ENDBRANCH  22  23
ENDBRANCH  21  22
ENDBRANCH  20  21
ENDBRANCH  18  20
ENDBRANCH   1  18
BRANCH   3  28
ATOM     28  C   LIG    1       26.240 -13.376   2.180  0.00  0.00    +0.337 C 
ATOM     29  O   LIG    1       27.001 -12.505   1.813  0.00  0.00    -0.245 OA
BRANCH  28  30
ATOM     30  O   LIG    1       24.939 -13.492   1.812  0.00  0.00    -0.465 OA
ATOM     31  C   LIG    1       24.141 -12.355   2.131  0.00  0.00    +0.280 C 
ENDBRANCH  28  30
ENDBRANCH   3  28
TORSDOF 10
ENDMDL
MODEL 2
REMARK VINA RESULT:       4.3      2.622      6.971
REMARK  Name = *****
REMARK                            x       y       z     vdW  Elec       q    Type
REMARK                         _______ _______ _______ _____ _____    ______ ____
ROOT
ATOM      1  C   LIG    1       24.781 -17.364   3.752  0.00  0.00    +0.065 C 
ATOM      2  C   LIG    1       24.840 -18.908   3.676  0.00  0.00    +0.097 C 
ATOM      3  C   LIG    1       23.425 -19.500   3.697  0.00  0.00    +0.065 C 
ATOM      4  C   LIG    1       22.409 -18.818   4.277  0.00  0.00    +0.016 C 
ATOM      5  C   LIG    1       21.034 -19.381   4.539  0.00  0.00    +0.061 C 
ATOM      6  N   LIG    1       22.628 -17.524   4.732  0.00  0.00    -0.321 N 
ATOM      7  H   LIG    1       21.804 -17.013   5.043  0.00  0.00    +0.152 HD
ATOM      8  C   LIG    1       23.717 -16.752   4.332  0.00  0.00    +0.016 C 
ATOM      9  C   LIG    1       23.574 -15.271   4.608  0.00  0.00    +0.061 C 
ENDROOT
BRANCH   2  10
ATOM     10  C   LIG    1       25.718 -19.474   4.837  0.00  0.00    -0.015 A 
ATOM     11  C   LIG    1       27.064 -19.115   5.091  0.00  0.00    +0.063 A 
ATOM     12 CL   LIG    1       27.908 -18.017   4.046  0.00  0.00    -0.082 Cl
ATOM     13  C   LIG    1       27.750 -19.663   6.204  0.00  0.00    +0.059 A 
ATOM     14 CL   LIG    1       29.395 -19.270   6.595  0.00  0.00    -0.082 Cl
ATOM     15  C   LIG    1       27.118 -20.566   7.061  0.00  0.00    +0.021 A 
ATOM     16  C   LIG    1       25.811 -20.948   6.809  0.00  0.00    +0.002 A 
ATOM     17  C   LIG    1       25.128 -20.410   5.718  0.00  0.00    +0.006 A 
ENDBRANCH   2  10
BRANCH   1  18
ATOM     18  C   LIG    1       25.856 -16.580   3.073  0.00  0.00    +0.340 C 
ATOM     19  O   LIG    1       26.840 -17.039   2.538  0.00  0.00    -0.245 OA
BRANCH  18  20
ATOM     20  O   LIG    1       25.595 -15.259   3.251  0.00  0.00    -0.424 OA
BRANCH  20  21
ATOM     21  C   LIG    1       26.386 -14.366   2.469  0.00  0.00    +0.473 C 
BRANCH  21  22
ATOM     22  O   LIG    1       26.461 -13.075   3.062  0.00  0.00    -0.427 OA
BRANCH  22  23
ATOM     23  C   LIG    1       25.732 -12.897   4.184  0.00  0.00    +0.310 C 
ATOM     24  O   LIG    1       24.561 -12.537   4.209  0.00  0.00    -0.251 OA
BRANCH  23  25
ATOM     25  C   LIG    1       26.542 -13.237   5.399  0.00  0.00    +0.120 C 
BRANCH  25  27
ATOM     26  C   LIG    1       28.576 -12.101   4.367  0.00  0.00    +0.004 C 
ATOM     27  C   LIG    1       28.033 -13.324   5.094  0.00  0.00    +0.008 C 
ENDBRANCH  25  27
ENDBRANCH  23  25
ENDBRANCH  22  23
ENDBRANCH  21  22
ENDBRANCH  20  21
ENDBRANCH  18  20
ENDBRANCH   1  18
BRANCH   3  28
ATOM     28  C   LIG    1       23.178 -20.796   3.010  0.00  0.00    +0.337 C 
ATOM     29  O   LIG    1       23.795 -21.210   2.050  0.00  0.00    -0.245 OA
BRANCH  28  30
ATOM     30  O   LIG    1       22.120 -21.413   3.593  0.00  0.00    -0.465 OA
ATOM     31  C   LIG    1       22.244 -21.571   5.004  0.00  0.00    +0.280 C 
ENDBRANCH  28  30
ENDBRANCH   3  28
TORSDOF 10
ENDMDL
