MODEL 1
REMARK VINA RESULT:      -4.7      0.000      0.000
REMARK  Name = *****
REMARK                            x       y       z     vdW  Elec       q    Type
REMARK                         _______ _______ _______ _____ _____    ______ ____
ROOT
ATOM      1  N   LIG    1       31.542 -19.560   8.247  0.00  0.00    -0.186 N 
ATOM      2  H   LIG    1       31.303 -19.430   7.271  0.00  0.00    +0.271 HD
ENDROOT
BRANCH   1   5
ATOM      3  N   LIG    1       32.062 -21.457   9.443  0.00  0.00    -0.129 NA
ATOM      4  H   LIG    1       31.722 -22.411   9.581  0.00  0.00    +0.306 HD
ATOM      5  C   LIG    1       31.281 -20.834   8.633  0.00  0.00    +0.386 C 
BRANCH   5   6
ATOM      6  N   LIG    1       30.150 -21.393   8.139  0.00  0.00    -0.289 N 
ATOM      7  H   LIG    1       29.456 -21.596   8.854  0.00  0.00    +0.255 HD
ATOM      8  H   LIG    1       30.288 -22.186   7.528  0.00  0.00    +0.255 HD
ENDBRANCH   5   6
ENDBRANCH   1   5
BRANCH   1   9
ATOM      9  C   LIG    1       31.753 -18.393   8.896  0.00  0.00    +0.386 C 
ATOM     10  N   LIG    1       32.234 -17.307   8.393  0.00  0.00    -0.129 NA
ATOM     11  H   LIG    1       32.495 -17.518   7.421  0.00  0.00    +0.306 HD
BRANCH   9  12
ATOM     12  N   LIG    1       31.407 -18.410  10.202  0.00  0.00    -0.289 N 
ATOM     13  H   LIG    1       31.858 -19.197  10.660  0.00  0.00    +0.255 HD
ATOM     14  H   LIG    1       31.614 -17.547  10.692  0.00  0.00    +0.255 HD
ENDBRANCH   9  12
ENDBRANCH   1   9
TORSDOF 4
ENDMDL
MODEL 2
REMARK VINA RESULT:      -4.6      0.066      3.373
REMARK  Name = *****
REMARK                            x       y       z     vdW  Elec       q    Type
REMARK                         _______ _______ _______ _____ _____    ______ ____
ROOT
ATOM      1  N   LIG    1       31.539 -19.539   8.290  0.00  0.00    -0.186 N 
ATOM      2  H   LIG    1       31.832 -19.460   7.323  0.00  0.00    +0.271 HD
ENDROOT
BRANCH   1   5
ATOM      3  N   LIG    1       32.213 -17.339   8.337  0.00  0.00    -0.129 NA
ATOM      4  H   LIG    1       32.345 -16.577   9.005  0.00  0.00    +0.306 HD
ATOM      5  C   LIG    1       31.755 -18.373   8.949  0.00  0.00    +0.386 C 
BRANCH   5   6
ATOM      6  N   LIG    1       31.441 -18.360  10.266  0.00  0.00    -0.289 N 
ATOM      7  H   LIG    1       30.696 -19.008  10.509  0.00  0.00    +0.255 HD
ATOM      8  H   LIG    1       31.273 -17.445  10.664  0.00  0.00    +0.255 HD
ENDBRANCH   5   6
ENDBRANCH   1   5
BRANCH   1   9
ATOM      9  C   LIG    1       31.315 -20.819   8.667  0.00  0.00    +0.386 C 
ATOM     10  N   LIG    1       32.036 -21.522   9.473  0.00  0.00    -0.129 NA
ATOM     11  H   LIG    1       32.854 -20.951   9.719  0.00  0.00    +0.306 HD
BRANCH   9  12
ATOM     12  N   LIG    1       30.211 -21.376   8.123  0.00  0.00    -0.289 N 
ATOM     13  H   LIG    1       30.139 -21.100   7.147  0.00  0.00    +0.255 HD
ATOM     14  H   LIG    1       30.176 -22.385   8.210  0.00  0.00    +0.255 HD
ENDBRANCH   9  12
ENDBRANCH   1   9
TORSDOF 4
ENDMDL
MODEL 3
REMARK VINA RESULT:      -4.3      1.631      3.253
REMARK  Name = *****
REMARK                            x       y       z     vdW  Elec       q    Type
REMARK                         _______ _______ _______ _____ _____    ______ ____
ROOT
ATOM      1  N   LIG    1       30.297 -21.361   7.992  0.00  0.00    -0.186 N 
ATOM      2  H   LIG    1       30.263 -22.358   7.812  0.00  0.00    +0.271 HD
ENDROOT
BRANCH   1   5
ATOM      3  N   LIG    1       31.909 -22.005   9.504  0.00  0.00    -0.129 NA
ATOM      4  H   LIG    1       32.586 -21.590  10.148  0.00  0.00    +0.306 HD
ATOM      5  C   LIG    1       31.287 -21.072   8.874  0.00  0.00    +0.386 C 
BRANCH   5   6
ATOM      6  N   LIG    1       31.590 -19.762   9.029  0.00  0.00    -0.289 N 
ATOM      7  H   LIG    1       30.803 -19.143   8.851  0.00  0.00    +0.255 HD
ATOM      8  H   LIG    1       32.420 -19.447   8.544  0.00  0.00    +0.255 HD
ENDBRANCH   5   6
ENDBRANCH   1   5
BRANCH   1   9
ATOM      9  C   LIG    1       29.201 -20.708   7.544  0.00  0.00    +0.386 C 
ATOM     10  N   LIG    1       28.431 -19.934   8.229  0.00  0.00    -0.129 NA
ATOM     11  H   LIG    1       28.766 -19.962   9.202  0.00  0.00    +0.306 HD
BRANCH   9  12
ATOM     12  N   LIG    1       28.923 -20.914   6.238  0.00  0.00    -0.289 N 
ATOM     13  H   LIG    1       28.256 -21.677   6.151  0.00  0.00    +0.255 HD
ATOM     14  H   LIG    1       28.585 -20.090   5.755  0.00  0.00    +0.255 HD
ENDBRANCH   9  12
ENDBRANCH   1   9
TORSDOF 4
ENDMDL
MODEL 4
REMARK VINA RESULT:      -4.3      1.614      3.051
REMARK  Name = *****
REMARK                            x       y       z     vdW  Elec       q    Type
REMARK                         _______ _______ _______ _____ _____    ______ ____
ROOT
ATOM      1  N   LIG    1       30.366 -21.152   7.796  0.00  0.00    -0.186 N 
ATOM      2  H   LIG    1       30.740 -21.627   6.983  0.00  0.00    +0.271 HD
ENDROOT
BRANCH   1   5
ATOM      3  N   LIG    1       28.565 -19.832   8.357  0.00  0.00    -0.129 NA
ATOM      4  H   LIG    1       27.678 -19.513   7.963  0.00  0.00    +0.306 HD
ATOM      5  C   LIG    1       29.181 -20.563   7.496  0.00  0.00    +0.386 C 
BRANCH   5   6
ATOM      6  N   LIG    1       28.706 -20.769   6.245  0.00  0.00    -0.289 N 
ATOM      7  H   LIG    1       27.876 -21.358   6.221  0.00  0.00    +0.255 HD
ATOM      8  H   LIG    1       29.389 -21.074   5.565  0.00  0.00    +0.255 HD
ENDBRANCH   5   6
ENDBRANCH   1   5
BRANCH   1   9
ATOM      9  C   LIG    1       31.274 -21.014   8.789  0.00  0.00    +0.386 C 
ATOM     10  N   LIG    1       31.832 -21.962   9.460  0.00  0.00    -0.129 NA
ATOM     11  H   LIG    1       31.403 -22.843   9.148  0.00  0.00    +0.306 HD
BRANCH   9  12
ATOM     12  N   LIG    1       31.603 -19.734   9.070  0.00  0.00    -0.289 N 
ATOM     13  H   LIG    1       32.614 -19.632   9.044  0.00  0.00    +0.255 HD
ATOM     14  H   LIG    1       31.162 -19.054   8.461  0.00  0.00    +0.255 HD
ENDBRANCH   9  12
ENDBRANCH   1   9
TORSDOF 4
ENDMDL
MODEL 5
REMARK VINA RESULT:      -4.2      1.947      3.254
REMARK  Name = *****
REMARK                            x       y       z     vdW  Elec       q    Type
REMARK                         _______ _______ _______ _____ _____    ______ ____
ROOT
ATOM      1  N   LIG    1       30.520 -18.292   7.878  0.00  0.00    -0.186 N 
ATOM      2  H   LIG    1       29.998 -17.454   8.108  0.00  0.00    +0.271 HD
ENDROOT
BRANCH   1   5
ATOM      3  N   LIG    1       31.983 -19.511   9.171  0.00  0.00    -0.129 NA
ATOM      4  H   LIG    1       32.813 -19.374   9.751  0.00  0.00    +0.306 HD
ATOM      5  C   LIG    1       31.628 -18.388   8.655  0.00  0.00    +0.386 C 
BRANCH   5   6
ATOM      6  N   LIG    1       32.340 -17.250   8.830  0.00  0.00    -0.289 N 
ATOM      7  H   LIG    1       33.263 -17.283   8.405  0.00  0.00    +0.255 HD
ATOM      8  H   LIG    1       32.388 -16.909   9.781  0.00  0.00    +0.255 HD
ENDBRANCH   5   6
ENDBRANCH   1   5
BRANCH   1   9
ATOM      9  C   LIG    1       30.117 -18.861   6.719  0.00  0.00    +0.386 C 
ATOM     10  N   LIG    1       29.857 -18.254   5.612  0.00  0.00    -0.129 NA
ATOM     11  H   LIG    1       29.944 -17.245   5.796  0.00  0.00    +0.306 HD
BRANCH   9  12
ATOM     12  N   LIG    1       29.990 -20.205   6.772  0.00  0.00    -0.289 N 
ATOM     13  H   LIG    1       30.541 -20.625   6.027  0.00  0.00    +0.255 HD
ATOM     14  H   LIG    1       30.240 -20.606   7.668  0.00  0.00    +0.255 HD
ENDBRANCH   9  12
ENDBRANCH   1   9
TORSDOF 4
ENDMDL
MODEL 6
REMARK VINA RESULT:      -4.2      1.968      2.800
REMARK  Name = *****
REMARK                            x       y       z     vdW  Elec       q    Type
REMARK                         _______ _______ _______ _____ _____    ______ ____
ROOT
ATOM      1  N   LIG    1       30.531 -18.294   7.791  0.00  0.00    -0.186 N 
ATOM      2  H   LIG    1       29.788 -17.757   8.223  0.00  0.00    +0.271 HD
ENDROOT
BRANCH   1   5
ATOM      3  N   LIG    1       29.844 -18.249   5.594  0.00  0.00    -0.129 NA
ATOM      4  H   LIG    1       29.476 -18.878   4.878  0.00  0.00    +0.306 HD
ATOM      5  C   LIG    1       30.079 -18.912   6.671  0.00  0.00    +0.386 C 
BRANCH   5   6
ATOM      6  N   LIG    1       29.918 -20.254   6.749  0.00  0.00    -0.289 N 
ATOM      7  H   LIG    1       28.951 -20.535   6.892  0.00  0.00    +0.255 HD
ATOM      8  H   LIG    1       30.536 -20.730   7.392  0.00  0.00    +0.255 HD
ENDBRANCH   5   6
ENDBRANCH   1   5
BRANCH   1   9
ATOM      9  C   LIG    1       31.603 -18.452   8.600  0.00  0.00    +0.386 C 
ATOM     10  N   LIG    1       31.984 -19.545   9.169  0.00  0.00    -0.129 NA
ATOM     11  H   LIG    1       31.277 -20.259   8.950  0.00  0.00    +0.306 HD
BRANCH   9  12
ATOM     12  N   LIG    1       32.321 -17.326   8.803  0.00  0.00    -0.289 N 
ATOM     13  H   LIG    1       33.234 -17.426   8.366  0.00  0.00    +0.255 HD
ATOM     14  H   LIG    1       31.862 -16.483   8.478  0.00  0.00    +0.255 HD
ENDBRANCH   9  12
ENDBRANCH   1   9
TORSDOF 4
ENDMDL
MODEL 7
REMARK VINA RESULT:      -4.2      2.720      3.472
REMARK  Name = *****
REMARK                            x       y       z     vdW  Elec       q    Type
REMARK                         _______ _______ _______ _____ _____    ______ ____
ROOT
ATOM      1  N   LIG    1       29.733 -19.769   7.009  0.00  0.00    -0.186 N 
ATOM      2  H   LIG    1       29.162 -20.530   7.358  0.00  0.00    +0.271 HD
ENDROOT
BRANCH   1   5
ATOM      3  N   LIG    1       29.618 -18.126   5.402  0.00  0.00    -0.129 NA
ATOM      4  H   LIG    1       29.040 -17.851   4.605  0.00  0.00    +0.306 HD
ATOM      5  C   LIG    1       29.167 -19.219   5.906  0.00  0.00    +0.386 C 
BRANCH   5   6
ATOM      6  N   LIG    1       28.128 -19.896   5.362  0.00  0.00    -0.289 N 
ATOM      7  H   LIG    1       28.286 -20.899   5.306  0.00  0.00    +0.255 HD
ATOM      8  H   LIG    1       27.782 -19.531   4.484  0.00  0.00    +0.255 HD
ENDBRANCH   5   6
ENDBRANCH   1   5
BRANCH   1   9
ATOM      9  C   LIG    1       30.969 -19.744   7.558  0.00  0.00    +0.386 C 
ATOM     10  N   LIG    1       31.791 -18.752   7.560  0.00  0.00    -0.129 NA
ATOM     11  H   LIG    1       31.360 -18.003   7.002  0.00  0.00    +0.306 HD
BRANCH   9  12
ATOM     12  N   LIG    1       31.336 -20.898   8.158  0.00  0.00    -0.289 N 
ATOM     13  H   LIG    1       30.557 -21.257   8.704  0.00  0.00    +0.255 HD
ATOM     14  H   LIG    1       31.675 -21.604   7.516  0.00  0.00    +0.255 HD
ENDBRANCH   9  12
ENDBRANCH   1   9
TORSDOF 4
ENDMDL
MODEL 8
REMARK VINA RESULT:      -4.1      1.575      2.477
REMARK  Name = *****
REMARK                            x       y       z     vdW  Elec       q    Type
REMARK                         _______ _______ _______ _____ _____    ______ ____
ROOT
ATOM      1  N   LIG    1       31.139 -18.533  10.113  0.00  0.00    -0.186 N 
ATOM      2  H   LIG    1       30.828 -19.223  10.785  0.00  0.00    +0.271 HD
ENDROOT
BRANCH   1   5
ATOM      3  N   LIG    1       31.937 -18.451   7.955  0.00  0.00    -0.129 NA
ATOM      4  H   LIG    1       32.204 -19.081   7.197  0.00  0.00    +0.306 HD
ATOM      5  C   LIG    1       31.586 -19.138   8.984  0.00  0.00    +0.386 C 
BRANCH   5   6
ATOM      6  N   LIG    1       31.661 -20.489   9.015  0.00  0.00    -0.289 N 
ATOM      7  H   LIG    1       30.925 -20.946   8.483  0.00  0.00    +0.255 HD
ATOM      8  H   LIG    1       31.753 -20.898   9.936  0.00  0.00    +0.255 HD
ENDBRANCH   5   6
ENDBRANCH   1   5
BRANCH   1   9
ATOM      9  C   LIG    1       31.279 -17.300  10.652  0.00  0.00    +0.386 C 
ATOM     10  N   LIG    1       30.338 -16.548  11.110  0.00  0.00    -0.129 NA
ATOM     11  H   LIG    1       29.449 -17.031  10.922  0.00  0.00    +0.306 HD
BRANCH   9  12
ATOM     12  N   LIG    1       32.553 -16.853  10.698  0.00  0.00    -0.289 N 
ATOM     13  H   LIG    1       33.188 -17.646  10.743  0.00  0.00    +0.255 HD
ATOM     14  H   LIG    1       32.802 -16.242   9.929  0.00  0.00    +0.255 HD
ENDBRANCH   9  12
ENDBRANCH   1   9
TORSDOF 4
ENDMDL
MODEL 9
REMARK VINA RESULT:      -4.1      2.830      3.696
REMARK  Name = *****
REMARK                            x       y       z     vdW  Elec       q    Type
REMARK                         _______ _______ _______ _____ _____    ______ ____
ROOT
ATOM      1  N   LIG    1       29.783 -19.843   6.775  0.00  0.00    -0.186 N 
ATOM      2  H   LIG    1       29.191 -20.519   7.243  0.00  0.00    +0.271 HD
ENDROOT
BRANCH   1   5
ATOM      3  N   LIG    1       31.413 -18.444   7.602  0.00  0.00    -0.129 NA
ATOM      4  H   LIG    1       32.278 -18.488   8.144  0.00  0.00    +0.306 HD
ATOM      5  C   LIG    1       30.912 -19.623   7.495  0.00  0.00    +0.386 C 
BRANCH   5   6
ATOM      6  N   LIG    1       31.458 -20.703   8.102  0.00  0.00    -0.289 N 
ATOM      7  H   LIG    1       32.431 -20.569   8.365  0.00  0.00    +0.255 HD
ATOM      8  H   LIG    1       31.327 -21.584   7.623  0.00  0.00    +0.255 HD
ENDBRANCH   5   6
ENDBRANCH   1   5
BRANCH   1   9
ATOM      9  C   LIG    1       29.145 -19.186   5.780  0.00  0.00    +0.386 C 
ATOM     10  N   LIG    1       29.476 -18.048   5.272  0.00  0.00    -0.129 NA
ATOM     11  H   LIG    1       30.277 -17.699   5.815  0.00  0.00    +0.306 HD
BRANCH   9  12
ATOM     12  N   LIG    1       28.057 -19.824   5.298  0.00  0.00    -0.289 N 
ATOM     13  H   LIG    1       28.222 -20.828   5.308  0.00  0.00    +0.255 HD
ATOM     14  H   LIG    1       27.199 -19.601   5.788  0.00  0.00    +0.255 HD
ENDBRANCH   9  12
ENDBRANCH   1   9
TORSDOF 4
ENDMDL
