MODEL 1
REMARK VINA RESULT:      -9.3      0.000      0.000
REMARK  Name = *****
REMARK                            x       y       z     vdW  Elec       q    Type
REMARK                         _______ _______ _______ _____ _____    ______ ____
ROOT
ATOM      1  C   LIG    1       25.990 -31.918   4.682  0.00  0.00    +0.089 C 
ATOM      2  C   LIG    1       25.626 -30.614   5.345  0.00  0.00    +0.103 C 
ATOM      3  N   LIG    1       26.404 -29.518   4.995  0.00  0.00    -0.208 N 
ATOM      4  H   LIG    1       27.129 -29.657   4.298  0.00  0.00    +0.298 HD
ATOM      5  C   LIG    1       26.019 -28.208   5.187  0.00  0.00    +0.269 C 
ATOM      6  C   LIG    1       25.036 -27.967   6.087  0.00  0.00    +0.133 C 
ATOM      7  C   LIG    1       24.451 -29.094   6.932  0.00  0.00    +0.104 C 
ATOM      8  C   LIG    1       24.626 -30.448   6.245  0.00  0.00    +0.088 C 
ENDROOT
BRANCH   7   9
ATOM      9  C   LIG    1       25.024 -29.130   8.372  0.00  0.00    -0.028 A 
ATOM     10  C   LIG    1       24.260 -29.640   9.439  0.00  0.00    +0.088 A 
ATOM     11  C   LIG    1       24.818 -29.709  10.726  0.00  0.00    +0.273 A 
ATOM     12  C   LIG    1       26.129 -29.308  10.985  0.00  0.00    +0.084 A 
ATOM     13  C   LIG    1       26.890 -28.809   9.933  0.00  0.00    +0.007 A 
ATOM     14  C   LIG    1       26.342 -28.708   8.647  0.00  0.00    +0.005 A 
BRANCH  11  15
ATOM     15  N   LIG    1       24.014 -30.206  11.831  0.00  0.00    +0.080 N 
ATOM     16  O   LIG    1       24.298 -29.803  12.968  0.00  0.00    -0.576 OA
ATOM     17  O   LIG    1       23.099 -30.992  11.553  0.00  0.00    +0.041 OA
ENDBRANCH  11  15
ENDBRANCH   7   9
BRANCH   5  18
ATOM     18  N   LIG    1       26.647 -27.258   4.419  0.00  0.00    -0.251 N 
ATOM     19  H   LIG    1       27.181 -26.607   4.985  0.00  0.00    +0.288 HD
ATOM     20  H   LIG    1       27.240 -27.664   3.689  0.00  0.00    +0.288 HD
ENDBRANCH   5  18
BRANCH   6  21
ATOM     21  C   LIG    1       24.427 -26.620   6.196  0.00  0.00    +0.344 C 
ATOM     22  O   LIG    1       23.437 -26.246   5.606  0.00  0.00    -0.245 OA
BRANCH  21  23
ATOM     23  O   LIG    1       25.196 -25.862   7.015  0.00  0.00    -0.455 OA
BRANCH  23  24
ATOM     24  C   LIG    1       25.601 -24.593   6.468  0.00  0.00    +0.205 C 
ATOM     25  C   LIG    1       24.411 -23.653   6.165  0.00  0.00    +0.131 C 
ATOM     26  N   LIG    1       25.087 -22.549   6.878  0.00  0.00    -0.284 NA
ATOM     27  C   LIG    1       26.035 -23.506   7.473  0.00  0.00    +0.131 C 
BRANCH  26  28
ATOM     28  C   LIG    1       25.692 -21.607   5.899  0.00  0.00    +0.117 C 
BRANCH  28  29
ATOM     29  C   LIG    1       26.865 -20.814   6.480  0.00  0.00    -0.026 A 
ATOM     30  C   LIG    1       26.971 -20.614   7.869  0.00  0.00    +0.005 A 
ATOM     31  C   LIG    1       28.054 -19.916   8.407  0.00  0.00    +0.000 A 
ATOM     32  C   LIG    1       29.039 -19.399   7.567  0.00  0.00    +0.000 A 
ATOM     33  C   LIG    1       28.939 -19.575   6.190  0.00  0.00    +0.000 A 
ATOM     34  C   LIG    1       27.861 -20.275   5.650  0.00  0.00    +0.005 A 
ENDBRANCH  28  29
BRANCH  28  35
ATOM     35  C   LIG    1       24.618 -20.650   5.342  0.00  0.00    -0.026 A 
ATOM     36  C   LIG    1       23.455 -20.378   6.079  0.00  0.00    +0.005 A 
ATOM     37  C   LIG    1       22.470 -19.524   5.568  0.00  0.00    +0.000 A 
ATOM     38  C   LIG    1       22.632 -18.931   4.316  0.00  0.00    +0.000 A 
ATOM     39  C   LIG    1       23.775 -19.195   3.569  0.00  0.00    +0.000 A 
ATOM     40  C   LIG    1       24.754 -20.051   4.074  0.00  0.00    +0.005 A 
ENDBRANCH  28  35
ENDBRANCH  26  28
ENDBRANCH  23  24
ENDBRANCH  21  23
ENDBRANCH   6  21
BRANCH   8  41
ATOM     41  C   LIG    1       23.675 -31.538   6.592  0.00  0.00    +0.340 C 
ATOM     42  O   LIG    1       22.920 -32.070   5.801  0.00  0.00    -0.245 OA
BRANCH  41  43
ATOM     43  O   LIG    1       23.805 -31.865   7.903  0.00  0.00    -0.459 OA
BRANCH  43  44
ATOM     44  C   LIG    1       24.413 -33.138   8.182  0.00  0.00    +0.171 C 
ATOM     45  C   LIG    1       23.768 -33.779   9.402  0.00  0.00    +0.051 C 
ATOM     46  C   LIG    1       25.899 -32.888   8.414  0.00  0.00    +0.051 C 
ENDBRANCH  43  44
ENDBRANCH  41  43
ENDBRANCH   8  41
TORSDOF 12
ENDMDL
MODEL 2
REMARK VINA RESULT:      -9.1      2.900     10.567
REMARK  Name = *****
REMARK                            x       y       z     vdW  Elec       q    Type
REMARK                         _______ _______ _______ _____ _____    ______ ____
ROOT
ATOM      1  C   LIG    1       22.173 -19.741   4.601  0.00  0.00    +0.089 C 
ATOM      2  C   LIG    1       23.154 -20.777   5.088  0.00  0.00    +0.103 C 
ATOM      3  N   LIG    1       22.666 -21.685   6.019  0.00  0.00    -0.208 N 
ATOM      4  H   LIG    1       21.687 -21.616   6.276  0.00  0.00    +0.298 HD
ATOM      5  C   LIG    1       23.262 -22.897   6.297  0.00  0.00    +0.269 C 
ATOM      6  C   LIG    1       24.562 -23.053   5.950  0.00  0.00    +0.133 C 
ATOM      7  C   LIG    1       25.364 -21.894   5.367  0.00  0.00    +0.104 C 
ATOM      8  C   LIG    1       24.449 -20.870   4.697  0.00  0.00    +0.088 C 
ENDROOT
BRANCH   7   9
ATOM      9  C   LIG    1       26.283 -21.209   6.411  0.00  0.00    -0.028 A 
ATOM     10  C   LIG    1       27.501 -20.620   6.023  0.00  0.00    +0.088 A 
ATOM     11  C   LIG    1       28.293 -19.962   6.978  0.00  0.00    +0.273 A 
ATOM     12  C   LIG    1       27.899 -19.846   8.311  0.00  0.00    +0.084 A 
ATOM     13  C   LIG    1       26.693 -20.421   8.699  0.00  0.00    +0.007 A 
ATOM     14  C   LIG    1       25.902 -21.105   7.766  0.00  0.00    +0.005 A 
BRANCH  11  15
ATOM     15  N   LIG    1       29.566 -19.384   6.578  0.00  0.00    +0.080 N 
ATOM     16  O   LIG    1       30.592 -19.869   7.075  0.00  0.00    -0.576 OA
ATOM     17  O   LIG    1       29.532 -18.452   5.765  0.00  0.00    +0.041 OA
ENDBRANCH  11  15
ENDBRANCH   7   9
BRANCH   5  18
ATOM     18  N   LIG    1       22.471 -23.858   6.876  0.00  0.00    -0.251 N 
ATOM     19  H   LIG    1       22.727 -24.025   7.845  0.00  0.00    +0.288 HD
ATOM     20  H   LIG    1       21.471 -23.648   6.805  0.00  0.00    +0.288 HD
ENDBRANCH   5  18
BRANCH   6  21
ATOM     21  C   LIG    1       25.208 -24.385   6.025  0.00  0.00    +0.344 C 
ATOM     22  O   LIG    1       26.237 -24.636   6.614  0.00  0.00    -0.245 OA
BRANCH  21  23
ATOM     23  O   LIG    1       24.490 -25.257   5.276  0.00  0.00    -0.455 OA
BRANCH  23  24
ATOM     24  C   LIG    1       24.212 -26.520   5.910  0.00  0.00    +0.205 C 
ATOM     25  C   LIG    1       24.551 -27.736   5.019  0.00  0.00    +0.131 C 
ATOM     26  N   LIG    1       25.297 -28.358   6.132  0.00  0.00    -0.284 NA
ATOM     27  C   LIG    1       25.294 -27.077   6.859  0.00  0.00    +0.131 C 
BRANCH  26  28
ATOM     28  C   LIG    1       24.475 -29.427   6.761  0.00  0.00    +0.117 C 
BRANCH  28  29
ATOM     29  C   LIG    1       24.778 -29.615   8.250  0.00  0.00    -0.026 A 
ATOM     30  C   LIG    1       26.089 -29.454   8.736  0.00  0.00    +0.005 A 
ATOM     31  C   LIG    1       26.366 -29.596  10.098  0.00  0.00    +0.000 A 
ATOM     32  C   LIG    1       25.342 -29.912  10.989  0.00  0.00    +0.000 A 
ATOM     33  C   LIG    1       24.043 -30.091  10.520  0.00  0.00    +0.000 A 
ATOM     34  C   LIG    1       23.764 -29.945   9.162  0.00  0.00    +0.005 A 
ENDBRANCH  28  29
BRANCH  28  35
ATOM     35  C   LIG    1       24.656 -30.758   6.002  0.00  0.00    -0.026 A 
ATOM     36  C   LIG    1       23.690 -31.772   6.100  0.00  0.00    +0.005 A 
ATOM     37  C   LIG    1       23.862 -32.987   5.427  0.00  0.00    +0.000 A 
ATOM     38  C   LIG    1       24.997 -33.208   4.648  0.00  0.00    +0.000 A 
ATOM     39  C   LIG    1       25.968 -32.217   4.546  0.00  0.00    +0.000 A 
ATOM     40  C   LIG    1       25.802 -31.008   5.222  0.00  0.00    +0.005 A 
ENDBRANCH  28  35
ENDBRANCH  26  28
ENDBRANCH  23  24
ENDBRANCH  21  23
ENDBRANCH   6  21
BRANCH   8  41
ATOM     41  C   LIG    1       25.022 -20.014   3.624  0.00  0.00    +0.340 C 
ATOM     42  O   LIG    1       24.984 -20.278   2.438  0.00  0.00    -0.245 OA
BRANCH  41  43
ATOM     43  O   LIG    1       25.558 -18.890   4.166  0.00  0.00    -0.459 OA
BRANCH  43  44
ATOM     44  C   LIG    1       25.558 -17.721   3.330  0.00  0.00    +0.171 C 
ATOM     45  C   LIG    1       26.856 -16.946   3.501  0.00  0.00    +0.051 C 
ATOM     46  C   LIG    1       24.356 -16.875   3.734  0.00  0.00    +0.051 C 
ENDBRANCH  43  44
ENDBRANCH  41  43
ENDBRANCH   8  41
TORSDOF 12
ENDMDL
MODEL 3
REMARK VINA RESULT:      -8.7      0.569      2.920
REMARK  Name = *****
REMARK                            x       y       z     vdW  Elec       q    Type
REMARK                         _______ _______ _______ _____ _____    ______ ____
ROOT
ATOM      1  C   LIG    1       25.726 -31.906   4.594  0.00  0.00    +0.089 C 
ATOM      2  C   LIG    1       25.488 -30.627   5.357  0.00  0.00    +0.103 C 
ATOM      3  N   LIG    1       26.331 -29.569   5.046  0.00  0.00    -0.208 N 
ATOM      4  H   LIG    1       27.014 -29.711   4.309  0.00  0.00    +0.298 HD
ATOM      5  C   LIG    1       26.052 -28.251   5.341  0.00  0.00    +0.269 C 
ATOM      6  C   LIG    1       25.126 -28.003   6.299  0.00  0.00    +0.133 C 
ATOM      7  C   LIG    1       24.493 -29.141   7.092  0.00  0.00    +0.104 C 
ATOM      8  C   LIG    1       24.540 -30.453   6.310  0.00  0.00    +0.088 C 
ENDROOT
BRANCH   7   9
ATOM      9  C   LIG    1       25.119 -29.318   8.499  0.00  0.00    -0.028 A 
ATOM     10  C   LIG    1       24.304 -29.414   9.644  0.00  0.00    +0.088 A 
ATOM     11  C   LIG    1       24.890 -29.624  10.903  0.00  0.00    +0.273 A 
ATOM     12  C   LIG    1       26.269 -29.767  11.060  0.00  0.00    +0.084 A 
ATOM     13  C   LIG    1       27.078 -29.680   9.932  0.00  0.00    +0.007 A 
ATOM     14  C   LIG    1       26.513 -29.444   8.671  0.00  0.00    +0.005 A 
BRANCH  11  15
ATOM     15  N   LIG    1       24.047 -29.689  12.085  0.00  0.00    +0.080 N 
ATOM     16  O   LIG    1       23.687 -30.811  12.467  0.00  0.00    -0.576 OA
ATOM     17  O   LIG    1       23.752 -28.615  12.627  0.00  0.00    +0.041 OA
ENDBRANCH  11  15
ENDBRANCH   7   9
BRANCH   5  18
ATOM     18  N   LIG    1       26.718 -27.297   4.610  0.00  0.00    -0.251 N 
ATOM     19  H   LIG    1       27.672 -27.576   4.405  0.00  0.00    +0.288 HD
ATOM     20  H   LIG    1       26.229 -27.044   3.747  0.00  0.00    +0.288 HD
ENDBRANCH   5  18
BRANCH   6  21
ATOM     21  C   LIG    1       24.624 -26.626   6.524  0.00  0.00    +0.344 C 
ATOM     22  O   LIG    1       23.523 -26.221   6.219  0.00  0.00    -0.245 OA
BRANCH  21  23
ATOM     23  O   LIG    1       25.620 -25.886   7.067  0.00  0.00    -0.455 OA
BRANCH  23  24
ATOM     24  C   LIG    1       25.361 -24.470   7.131  0.00  0.00    +0.205 C 
ATOM     25  C   LIG    1       26.584 -23.609   6.743  0.00  0.00    +0.131 C 
ATOM     26  N   LIG    1       25.747 -22.814   5.822  0.00  0.00    -0.284 NA
ATOM     27  C   LIG    1       24.683 -23.829   5.902  0.00  0.00    +0.131 C 
BRANCH  26  28
ATOM     28  C   LIG    1       25.403 -21.508   6.446  0.00  0.00    +0.117 C 
BRANCH  28  29
ATOM     29  C   LIG    1       24.465 -20.662   5.582  0.00  0.00    -0.026 A 
ATOM     30  C   LIG    1       23.220 -20.240   6.083  0.00  0.00    +0.005 A 
ATOM     31  C   LIG    1       22.373 -19.443   5.310  0.00  0.00    +0.000 A 
ATOM     32  C   LIG    1       22.752 -19.067   4.022  0.00  0.00    +0.000 A 
ATOM     33  C   LIG    1       23.973 -19.491   3.506  0.00  0.00    +0.000 A 
ATOM     34  C   LIG    1       24.823 -20.282   4.278  0.00  0.00    +0.005 A 
ENDBRANCH  28  29
BRANCH  28  35
ATOM     35  C   LIG    1       26.687 -20.720   6.779  0.00  0.00    -0.026 A 
ATOM     36  C   LIG    1       27.509 -20.229   5.753  0.00  0.00    +0.005 A 
ATOM     37  C   LIG    1       28.683 -19.530   6.052  0.00  0.00    +0.000 A 
ATOM     38  C   LIG    1       29.054 -19.310   7.379  0.00  0.00    +0.000 A 
ATOM     39  C   LIG    1       28.255 -19.795   8.409  0.00  0.00    +0.000 A 
ATOM     40  C   LIG    1       27.088 -20.498   8.112  0.00  0.00    +0.005 A 
ENDBRANCH  28  35
ENDBRANCH  26  28
ENDBRANCH  23  24
ENDBRANCH  21  23
ENDBRANCH   6  21
BRANCH   8  41
ATOM     41  C   LIG    1       23.525 -31.493   6.626  0.00  0.00    +0.340 C 
ATOM     42  O   LIG    1       22.932 -32.152   5.794  0.00  0.00    -0.245 OA
BRANCH  41  43
ATOM     43  O   LIG    1       23.390 -31.616   7.971  0.00  0.00    -0.459 OA
BRANCH  43  44
ATOM     44  C   LIG    1       23.642 -32.921   8.518  0.00  0.00    +0.171 C 
ATOM     45  C   LIG    1       22.910 -33.094   9.840  0.00  0.00    +0.051 C 
ATOM     46  C   LIG    1       25.150 -33.051   8.704  0.00  0.00    +0.051 C 
ENDBRANCH  43  44
ENDBRANCH  41  43
ENDBRANCH   8  41
TORSDOF 12
ENDMDL
MODEL 4
REMARK VINA RESULT:      -8.6      2.906     10.755
REMARK  Name = *****
REMARK                            x       y       z     vdW  Elec       q    Type
REMARK                         _______ _______ _______ _____ _____    ______ ____
ROOT
ATOM      1  C   LIG    1       22.002 -20.340   4.672  0.00  0.00    +0.089 C 
ATOM      2  C   LIG    1       23.093 -21.275   5.130  0.00  0.00    +0.103 C 
ATOM      3  N   LIG    1       22.715 -22.243   6.051  0.00  0.00    -0.208 N 
ATOM      4  H   LIG    1       21.737 -22.281   6.321  0.00  0.00    +0.298 HD
ATOM      5  C   LIG    1       23.438 -23.390   6.302  0.00  0.00    +0.269 C 
ATOM      6  C   LIG    1       24.743 -23.404   5.938  0.00  0.00    +0.133 C 
ATOM      7  C   LIG    1       25.411 -22.158   5.365  0.00  0.00    +0.104 C 
ATOM      8  C   LIG    1       24.385 -21.226   4.723  0.00  0.00    +0.088 C 
ENDROOT
BRANCH   7   9
ATOM      9  C   LIG    1       26.267 -21.397   6.410  0.00  0.00    -0.028 A 
ATOM     10  C   LIG    1       27.483 -20.790   6.041  0.00  0.00    +0.088 A 
ATOM     11  C   LIG    1       28.216 -20.063   6.993  0.00  0.00    +0.273 A 
ATOM     12  C   LIG    1       27.766 -19.897   8.303  0.00  0.00    +0.084 A 
ATOM     13  C   LIG    1       26.563 -20.490   8.671  0.00  0.00    +0.007 A 
ATOM     14  C   LIG    1       25.830 -21.241   7.742  0.00  0.00    +0.005 A 
BRANCH  11  15
ATOM     15  N   LIG    1       29.487 -19.466   6.616  0.00  0.00    +0.080 N 
ATOM     16  O   LIG    1       30.507 -19.904   7.164  0.00  0.00    -0.576 OA
ATOM     17  O   LIG    1       29.456 -18.564   5.767  0.00  0.00    +0.041 OA
ENDBRANCH  11  15
ENDBRANCH   7   9
BRANCH   5  18
ATOM     18  N   LIG    1       22.760 -24.438   6.875  0.00  0.00    -0.251 N 
ATOM     19  H   LIG    1       23.359 -25.244   7.018  0.00  0.00    +0.288 HD
ATOM     20  H   LIG    1       22.296 -24.180   7.752  0.00  0.00    +0.288 HD
ENDBRANCH   5  18
BRANCH   6  21
ATOM     21  C   LIG    1       25.525 -24.662   5.983  0.00  0.00    +0.344 C 
ATOM     22  O   LIG    1       26.636 -24.783   6.452  0.00  0.00    -0.245 OA
BRANCH  21  23
ATOM     23  O   LIG    1       24.817 -25.634   5.358  0.00  0.00    -0.455 OA
BRANCH  23  24
ATOM     24  C   LIG    1       25.230 -26.980   5.666  0.00  0.00    +0.205 C 
ATOM     25  C   LIG    1       24.660 -27.500   7.005  0.00  0.00    +0.131 C 
ATOM     26  N   LIG    1       24.211 -28.743   6.344  0.00  0.00    -0.284 NA
ATOM     27  C   LIG    1       24.415 -28.123   5.024  0.00  0.00    +0.131 C 
BRANCH  26  28
ATOM     28  C   LIG    1       25.150 -29.853   6.657  0.00  0.00    +0.117 C 
BRANCH  28  29
ATOM     29  C   LIG    1       24.857 -31.126   5.859  0.00  0.00    -0.026 A 
ATOM     30  C   LIG    1       25.758 -31.575   4.877  0.00  0.00    +0.005 A 
ATOM     31  C   LIG    1       25.510 -32.751   4.166  0.00  0.00    +0.000 A 
ATOM     32  C   LIG    1       24.354 -33.488   4.417  0.00  0.00    +0.000 A 
ATOM     33  C   LIG    1       23.444 -33.047   5.375  0.00  0.00    +0.000 A 
ATOM     34  C   LIG    1       23.693 -31.876   6.090  0.00  0.00    +0.005 A 
ENDBRANCH  28  29
BRANCH  28  35
ATOM     35  C   LIG    1       25.140 -30.152   8.171  0.00  0.00    -0.026 A 
ATOM     36  C   LIG    1       23.947 -30.076   8.905  0.00  0.00    +0.005 A 
ATOM     37  C   LIG    1       23.939 -30.328  10.281  0.00  0.00    +0.000 A 
ATOM     38  C   LIG    1       25.120 -30.661  10.944  0.00  0.00    +0.000 A 
ATOM     39  C   LIG    1       26.314 -30.735  10.234  0.00  0.00    +0.000 A 
ATOM     40  C   LIG    1       26.324 -30.476   8.863  0.00  0.00    +0.005 A 
ENDBRANCH  28  35
ENDBRANCH  26  28
ENDBRANCH  23  24
ENDBRANCH  21  23
ENDBRANCH   6  21
BRANCH   8  41
ATOM     41  C   LIG    1       24.852 -20.298   3.658  0.00  0.00    +0.340 C 
ATOM     42  O   LIG    1       24.825 -20.546   2.468  0.00  0.00    -0.245 OA
BRANCH  41  43
ATOM     43  O   LIG    1       25.274 -19.133   4.212  0.00  0.00    -0.459 OA
BRANCH  43  44
ATOM     44  C   LIG    1       25.150 -17.959   3.392  0.00  0.00    +0.171 C 
ATOM     45  C   LIG    1       26.401 -17.100   3.500  0.00  0.00    +0.051 C 
ATOM     46  C   LIG    1       23.919 -17.198   3.875  0.00  0.00    +0.051 C 
ENDBRANCH  43  44
ENDBRANCH  41  43
ENDBRANCH   8  41
TORSDOF 12
ENDMDL
MODEL 5
REMARK VINA RESULT:      -8.5      1.382      1.990
REMARK  Name = *****
REMARK                            x       y       z     vdW  Elec       q    Type
REMARK                         _______ _______ _______ _____ _____    ______ ____
ROOT
ATOM      1  C   LIG    1       25.061 -32.059   5.289  0.00  0.00    +0.089 C 
ATOM      2  C   LIG    1       25.126 -30.696   5.930  0.00  0.00    +0.103 C 
ATOM      3  N   LIG    1       25.919 -29.758   5.282  0.00  0.00    -0.208 N 
ATOM      4  H   LIG    1       26.364 -30.036   4.413  0.00  0.00    +0.298 HD
ATOM      5  C   LIG    1       25.820 -28.397   5.481  0.00  0.00    +0.269 C 
ATOM      6  C   LIG    1       25.211 -27.970   6.614  0.00  0.00    +0.133 C 
ATOM      7  C   LIG    1       24.746 -28.960   7.677  0.00  0.00    +0.104 C 
ATOM      8  C   LIG    1       24.489 -30.340   7.073  0.00  0.00    +0.088 C 
ENDROOT
BRANCH   7   9
ATOM      9  C   LIG    1       25.721 -29.059   8.878  0.00  0.00    -0.028 A 
ATOM     10  C   LIG    1       25.575 -28.214   9.996  0.00  0.00    +0.088 A 
ATOM     11  C   LIG    1       26.438 -28.356  11.094  0.00  0.00    +0.273 A 
ATOM     12  C   LIG    1       27.434 -29.332  11.130  0.00  0.00    +0.084 A 
ATOM     13  C   LIG    1       27.578 -30.172  10.031  0.00  0.00    +0.007 A 
ATOM     14  C   LIG    1       26.743 -30.029   8.915  0.00  0.00    +0.005 A 
BRANCH  11  15
ATOM     15  N   LIG    1       26.304 -27.460  12.231  0.00  0.00    +0.080 N 
ATOM     16  O   LIG    1       25.630 -27.856  13.192  0.00  0.00    -0.576 OA
ATOM     17  O   LIG    1       26.879 -26.365  12.158  0.00  0.00    +0.041 OA
ENDBRANCH  11  15
ENDBRANCH   7   9
BRANCH   5  18
ATOM     18  N   LIG    1       26.321 -27.587   4.492  0.00  0.00    -0.251 N 
ATOM     19  H   LIG    1       27.266 -27.278   4.699  0.00  0.00    +0.288 HD
ATOM     20  H   LIG    1       26.285 -28.022   3.565  0.00  0.00    +0.288 HD
ENDBRANCH   5  18
BRANCH   6  21
ATOM     21  C   LIG    1       24.882 -26.536   6.798  0.00  0.00    +0.344 C 
ATOM     22  O   LIG    1       23.816 -26.021   6.539  0.00  0.00    -0.245 OA
BRANCH  21  23
ATOM     23  O   LIG    1       25.988 -25.893   7.244  0.00  0.00    -0.455 OA
BRANCH  23  24
ATOM     24  C   LIG    1       26.206 -24.590   6.670  0.00  0.00    +0.205 C 
ATOM     25  C   LIG    1       24.931 -23.977   6.047  0.00  0.00    +0.131 C 
ATOM     26  N   LIG    1       25.172 -22.712   6.771  0.00  0.00    -0.284 NA
ATOM     27  C   LIG    1       26.158 -23.385   7.633  0.00  0.00    +0.131 C 
BRANCH  26  28
ATOM     28  C   LIG    1       25.748 -21.699   5.847  0.00  0.00    +0.117 C 
BRANCH  28  29
ATOM     29  C   LIG    1       26.879 -20.886   6.483  0.00  0.00    -0.026 A 
ATOM     30  C   LIG    1       27.887 -20.320   5.681  0.00  0.00    +0.005 A 
ATOM     31  C   LIG    1       28.905 -19.554   6.252  0.00  0.00    +0.000 A 
ATOM     32  C   LIG    1       28.938 -19.352   7.631  0.00  0.00    +0.000 A 
ATOM     33  C   LIG    1       27.956 -19.921   8.439  0.00  0.00    +0.000 A 
ATOM     34  C   LIG    1       26.936 -20.682   7.870  0.00  0.00    +0.005 A 
ENDBRANCH  28  29
BRANCH  28  35
ATOM     35  C   LIG    1       24.640 -20.761   5.323  0.00  0.00    -0.026 A 
ATOM     36  C   LIG    1       24.795 -20.087   4.102  0.00  0.00    +0.005 A 
ATOM     37  C   LIG    1       23.800 -19.222   3.634  0.00  0.00    +0.000 A 
ATOM     38  C   LIG    1       22.637 -19.017   4.376  0.00  0.00    +0.000 A 
ATOM     39  C   LIG    1       22.470 -19.671   5.592  0.00  0.00    +0.000 A 
ATOM     40  C   LIG    1       23.464 -20.528   6.063  0.00  0.00    +0.005 A 
ENDBRANCH  28  35
ENDBRANCH  26  28
ENDBRANCH  23  24
ENDBRANCH  21  23
ENDBRANCH   6  21
BRANCH   8  41
ATOM     41  C   LIG    1       23.534 -31.242   7.768  0.00  0.00    +0.340 C 
ATOM     42  O   LIG    1       23.313 -32.394   7.444  0.00  0.00    -0.245 OA
BRANCH  41  43
ATOM     43  O   LIG    1       22.978 -30.601   8.828  0.00  0.00    -0.459 OA
BRANCH  43  44
ATOM     44  C   LIG    1       22.599 -31.427   9.942  0.00  0.00    +0.171 C 
ATOM     45  C   LIG    1       21.278 -30.952  10.530  0.00  0.00    +0.051 C 
ATOM     46  C   LIG    1       23.720 -31.341  10.971  0.00  0.00    +0.051 C 
ENDBRANCH  43  44
ENDBRANCH  41  43
ENDBRANCH   8  41
TORSDOF 12
ENDMDL
MODEL 6
REMARK VINA RESULT:      -8.3      1.319      1.686
REMARK  Name = *****
REMARK                            x       y       z     vdW  Elec       q    Type
REMARK                         _______ _______ _______ _____ _____    ______ ____
ROOT
ATOM      1  C   LIG    1       26.465 -32.067   4.624  0.00  0.00    +0.089 C 
ATOM      2  C   LIG    1       25.906 -30.824   5.270  0.00  0.00    +0.103 C 
ATOM      3  N   LIG    1       26.690 -29.683   5.165  0.00  0.00    -0.208 N 
ATOM      4  H   LIG    1       27.554 -29.750   4.637  0.00  0.00    +0.298 HD
ATOM      5  C   LIG    1       26.212 -28.402   5.347  0.00  0.00    +0.269 C 
ATOM      6  C   LIG    1       25.048 -28.255   6.023  0.00  0.00    +0.133 C 
ATOM      7  C   LIG    1       24.347 -29.456   6.649  0.00  0.00    +0.104 C 
ATOM      8  C   LIG    1       24.728 -30.752   5.937  0.00  0.00    +0.088 C 
ENDROOT
BRANCH   7   9
ATOM      9  C   LIG    1       24.595 -29.573   8.175  0.00  0.00    -0.028 A 
ATOM     10  C   LIG    1       25.841 -29.223   8.731  0.00  0.00    +0.088 A 
ATOM     11  C   LIG    1       26.027 -29.288  10.122  0.00  0.00    +0.273 A 
ATOM     12  C   LIG    1       25.001 -29.670  10.987  0.00  0.00    +0.084 A 
ATOM     13  C   LIG    1       23.767 -30.011  10.443  0.00  0.00    +0.007 A 
ATOM     14  C   LIG    1       23.570 -29.977   9.056  0.00  0.00    +0.005 A 
BRANCH  11  15
ATOM     15  N   LIG    1       27.324 -28.957  10.688  0.00  0.00    +0.080 N 
ATOM     16  O   LIG    1       27.461 -27.827  11.176  0.00  0.00    -0.576 OA
ATOM     17  O   LIG    1       28.199 -29.834  10.644  0.00  0.00    +0.041 OA
ENDBRANCH  11  15
ENDBRANCH   7   9
BRANCH   5  18
ATOM     18  N   LIG    1       26.947 -27.382   4.794  0.00  0.00    -0.251 N 
ATOM     19  H   LIG    1       27.943 -27.505   4.949  0.00  0.00    +0.288 HD
ATOM     20  H   LIG    1       26.757 -27.249   3.796  0.00  0.00    +0.288 HD
ENDBRANCH   5  18
BRANCH   6  21
ATOM     21  C   LIG    1       24.368 -26.939   6.077  0.00  0.00    +0.344 C 
ATOM     22  O   LIG    1       23.424 -26.606   5.394  0.00  0.00    -0.245 OA
BRANCH  21  23
ATOM     23  O   LIG    1       25.017 -26.153   6.970  0.00  0.00    -0.455 OA
BRANCH  23  24
ATOM     24  C   LIG    1       25.455 -24.881   6.456  0.00  0.00    +0.205 C 
ATOM     25  C   LIG    1       24.296 -23.880   6.240  0.00  0.00    +0.131 C 
ATOM     26  N   LIG    1       25.047 -22.836   6.966  0.00  0.00    -0.284 NA
ATOM     27  C   LIG    1       25.976 -23.854   7.484  0.00  0.00    +0.131 C 
BRANCH  26  28
ATOM     28  C   LIG    1       25.654 -21.881   5.999  0.00  0.00    +0.117 C 
BRANCH  28  29
ATOM     29  C   LIG    1       26.789 -21.055   6.609  0.00  0.00    -0.026 A 
ATOM     30  C   LIG    1       26.889 -20.901   8.004  0.00  0.00    +0.005 A 
ATOM     31  C   LIG    1       27.940 -20.173   8.567  0.00  0.00    +0.000 A 
ATOM     32  C   LIG    1       28.897 -19.580   7.746  0.00  0.00    +0.000 A 
ATOM     33  C   LIG    1       28.802 -19.709   6.363  0.00  0.00    +0.000 A 
ATOM     34  C   LIG    1       27.757 -20.440   5.799  0.00  0.00    +0.005 A 
ENDBRANCH  28  29
BRANCH  28  35
ATOM     35  C   LIG    1       24.570 -20.954   5.411  0.00  0.00    -0.026 A 
ATOM     36  C   LIG    1       24.673 -20.484   4.092  0.00  0.00    +0.005 A 
ATOM     37  C   LIG    1       23.701 -19.628   3.563  0.00  0.00    +0.000 A 
ATOM     38  C   LIG    1       22.613 -19.230   4.340  0.00  0.00    +0.000 A 
ATOM     39  C   LIG    1       22.498 -19.680   5.650  0.00  0.00    +0.000 A 
ATOM     40  C   LIG    1       23.470 -20.528   6.182  0.00  0.00    +0.005 A 
ENDBRANCH  28  35
ENDBRANCH  26  28
ENDBRANCH  23  24
ENDBRANCH  21  23
ENDBRANCH   6  21
BRANCH   8  41
ATOM     41  C   LIG    1       23.777 -31.893   6.000  0.00  0.00    +0.340 C 
ATOM     42  O   LIG    1       22.580 -31.803   5.805  0.00  0.00    -0.245 OA
BRANCH  41  43
ATOM     43  O   LIG    1       24.448 -33.042   6.272  0.00  0.00    -0.459 OA
BRANCH  43  44
ATOM     44  C   LIG    1       24.256 -33.593   7.585  0.00  0.00    +0.171 C 
ATOM     45  C   LIG    1       22.901 -33.182   8.142  0.00  0.00    +0.051 C 
ATOM     46  C   LIG    1       25.390 -33.075   8.463  0.00  0.00    +0.051 C 
ENDBRANCH  43  44
ENDBRANCH  41  43
ENDBRANCH   8  41
TORSDOF 12
ENDMDL
MODEL 7
REMARK VINA RESULT:      -7.9      1.872      3.926
REMARK  Name = *****
REMARK                            x       y       z     vdW  Elec       q    Type
REMARK                         _______ _______ _______ _____ _____    ______ ____
ROOT
ATOM      1  C   LIG    1       23.516 -32.695   7.940  0.00  0.00    +0.089 C 
ATOM      2  C   LIG    1       24.175 -31.339   7.908  0.00  0.00    +0.103 C 
ATOM      3  N   LIG    1       25.034 -31.108   6.841  0.00  0.00    -0.208 N 
ATOM      4  H   LIG    1       25.129 -31.840   6.145  0.00  0.00    +0.298 HD
ATOM      5  C   LIG    1       25.429 -29.852   6.431  0.00  0.00    +0.269 C 
ATOM      6  C   LIG    1       25.300 -28.832   7.312  0.00  0.00    +0.133 C 
ATOM      7  C   LIG    1       24.829 -29.084   8.741  0.00  0.00    +0.104 C 
ATOM      8  C   LIG    1       23.999 -30.363   8.832  0.00  0.00    +0.088 C 
ENDROOT
BRANCH   7   9
ATOM      9  C   LIG    1       25.993 -29.109   9.764  0.00  0.00    -0.028 A 
ATOM     10  C   LIG    1       26.044 -28.178  10.820  0.00  0.00    +0.088 A 
ATOM     11  C   LIG    1       27.081 -28.252  11.765  0.00  0.00    +0.273 A 
ATOM     12  C   LIG    1       28.062 -29.242  11.709  0.00  0.00    +0.084 A 
ATOM     13  C   LIG    1       28.012 -30.168  10.672  0.00  0.00    +0.007 A 
ATOM     14  C   LIG    1       27.000 -30.094   9.705  0.00  0.00    +0.005 A 
BRANCH  11  15
ATOM     15  N   LIG    1       27.148 -27.268  12.833  0.00  0.00    +0.080 N 
ATOM     16  O   LIG    1       26.718 -26.132  12.590  0.00  0.00    -0.576 OA
ATOM     17  O   LIG    1       27.627 -27.640  13.913  0.00  0.00    +0.041 OA
ENDBRANCH  11  15
ENDBRANCH   7   9
BRANCH   5  18
ATOM     18  N   LIG    1       25.895 -29.739   5.143  0.00  0.00    -0.251 N 
ATOM     19  H   LIG    1       26.861 -29.428   5.116  0.00  0.00    +0.288 HD
ATOM     20  H   LIG    1       25.784 -30.602   4.602  0.00  0.00    +0.288 HD
ENDBRANCH   5  18
BRANCH   6  21
ATOM     21  C   LIG    1       25.505 -27.429   6.878  0.00  0.00    +0.344 C 
ATOM     22  O   LIG    1       26.552 -26.823   6.932  0.00  0.00    -0.245 OA
BRANCH  21  23
ATOM     23  O   LIG    1       24.315 -26.924   6.471  0.00  0.00    -0.455 OA
BRANCH  23  24
ATOM     24  C   LIG    1       24.167 -25.502   6.644  0.00  0.00    +0.205 C 
ATOM     25  C   LIG    1       25.508 -24.777   6.902  0.00  0.00    +0.131 C 
ATOM     26  N   LIG    1       25.183 -23.781   5.861  0.00  0.00    -0.284 NA
ATOM     27  C   LIG    1       24.100 -24.646   5.362  0.00  0.00    +0.131 C 
BRANCH  26  28
ATOM     28  C   LIG    1       24.722 -22.516   6.493  0.00  0.00    +0.117 C 
BRANCH  28  29
ATOM     29  C   LIG    1       24.062 -21.557   5.498  0.00  0.00    -0.026 A 
ATOM     30  C   LIG    1       22.781 -21.035   5.753  0.00  0.00    +0.005 A 
ATOM     31  C   LIG    1       22.187 -20.138   4.863  0.00  0.00    +0.000 A 
ATOM     32  C   LIG    1       22.858 -19.758   3.702  0.00  0.00    +0.000 A 
ATOM     33  C   LIG    1       24.120 -20.280   3.428  0.00  0.00    +0.000 A 
ATOM     34  C   LIG    1       24.717 -21.172   4.317  0.00  0.00    +0.005 A 
ENDBRANCH  28  29
BRANCH  28  35
ATOM     35  C   LIG    1       25.894 -21.820   7.216  0.00  0.00    -0.026 A 
ATOM     36  C   LIG    1       25.650 -20.896   8.243  0.00  0.00    +0.005 A 
ATOM     37  C   LIG    1       26.711 -20.250   8.887  0.00  0.00    +0.000 A 
ATOM     38  C   LIG    1       28.029 -20.516   8.516  0.00  0.00    +0.000 A 
ATOM     39  C   LIG    1       28.289 -21.423   7.495  0.00  0.00    +0.000 A 
ATOM     40  C   LIG    1       27.232 -22.063   6.847  0.00  0.00    +0.005 A 
ENDBRANCH  28  35
ENDBRANCH  26  28
ENDBRANCH  23  24
ENDBRANCH  21  23
ENDBRANCH   6  21
BRANCH   8  41
ATOM     41  C   LIG    1       23.015 -30.483   9.941  0.00  0.00    +0.340 C 
ATOM     42  O   LIG    1       21.837 -30.196   9.850  0.00  0.00    -0.245 OA
BRANCH  41  43
ATOM     43  O   LIG    1       23.621 -30.988  11.046  0.00  0.00    -0.459 OA
BRANCH  43  44
ATOM     44  C   LIG    1       23.054 -30.609  12.311  0.00  0.00    +0.171 C 
ATOM     45  C   LIG    1       24.135 -30.081  13.242  0.00  0.00    +0.051 C 
ATOM     46  C   LIG    1       22.383 -31.847  12.895  0.00  0.00    +0.051 C 
ENDBRANCH  43  44
ENDBRANCH  41  43
ENDBRANCH   8  41
TORSDOF 12
ENDMDL
MODEL 8
REMARK VINA RESULT:      -7.2      4.757      9.147
REMARK  Name = *****
REMARK                            x       y       z     vdW  Elec       q    Type
REMARK                         _______ _______ _______ _____ _____    ______ ____
ROOT
ATOM      1  C   LIG    1       27.576 -29.252  10.945  0.00  0.00    +0.089 C 
ATOM      2  C   LIG    1       26.479 -30.169  10.466  0.00  0.00    +0.103 C 
ATOM      3  N   LIG    1       26.270 -31.312  11.226  0.00  0.00    -0.208 N 
ATOM      4  H   LIG    1       26.833 -31.433  12.061  0.00  0.00    +0.298 HD
ATOM      5  C   LIG    1       25.113 -32.062  11.185  0.00  0.00    +0.269 C 
ATOM      6  C   LIG    1       24.309 -31.920  10.104  0.00  0.00    +0.133 C 
ATOM      7  C   LIG    1       24.722 -31.039   8.929  0.00  0.00    +0.104 C 
ATOM      8  C   LIG    1       25.713 -29.962   9.367  0.00  0.00    +0.088 C 
ENDROOT
BRANCH   7   9
ATOM      9  C   LIG    1       25.283 -31.850   7.733  0.00  0.00    -0.028 A 
ATOM     10  C   LIG    1       24.436 -32.285   6.696  0.00  0.00    +0.088 A 
ATOM     11  C   LIG    1       24.975 -32.975   5.598  0.00  0.00    +0.273 A 
ATOM     12  C   LIG    1       26.342 -33.227   5.483  0.00  0.00    +0.084 A 
ATOM     13  C   LIG    1       27.184 -32.795   6.503  0.00  0.00    +0.007 A 
ATOM     14  C   LIG    1       26.661 -32.128   7.619  0.00  0.00    +0.005 A 
BRANCH  11  15
ATOM     15  N   LIG    1       24.091 -33.450   4.546  0.00  0.00    +0.080 N 
ATOM     16  O   LIG    1       24.589 -33.647   3.429  0.00  0.00    -0.576 OA
ATOM     17  O   LIG    1       22.903 -33.628   4.846  0.00  0.00    +0.041 OA
ENDBRANCH  11  15
ENDBRANCH   7   9
BRANCH   5  18
ATOM     18  N   LIG    1       24.859 -32.870  12.266  0.00  0.00    -0.251 N 
ATOM     19  H   LIG    1       23.896 -32.796  12.576  0.00  0.00    +0.288 HD
ATOM     20  H   LIG    1       25.103 -33.850  12.096  0.00  0.00    +0.288 HD
ENDBRANCH   5  18
BRANCH   6  21
ATOM     21  C   LIG    1       22.958 -32.529  10.084  0.00  0.00    +0.344 C 
ATOM     22  O   LIG    1       22.722 -33.717  10.060  0.00  0.00    -0.245 OA
BRANCH  21  23
ATOM     23  O   LIG    1       22.037 -31.536  10.033  0.00  0.00    -0.455 OA
BRANCH  23  24
ATOM     24  C   LIG    1       21.742 -30.913  11.298  0.00  0.00    +0.205 C 
ATOM     25  C   LIG    1       22.496 -29.581  11.511  0.00  0.00    +0.131 C 
ATOM     26  N   LIG    1       21.236 -28.918  11.907  0.00  0.00    -0.284 NA
ATOM     27  C   LIG    1       20.464 -30.052  11.371  0.00  0.00    +0.131 C 
BRANCH  26  28
ATOM     28  C   LIG    1       21.180 -28.776  13.386  0.00  0.00    +0.117 C 
BRANCH  28  29
ATOM     29  C   LIG    1       19.854 -28.191  13.880  0.00  0.00    -0.026 A 
ATOM     30  C   LIG    1       19.519 -26.852  13.605  0.00  0.00    +0.005 A 
ATOM     31  C   LIG    1       18.299 -26.322  14.027  0.00  0.00    +0.000 A 
ATOM     32  C   LIG    1       17.401 -27.116  14.739  0.00  0.00    +0.000 A 
ATOM     33  C   LIG    1       17.725 -28.438  15.033  0.00  0.00    +0.000 A 
ATOM     34  C   LIG    1       18.941 -28.971  14.608  0.00  0.00    +0.005 A 
ENDBRANCH  28  29
BRANCH  28  35
ATOM     35  C   LIG    1       22.364 -27.925  13.888  0.00  0.00    -0.026 A 
ATOM     36  C   LIG    1       23.095 -28.317  15.020  0.00  0.00    +0.005 A 
ATOM     37  C   LIG    1       24.158 -27.536  15.488  0.00  0.00    +0.000 A 
ATOM     38  C   LIG    1       24.506 -26.354  14.834  0.00  0.00    +0.000 A 
ATOM     39  C   LIG    1       23.789 -25.947  13.715  0.00  0.00    +0.000 A 
ATOM     40  C   LIG    1       22.724 -26.720  13.252  0.00  0.00    +0.005 A 
ENDBRANCH  28  35
ENDBRANCH  26  28
ENDBRANCH  23  24
ENDBRANCH  21  23
ENDBRANCH   6  21
BRANCH   8  41
ATOM     41  C   LIG    1       25.792 -28.713   8.562  0.00  0.00    +0.340 C 
ATOM     42  O   LIG    1       26.628 -27.844   8.720  0.00  0.00    -0.245 OA
BRANCH  41  43
ATOM     43  O   LIG    1       24.821 -28.711   7.615  0.00  0.00    -0.459 OA
BRANCH  43  44
ATOM     44  C   LIG    1       25.156 -28.088   6.363  0.00  0.00    +0.171 C 
ATOM     45  C   LIG    1       24.405 -26.775   6.204  0.00  0.00    +0.051 C 
ATOM     46  C   LIG    1       24.787 -29.069   5.256  0.00  0.00    +0.051 C 
ENDBRANCH  43  44
ENDBRANCH  41  43
ENDBRANCH   8  41
TORSDOF 12
ENDMDL
MODEL 9
REMARK VINA RESULT:      -7.2      2.031      2.903
REMARK  Name = *****
REMARK                            x       y       z     vdW  Elec       q    Type
REMARK                         _______ _______ _______ _____ _____    ______ ____
ROOT
ATOM      1  C   LIG    1       23.408 -32.938   8.285  0.00  0.00    +0.089 C 
ATOM      2  C   LIG    1       24.075 -31.608   8.035  0.00  0.00    +0.103 C 
ATOM      3  N   LIG    1       24.950 -31.563   6.958  0.00  0.00    -0.208 N 
ATOM      4  H   LIG    1       25.052 -32.402   6.396  0.00  0.00    +0.298 HD
ATOM      5  C   LIG    1       25.358 -30.395   6.348  0.00  0.00    +0.269 C 
ATOM      6  C   LIG    1       25.221 -29.241   7.043  0.00  0.00    +0.133 C 
ATOM      7  C   LIG    1       24.728 -29.247   8.487  0.00  0.00    +0.104 C 
ATOM      8  C   LIG    1       23.890 -30.491   8.779  0.00  0.00    +0.088 C 
ENDROOT
BRANCH   7   9
ATOM      9  C   LIG    1       25.877 -29.103   9.518  0.00  0.00    -0.028 A 
ATOM     10  C   LIG    1       25.803 -28.147  10.549  0.00  0.00    +0.088 A 
ATOM     11  C   LIG    1       26.832 -28.068  11.502  0.00  0.00    +0.273 A 
ATOM     12  C   LIG    1       27.928 -28.931  11.478  0.00  0.00    +0.084 A 
ATOM     13  C   LIG    1       28.002 -29.881  10.465  0.00  0.00    +0.007 A 
ATOM     14  C   LIG    1       26.998 -29.957   9.490  0.00  0.00    +0.005 A 
BRANCH  11  15
ATOM     15  N   LIG    1       26.768 -27.058  12.545  0.00  0.00    +0.080 N 
ATOM     16  O   LIG    1       26.887 -27.440  13.717  0.00  0.00    -0.576 OA
ATOM     17  O   LIG    1       26.603 -25.885  12.184  0.00  0.00    +0.041 OA
ENDBRANCH  11  15
ENDBRANCH   7   9
BRANCH   5  18
ATOM     18  N   LIG    1       25.843 -30.501   5.068  0.00  0.00    -0.251 N 
ATOM     19  H   LIG    1       25.681 -29.655   4.530  0.00  0.00    +0.288 HD
ATOM     20  H   LIG    1       26.835 -30.757   5.037  0.00  0.00    +0.288 HD
ENDBRANCH   5  18
BRANCH   6  21
ATOM     21  C   LIG    1       25.440 -27.932   6.383  0.00  0.00    +0.344 C 
ATOM     22  O   LIG    1       25.512 -27.751   5.187  0.00  0.00    -0.245 OA
BRANCH  21  23
ATOM     23  O   LIG    1       25.608 -26.987   7.339  0.00  0.00    -0.455 OA
BRANCH  23  24
ATOM     24  C   LIG    1       25.875 -25.661   6.845  0.00  0.00    +0.205 C 
ATOM     25  C   LIG    1       24.631 -24.980   6.229  0.00  0.00    +0.131 C 
ATOM     26  N   LIG    1       24.886 -23.764   7.029  0.00  0.00    -0.284 NA
ATOM     27  C   LIG    1       25.834 -24.511   7.873  0.00  0.00    +0.131 C 
BRANCH  26  28
ATOM     28  C   LIG    1       25.511 -22.717   6.177  0.00  0.00    +0.117 C 
BRANCH  28  29
ATOM     29  C   LIG    1       26.514 -21.847   6.940  0.00  0.00    -0.026 A 
ATOM     30  C   LIG    1       26.075 -20.967   7.945  0.00  0.00    +0.005 A 
ATOM     31  C   LIG    1       26.989 -20.193   8.664  0.00  0.00    +0.000 A 
ATOM     32  C   LIG    1       28.351 -20.279   8.381  0.00  0.00    +0.000 A 
ATOM     33  C   LIG    1       28.799 -21.133   7.377  0.00  0.00    +0.000 A 
ATOM     34  C   LIG    1       27.889 -21.910   6.661  0.00  0.00    +0.005 A 
ENDBRANCH  28  29
BRANCH  28  35
ATOM     35  C   LIG    1       24.423 -21.838   5.525  0.00  0.00    -0.026 A 
ATOM     36  C   LIG    1       24.741 -20.981   4.460  0.00  0.00    +0.005 A 
ATOM     37  C   LIG    1       23.760 -20.170   3.880  0.00  0.00    +0.000 A 
ATOM     38  C   LIG    1       22.449 -20.201   4.353  0.00  0.00    +0.000 A 
ATOM     39  C   LIG    1       22.116 -21.038   5.413  0.00  0.00    +0.000 A 
ATOM     40  C   LIG    1       23.095 -21.843   5.997  0.00  0.00    +0.005 A 
ENDBRANCH  28  35
ENDBRANCH  26  28
ENDBRANCH  23  24
ENDBRANCH  21  23
ENDBRANCH   6  21
BRANCH   8  41
ATOM     41  C   LIG    1       22.889 -30.419   9.877  0.00  0.00    +0.340 C 
ATOM     42  O   LIG    1       23.064 -29.838  10.931  0.00  0.00    -0.245 OA
BRANCH  41  43
ATOM     43  O   LIG    1       21.754 -31.065   9.511  0.00  0.00    -0.459 OA
BRANCH  43  44
ATOM     44  C   LIG    1       20.868 -31.446  10.578  0.00  0.00    +0.171 C 
ATOM     45  C   LIG    1       20.583 -32.939  10.525  0.00  0.00    +0.051 C 
ATOM     46  C   LIG    1       19.587 -30.637  10.413  0.00  0.00    +0.051 C 
ENDBRANCH  43  44
ENDBRANCH  41  43
ENDBRANCH   8  41
TORSDOF 12
ENDMDL
