MODEL 1
REMARK VINA RESULT:       4.3      0.000      0.000
REMARK  Name = *****
REMARK                            x       y       z     vdW  Elec       q    Type
REMARK                         _______ _______ _______ _____ _____    ______ ____
ROOT
ATOM      1  C   LIG    1       25.032 -18.855   3.960  0.00  0.00    +0.059 C 
ENDROOT
BRANCH   1   2
ATOM      2  C   LIG    1       25.866 -19.648   5.101  0.00  0.00    -0.033 A 
ATOM      3  C   LIG    1       27.277 -19.601   5.190  0.00  0.00    +0.005 A 
ATOM      4  C   LIG    1       28.015 -20.405   6.077  0.00  0.00    +0.000 A 
ATOM      5  C   LIG    1       27.380 -21.208   7.009  0.00  0.00    +0.000 A 
ATOM      6  C   LIG    1       26.009 -21.188   7.060  0.00  0.00    +0.000 A 
ATOM      7  C   LIG    1       25.298 -20.433   6.123  0.00  0.00    +0.005 A 
ENDBRANCH   1   2
BRANCH   1   8
ATOM      8  C   LIG    1       23.949 -17.805   4.456  0.00  0.00    -0.033 A 
ATOM      9  C   LIG    1       24.081 -16.420   4.236  0.00  0.00    +0.005 A 
ATOM     10  C   LIG    1       23.098 -15.480   4.627  0.00  0.00    +0.000 A 
ATOM     11  C   LIG    1       21.926 -15.886   5.246  0.00  0.00    +0.000 A 
ATOM     12  C   LIG    1       21.756 -17.225   5.487  0.00  0.00    +0.000 A 
ATOM     13  C   LIG    1       22.764 -18.127   5.136  0.00  0.00    +0.005 A 
ENDBRANCH   1   8
BRANCH   1  14
ATOM     14  C   LIG    1       24.237 -20.120   3.196  0.00  0.00    +0.191 C 
BRANCH  14  16
ATOM     15  C   LIG    1       22.131 -18.947   2.197  0.00  0.00    +0.007 C 
ATOM     16  C   LIG    1       23.196 -20.028   2.057  0.00  0.00    +0.042 C 
ENDBRANCH  14  16
BRANCH  14  17
ATOM     17  O   LIG    1       23.874 -21.269   4.045  0.00  0.00    -0.460 OA
BRANCH  17  18
ATOM     18  C   LIG    1       22.679 -21.350   4.715  0.00  0.00    +0.304 C 
ATOM     19  O   LIG    1       21.587 -21.257   4.265  0.00  0.00    -0.251 OA
ATOM     20  C   LIG    1       22.946 -21.568   6.193  0.00  0.00    +0.136 C 
ENDBRANCH  17  18
ENDBRANCH  14  17
ENDBRANCH   1  14
BRANCH   1  21
ATOM     21  C   LIG    1       26.004 -18.102   2.863  0.00  0.00    +0.038 C 
BRANCH  21  22
ATOM     22  C   LIG    1       27.026 -16.885   3.134  0.00  0.00    +0.054 C 
ATOM     23  C   LIG    1       27.951 -17.199   4.368  0.00  0.00    +0.024 C 
BRANCH  22  24
ATOM     24  N   LIG    1       26.539 -15.510   3.441  0.00  0.00    -0.306 NA
ATOM     25  C   LIG    1       27.409 -14.722   4.268  0.00  0.00    +0.105 C 
ATOM     26  C   LIG    1       26.205 -14.730   2.249  0.00  0.00    +0.105 C 
ENDBRANCH  22  24
ENDBRANCH  21  22
ENDBRANCH   1  21
TORSDOF 9
ENDMDL
MODEL 2
REMARK VINA RESULT:       4.5      2.499      6.137
REMARK  Name = *****
REMARK                            x       y       z     vdW  Elec       q    Type
REMARK                         _______ _______ _______ _____ _____    ______ ____
ROOT
ATOM      1  C   LIG    1       25.661 -18.116   3.831  0.00  0.00    +0.059 C 
ENDROOT
BRANCH   1   2
ATOM      2  C   LIG    1       24.267 -17.406   4.254  0.00  0.00    -0.033 A 
ATOM      3  C   LIG    1       24.086 -16.003   4.239  0.00  0.00    +0.005 A 
ATOM      4  C   LIG    1       22.936 -15.374   4.748  0.00  0.00    +0.000 A 
ATOM      5  C   LIG    1       21.852 -16.116   5.187  0.00  0.00    +0.000 A 
ATOM      6  C   LIG    1       21.918 -17.483   5.095  0.00  0.00    +0.000 A 
ATOM      7  C   LIG    1       23.098 -18.085   4.649  0.00  0.00    +0.005 A 
ENDBRANCH   1   2
BRANCH   1   8
ATOM      8  C   LIG    1       26.483 -18.836   4.982  0.00  0.00    -0.033 A 
ATOM      9  C   LIG    1       25.868 -19.625   5.973  0.00  0.00    +0.005 A 
ATOM     10  C   LIG    1       26.595 -20.314   6.972  0.00  0.00    +0.000 A 
ATOM     11  C   LIG    1       27.979 -20.256   7.018  0.00  0.00    +0.000 A 
ATOM     12  C   LIG    1       28.623 -19.493   6.078  0.00  0.00    +0.000 A 
ATOM     13  C   LIG    1       27.879 -18.783   5.132  0.00  0.00    +0.005 A 
ENDBRANCH   1   8
BRANCH   1  14
ATOM     14  C   LIG    1       26.546 -16.799   3.285  0.00  0.00    +0.191 C 
BRANCH  14  16
ATOM     15  C   LIG    1       27.318 -15.001   5.012  0.00  0.00    +0.007 C 
ATOM     16  C   LIG    1       27.707 -16.079   4.008  0.00  0.00    +0.042 C 
ENDBRANCH  14  16
BRANCH  14  17
ATOM     17  O   LIG    1       25.801 -15.787   2.514  0.00  0.00    -0.460 OA
BRANCH  17  18
ATOM     18  C   LIG    1       26.304 -14.538   2.246  0.00  0.00    +0.304 C 
ATOM     19  O   LIG    1       27.372 -14.264   1.814  0.00  0.00    -0.251 OA
ATOM     20  C   LIG    1       25.268 -13.490   2.611  0.00  0.00    +0.136 C 
ENDBRANCH  17  18
ENDBRANCH  14  17
ENDBRANCH   1  14
BRANCH   1  21
ATOM     21  C   LIG    1       25.484 -19.185   2.588  0.00  0.00    +0.038 C 
BRANCH  21  22
ATOM     22  C   LIG    1       24.332 -20.298   2.411  0.00  0.00    +0.054 C 
ATOM     23  C   LIG    1       22.929 -19.618   2.195  0.00  0.00    +0.024 C 
BRANCH  22  24
ATOM     24  N   LIG    1       24.041 -21.297   3.479  0.00  0.00    -0.306 NA
ATOM     25  C   LIG    1       25.129 -21.570   4.376  0.00  0.00    +0.105 C 
ATOM     26  C   LIG    1       22.858 -20.971   4.275  0.00  0.00    +0.105 C 
ENDBRANCH  22  24
ENDBRANCH  21  22
ENDBRANCH   1  21
TORSDOF 9
ENDMDL
MODEL 3
REMARK VINA RESULT:       5.3      2.084      3.886
REMARK  Name = *****
REMARK                            x       y       z     vdW  Elec       q    Type
REMARK                         _______ _______ _______ _____ _____    ______ ____
ROOT
ATOM      1  C   LIG    1       23.635 -18.418   4.620  0.00  0.00    +0.059 C 
ENDROOT
BRANCH   1   2
ATOM      2  C   LIG    1       24.433 -19.511   5.512  0.00  0.00    -0.033 A 
ATOM      3  C   LIG    1       25.845 -19.554   5.587  0.00  0.00    +0.005 A 
ATOM      4  C   LIG    1       26.546 -20.588   6.232  0.00  0.00    +0.000 A 
ATOM      5  C   LIG    1       25.876 -21.569   6.943  0.00  0.00    +0.000 A 
ATOM      6  C   LIG    1       24.507 -21.498   7.020  0.00  0.00    +0.000 A 
ATOM      7  C   LIG    1       23.831 -20.499   6.314  0.00  0.00    +0.005 A 
ENDBRANCH   1   2
BRANCH   1   8
ATOM      8  C   LIG    1       22.153 -18.785   4.184  0.00  0.00    -0.033 A 
ATOM      9  C   LIG    1       21.546 -20.011   4.521  0.00  0.00    +0.005 A 
ATOM     10  C   LIG    1       20.208 -20.327   4.185  0.00  0.00    +0.000 A 
ATOM     11  C   LIG    1       19.409 -19.422   3.504  0.00  0.00    +0.000 A 
ATOM     12  C   LIG    1       19.959 -18.218   3.148  0.00  0.00    +0.000 A 
ATOM     13  C   LIG    1       21.297 -17.949   3.449  0.00  0.00    +0.005 A 
ENDBRANCH   1   8
BRANCH   1  14
ATOM     14  C   LIG    1       24.595 -18.353   3.245  0.00  0.00    +0.191 C 
BRANCH  14  16
ATOM     15  C   LIG    1       24.660 -20.877   2.587  0.00  0.00    +0.007 C 
ATOM     16  C   LIG    1       25.350 -19.518   2.567  0.00  0.00    +0.042 C 
ENDBRANCH  14  16
BRANCH  14  17
ATOM     17  O   LIG    1       25.403 -17.132   3.072  0.00  0.00    -0.460 OA
BRANCH  17  18
ATOM     18  C   LIG    1       26.696 -17.028   3.522  0.00  0.00    +0.304 C 
ATOM     19  O   LIG    1       27.383 -17.886   3.963  0.00  0.00    -0.251 OA
ATOM     20  C   LIG    1       27.157 -15.587   3.393  0.00  0.00    +0.136 C 
ENDBRANCH  17  18
ENDBRANCH  14  17
ENDBRANCH   1  14
BRANCH   1  21
ATOM     21  C   LIG    1       23.605 -16.923   5.315  0.00  0.00    +0.038 C 
BRANCH  21  22
ATOM     22  C   LIG    1       23.156 -15.535   4.629  0.00  0.00    +0.054 C 
ATOM     23  C   LIG    1       22.348 -15.802   3.305  0.00  0.00    +0.024 C 
BRANCH  22  24
ATOM     24  N   LIG    1       24.158 -14.520   4.193  0.00  0.00    -0.306 NA
ATOM     25  C   LIG    1       23.790 -13.755   3.035  0.00  0.00    +0.105 C 
ATOM     26  C   LIG    1       24.548 -13.592   5.254  0.00  0.00    +0.105 C 
ENDBRANCH  22  24
ENDBRANCH  21  22
ENDBRANCH   1  21
TORSDOF 9
ENDMDL
MODEL 4
REMARK VINA RESULT:       5.3      2.059      3.844
REMARK  Name = *****
REMARK                            x       y       z     vdW  Elec       q    Type
REMARK                         _______ _______ _______ _____ _____    ______ ____
ROOT
ATOM      1  C   LIG    1       23.569 -18.460   4.481  0.00  0.00    +0.059 C 
ENDROOT
BRANCH   1   2
ATOM      2  C   LIG    1       24.326 -19.599   5.351  0.00  0.00    -0.033 A 
ATOM      3  C   LIG    1       23.632 -20.566   6.117  0.00  0.00    +0.005 A 
ATOM      4  C   LIG    1       24.278 -21.457   6.992  0.00  0.00    +0.000 A 
ATOM      5  C   LIG    1       25.660 -21.516   7.058  0.00  0.00    +0.000 A 
ATOM      6  C   LIG    1       26.387 -20.695   6.234  0.00  0.00    +0.000 A 
ATOM      7  C   LIG    1       25.721 -19.771   5.424  0.00  0.00    +0.005 A 
ENDBRANCH   1   2
BRANCH   1   8
ATOM      8  C   LIG    1       22.062 -18.746   4.073  0.00  0.00    -0.033 A 
ATOM      9  C   LIG    1       21.277 -17.811   3.371  0.00  0.00    +0.005 A 
ATOM     10  C   LIG    1       19.950 -18.076   2.955  0.00  0.00    +0.000 A 
ATOM     11  C   LIG    1       19.350 -19.298   3.212  0.00  0.00    +0.000 A 
ATOM     12  C   LIG    1       20.074 -20.238   3.900  0.00  0.00    +0.000 A 
ATOM     13  C   LIG    1       21.364 -19.935   4.342  0.00  0.00    +0.005 A 
ENDBRANCH   1   8
BRANCH   1  14
ATOM     14  C   LIG    1       24.504 -18.437   3.088  0.00  0.00    +0.191 C 
BRANCH  14  16
ATOM     15  C   LIG    1       24.530 -21.014   2.682  0.00  0.00    +0.007 C 
ATOM     16  C   LIG    1       25.105 -19.646   2.336  0.00  0.00    +0.042 C 
ENDBRANCH  14  16
BRANCH  14  17
ATOM     17  O   LIG    1       25.448 -17.311   2.956  0.00  0.00    -0.460 OA
BRANCH  17  18
ATOM     18  C   LIG    1       26.658 -17.276   3.602  0.00  0.00    +0.304 C 
ATOM     19  O   LIG    1       27.266 -18.186   4.054  0.00  0.00    -0.251 OA
ATOM     20  C   LIG    1       27.140 -15.839   3.687  0.00  0.00    +0.136 C 
ENDBRANCH  17  18
ENDBRANCH  14  17
ENDBRANCH   1  14
BRANCH   1  21
ATOM     21  C   LIG    1       23.631 -16.970   5.184  0.00  0.00    +0.038 C 
BRANCH  21  22
ATOM     22  C   LIG    1       23.239 -15.556   4.517  0.00  0.00    +0.054 C 
ATOM     23  C   LIG    1       22.374 -15.773   3.219  0.00  0.00    +0.024 C 
BRANCH  22  24
ATOM     24  N   LIG    1       24.281 -14.598   4.050  0.00  0.00    -0.306 NA
ATOM     25  C   LIG    1       23.843 -13.648   3.065  0.00  0.00    +0.105 C 
ATOM     26  C   LIG    1       24.930 -13.868   5.138  0.00  0.00    +0.105 C 
ENDBRANCH  22  24
ENDBRANCH  21  22
ENDBRANCH   1  21
TORSDOF 9
ENDMDL
MODEL 5
REMARK VINA RESULT:       5.5      2.986      6.508
REMARK  Name = *****
REMARK                            x       y       z     vdW  Elec       q    Type
REMARK                         _______ _______ _______ _____ _____    ______ ____
ROOT
ATOM      1  C   LIG    1       25.440 -15.398   3.770  0.00  0.00    +0.059 C 
ENDROOT
BRANCH   1   2
ATOM      2  C   LIG    1       25.092 -14.011   3.005  0.00  0.00    -0.033 A 
ATOM      3  C   LIG    1       26.089 -13.118   2.546  0.00  0.00    +0.005 A 
ATOM      4  C   LIG    1       25.796 -11.847   2.022  0.00  0.00    +0.000 A 
ATOM      5  C   LIG    1       24.487 -11.447   1.812  0.00  0.00    +0.000 A 
ATOM      6  C   LIG    1       23.480 -12.330   2.110  0.00  0.00    +0.000 A 
ATOM      7  C   LIG    1       23.796 -13.560   2.694  0.00  0.00    +0.005 A 
ENDBRANCH   1   2
BRANCH   1   8
ATOM      8  C   LIG    1       24.217 -16.325   4.176  0.00  0.00    -0.033 A 
ATOM      9  C   LIG    1       23.057 -15.820   4.796  0.00  0.00    +0.005 A 
ATOM     10  C   LIG    1       21.940 -16.628   5.114  0.00  0.00    +0.000 A 
ATOM     11  C   LIG    1       21.926 -17.981   4.813  0.00  0.00    +0.000 A 
ATOM     12  C   LIG    1       23.036 -18.519   4.215  0.00  0.00    +0.000 A 
ATOM     13  C   LIG    1       24.146 -17.710   3.956  0.00  0.00    +0.005 A 
ENDBRANCH   1   8
BRANCH   1  14
ATOM     14  C   LIG    1       26.165 -14.826   5.171  0.00  0.00    +0.191 C 
BRANCH  14  16
ATOM     15  C   LIG    1       24.294 -13.110   5.774  0.00  0.00    +0.007 C 
ATOM     16  C   LIG    1       25.662 -13.698   6.100  0.00  0.00    +0.042 C 
ENDBRANCH  14  16
BRANCH  14  17
ATOM     17  O   LIG    1       27.639 -14.784   5.171  0.00  0.00    -0.460 OA
BRANCH  17  18
ATOM     18  C   LIG    1       28.355 -13.807   4.525  0.00  0.00    +0.304 C 
ATOM     19  O   LIG    1       28.873 -13.869   3.462  0.00  0.00    -0.251 OA
ATOM     20  C   LIG    1       28.419 -12.569   5.402  0.00  0.00    +0.136 C 
ENDBRANCH  17  18
ENDBRANCH  14  17
ENDBRANCH   1  14
BRANCH   1  21
ATOM     21  C   LIG    1       26.530 -16.324   2.951  0.00  0.00    +0.038 C 
BRANCH  21  22
ATOM     22  C   LIG    1       27.048 -17.800   3.340  0.00  0.00    +0.054 C 
ATOM     23  C   LIG    1       25.913 -18.867   3.113  0.00  0.00    +0.024 C 
BRANCH  22  24
ATOM     24  N   LIG    1       27.519 -18.124   4.717  0.00  0.00    -0.306 NA
ATOM     25  C   LIG    1       27.271 -19.471   5.150  0.00  0.00    +0.105 C 
ATOM     26  C   LIG    1       28.934 -17.824   4.934  0.00  0.00    +0.105 C 
ENDBRANCH  22  24
ENDBRANCH  21  22
ENDBRANCH   1  21
TORSDOF 9
ENDMDL
MODEL 6
REMARK VINA RESULT:       5.9      2.125      5.057
REMARK  Name = *****
REMARK                            x       y       z     vdW  Elec       q    Type
REMARK                         _______ _______ _______ _____ _____    ______ ____
ROOT
ATOM      1  C   LIG    1       23.608 -18.216   4.276  0.00  0.00    +0.059 C 
ENDROOT
BRANCH   1   2
ATOM      2  C   LIG    1       22.121 -18.790   3.980  0.00  0.00    -0.033 A 
ATOM      3  C   LIG    1       21.187 -18.112   3.161  0.00  0.00    +0.005 A 
ATOM      4  C   LIG    1       19.850 -18.523   3.023  0.00  0.00    +0.000 A 
ATOM      5  C   LIG    1       19.403 -19.702   3.597  0.00  0.00    +0.000 A 
ATOM      6  C   LIG    1       20.303 -20.472   4.289  0.00  0.00    +0.000 A 
ATOM      7  C   LIG    1       21.609 -20.007   4.468  0.00  0.00    +0.005 A 
ENDBRANCH   1   2
BRANCH   1   8
ATOM      8  C   LIG    1       23.789 -16.639   4.260  0.00  0.00    -0.033 A 
ATOM      9  C   LIG    1       22.885 -15.766   4.896  0.00  0.00    +0.005 A 
ATOM     10  C   LIG    1       23.065 -14.363   4.933  0.00  0.00    +0.000 A 
ATOM     11  C   LIG    1       24.170 -13.767   4.346  0.00  0.00    +0.000 A 
ATOM     12  C   LIG    1       25.074 -14.577   3.708  0.00  0.00    +0.000 A 
ATOM     13  C   LIG    1       24.848 -15.954   3.642  0.00  0.00    +0.005 A 
ENDBRANCH   1   8
BRANCH   1  14
ATOM     14  C   LIG    1       24.470 -18.866   2.991  0.00  0.00    +0.191 C 
BRANCH  14  16
ATOM     15  C   LIG    1       24.059 -21.377   3.569  0.00  0.00    +0.007 C 
ATOM     16  C   LIG    1       24.537 -20.346   2.553  0.00  0.00    +0.042 C 
ENDBRANCH  14  16
BRANCH  14  17
ATOM     17  O   LIG    1       25.784 -18.256   2.714  0.00  0.00    -0.460 OA
BRANCH  17  18
ATOM     18  C   LIG    1       26.844 -18.349   3.582  0.00  0.00    +0.304 C 
ATOM     19  O   LIG    1       27.280 -19.323   4.094  0.00  0.00    -0.251 OA
ATOM     20  C   LIG    1       27.409 -16.962   3.833  0.00  0.00    +0.136 C 
ENDBRANCH  17  18
ENDBRANCH  14  17
ENDBRANCH   1  14
BRANCH   1  21
ATOM     21  C   LIG    1       24.246 -18.787   5.684  0.00  0.00    +0.038 C 
BRANCH  21  22
ATOM     22  C   LIG    1       25.058 -20.162   5.904  0.00  0.00    +0.054 C 
ATOM     23  C   LIG    1       24.097 -21.303   6.405  0.00  0.00    +0.024 C 
BRANCH  22  24
ATOM     24  N   LIG    1       26.192 -20.253   6.868  0.00  0.00    -0.306 NA
ATOM     25  C   LIG    1       26.728 -21.572   7.061  0.00  0.00    +0.105 C 
ATOM     26  C   LIG    1       27.297 -19.348   6.555  0.00  0.00    +0.105 C 
ENDBRANCH  22  24
ENDBRANCH  21  22
ENDBRANCH   1  21
TORSDOF 9
ENDMDL
MODEL 7
REMARK VINA RESULT:       6.3      2.142      4.455
REMARK  Name = *****
REMARK                            x       y       z     vdW  Elec       q    Type
REMARK                         _______ _______ _______ _____ _____    ______ ____
ROOT
ATOM      1  C   LIG    1       25.893 -18.269   4.018  0.00  0.00    +0.059 C 
ENDROOT
BRANCH   1   2
ATOM      2  C   LIG    1       26.784 -19.149   5.047  0.00  0.00    -0.033 A 
ATOM      3  C   LIG    1       26.226 -20.134   5.896  0.00  0.00    +0.005 A 
ATOM      4  C   LIG    1       26.965 -20.791   6.895  0.00  0.00    +0.000 A 
ATOM      5  C   LIG    1       28.330 -20.592   7.021  0.00  0.00    +0.000 A 
ATOM      6  C   LIG    1       28.950 -19.750   6.133  0.00  0.00    +0.000 A 
ATOM      7  C   LIG    1       28.182 -19.058   5.193  0.00  0.00    +0.005 A 
ENDBRANCH   1   2
BRANCH   1   8
ATOM      8  C   LIG    1       26.413 -16.808   3.679  0.00  0.00    -0.033 A 
ATOM      9  C   LIG    1       25.843 -16.018   2.662  0.00  0.00    +0.005 A 
ATOM     10  C   LIG    1       26.264 -14.695   2.387  0.00  0.00    +0.000 A 
ATOM     11  C   LIG    1       27.269 -14.095   3.127  0.00  0.00    +0.000 A 
ATOM     12  C   LIG    1       27.860 -14.829   4.124  0.00  0.00    +0.000 A 
ATOM     13  C   LIG    1       27.460 -16.150   4.344  0.00  0.00    +0.005 A 
ENDBRANCH   1   8
BRANCH   1  14
ATOM     14  C   LIG    1       24.450 -18.138   4.865  0.00  0.00    +0.191 C 
BRANCH  14  16
ATOM     15  C   LIG    1       22.329 -19.530   5.476  0.00  0.00    +0.007 C 
ATOM     16  C   LIG    1       23.788 -19.203   5.770  0.00  0.00    +0.042 C 
ENDBRANCH  14  16
BRANCH  14  17
ATOM     17  O   LIG    1       23.373 -17.378   4.204  0.00  0.00    -0.460 OA
BRANCH  17  18
ATOM     18  C   LIG    1       23.035 -16.099   4.570  0.00  0.00    +0.304 C 
ATOM     19  O   LIG    1       23.516 -15.085   4.193  0.00  0.00    -0.251 OA
ATOM     20  C   LIG    1       21.913 -16.150   5.592  0.00  0.00    +0.136 C 
ENDBRANCH  17  18
ENDBRANCH  14  17
ENDBRANCH   1  14
BRANCH   1  21
ATOM     21  C   LIG    1       25.602 -19.048   2.595  0.00  0.00    +0.038 C 
BRANCH  21  22
ATOM     22  C   LIG    1       24.343 -19.988   2.234  0.00  0.00    +0.054 C 
ATOM     23  C   LIG    1       22.990 -19.211   2.441  0.00  0.00    +0.024 C 
BRANCH  22  24
ATOM     24  N   LIG    1       24.090 -21.267   2.957  0.00  0.00    -0.306 NA
ATOM     25  C   LIG    1       25.022 -21.571   4.007  0.00  0.00    +0.105 C 
ATOM     26  C   LIG    1       22.735 -21.374   3.497  0.00  0.00    +0.105 C 
ENDBRANCH  22  24
ENDBRANCH  21  22
ENDBRANCH   1  21
TORSDOF 9
ENDMDL
MODEL 8
REMARK VINA RESULT:       6.4      1.975      3.598
REMARK  Name = *****
REMARK                            x       y       z     vdW  Elec       q    Type
REMARK                         _______ _______ _______ _____ _____    ______ ____
ROOT
ATOM      1  C   LIG    1       25.962 -16.037   3.781  0.00  0.00    +0.059 C 
ENDROOT
BRANCH   1   2
ATOM      2  C   LIG    1       26.995 -17.175   4.296  0.00  0.00    -0.033 A 
ATOM      3  C   LIG    1       26.656 -18.548   4.353  0.00  0.00    +0.005 A 
ATOM      4  C   LIG    1       27.488 -19.517   4.940  0.00  0.00    +0.000 A 
ATOM      5  C   LIG    1       28.756 -19.191   5.390  0.00  0.00    +0.000 A 
ATOM      6  C   LIG    1       29.192 -17.900   5.233  0.00  0.00    +0.000 A 
ATOM      7  C   LIG    1       28.320 -16.941   4.709  0.00  0.00    +0.005 A 
ENDBRANCH   1   2
BRANCH   1   8
ATOM      8  C   LIG    1       25.770 -14.763   4.708  0.00  0.00    -0.033 A 
ATOM      9  C   LIG    1       26.805 -14.251   5.515  0.00  0.00    +0.005 A 
ATOM     10  C   LIG    1       26.662 -13.085   6.304  0.00  0.00    +0.000 A 
ATOM     11  C   LIG    1       25.477 -12.367   6.312  0.00  0.00    +0.000 A 
ATOM     12  C   LIG    1       24.438 -12.831   5.547  0.00  0.00    +0.000 A 
ATOM     13  C   LIG    1       24.589 -14.012   4.815  0.00  0.00    +0.005 A 
ENDBRANCH   1   8
BRANCH   1  14
ATOM     14  C   LIG    1       24.520 -16.895   3.747  0.00  0.00    +0.191 C 
BRANCH  14  16
ATOM     15  C   LIG    1       21.995 -16.540   4.303  0.00  0.00    +0.007 C 
ATOM     16  C   LIG    1       23.393 -16.884   4.805  0.00  0.00    +0.042 C 
ENDBRANCH  14  16
BRANCH  14  17
ATOM     17  O   LIG    1       24.581 -18.249   3.169  0.00  0.00    -0.460 OA
BRANCH  17  18
ATOM     18  C   LIG    1       23.739 -19.262   3.558  0.00  0.00    +0.304 C 
ATOM     19  O   LIG    1       22.559 -19.233   3.642  0.00  0.00    -0.251 OA
ATOM     20  C   LIG    1       24.560 -20.491   3.905  0.00  0.00    +0.136 C 
ENDBRANCH  17  18
ENDBRANCH  14  17
ENDBRANCH   1  14
BRANCH   1  21
ATOM     21  C   LIG    1       26.298 -15.510   2.255  0.00  0.00    +0.038 C 
BRANCH  21  22
ATOM     22  C   LIG    1       26.769 -14.033   1.812  0.00  0.00    +0.054 C 
ATOM     23  C   LIG    1       27.931 -13.517   2.739  0.00  0.00    +0.024 C 
BRANCH  22  24
ATOM     24  N   LIG    1       25.824 -12.880   1.813  0.00  0.00    -0.306 NA
ATOM     25  C   LIG    1       24.442 -13.220   2.008  0.00  0.00    +0.105 C 
ATOM     26  C   LIG    1       26.181 -11.834   2.771  0.00  0.00    +0.105 C 
ENDBRANCH  22  24
ENDBRANCH  21  22
ENDBRANCH   1  21
TORSDOF 9
ENDMDL
MODEL 9
REMARK VINA RESULT:       6.5      2.637      5.124
REMARK  Name = *****
REMARK                            x       y       z     vdW  Elec       q    Type
REMARK                         _______ _______ _______ _____ _____    ______ ____
ROOT
ATOM      1  C   LIG    1       25.284 -15.427   4.079  0.00  0.00    +0.059 C 
ENDROOT
BRANCH   1   2
ATOM      2  C   LIG    1       23.959 -16.325   4.335  0.00  0.00    -0.033 A 
ATOM      3  C   LIG    1       22.744 -15.779   4.812  0.00  0.00    +0.005 A 
ATOM      4  C   LIG    1       21.642 -16.570   5.181  0.00  0.00    +0.000 A 
ATOM      5  C   LIG    1       21.646 -17.940   4.978  0.00  0.00    +0.000 A 
ATOM      6  C   LIG    1       22.748 -18.507   4.388  0.00  0.00    +0.000 A 
ATOM      7  C   LIG    1       23.856 -17.708   4.094  0.00  0.00    +0.005 A 
ENDBRANCH   1   2
BRANCH   1   8
ATOM      8  C   LIG    1       25.095 -14.077   3.265  0.00  0.00    -0.033 A 
ATOM      9  C   LIG    1       23.900 -13.332   3.300  0.00  0.00    +0.005 A 
ATOM     10  C   LIG    1       23.739 -12.102   2.621  0.00  0.00    +0.000 A 
ATOM     11  C   LIG    1       24.774 -11.550   1.883  0.00  0.00    +0.000 A 
ATOM     12  C   LIG    1       25.956 -12.243   1.814  0.00  0.00    +0.000 A 
ATOM     13  C   LIG    1       26.073 -13.481   2.453  0.00  0.00    +0.005 A 
ENDBRANCH   1   8
BRANCH   1  14
ATOM     14  C   LIG    1       26.218 -16.477   3.163  0.00  0.00    +0.191 C 
BRANCH  14  16
ATOM     15  C   LIG    1       25.983 -19.071   2.991  0.00  0.00    +0.007 C 
ATOM     16  C   LIG    1       25.740 -17.706   2.356  0.00  0.00    +0.042 C 
ENDBRANCH  14  16
BRANCH  14  17
ATOM     17  O   LIG    1       27.563 -16.780   3.688  0.00  0.00    -0.460 OA
BRANCH  17  18
ATOM     18  C   LIG    1       27.796 -17.777   4.602  0.00  0.00    +0.304 C 
ATOM     19  O   LIG    1       27.056 -18.636   4.944  0.00  0.00    -0.251 OA
ATOM     20  C   LIG    1       29.197 -17.622   5.167  0.00  0.00    +0.136 C 
ENDBRANCH  17  18
ENDBRANCH  14  17
ENDBRANCH   1  14
BRANCH   1  21
ATOM     21  C   LIG    1       26.096 -15.073   5.469  0.00  0.00    +0.038 C 
BRANCH  21  22
ATOM     22  C   LIG    1       26.940 -13.740   5.796  0.00  0.00    +0.054 C 
ATOM     23  C   LIG    1       25.980 -12.548   6.166  0.00  0.00    +0.024 C 
BRANCH  22  24
ATOM     24  N   LIG    1       27.843 -13.120   4.784  0.00  0.00    -0.306 NA
ATOM     25  C   LIG    1       28.687 -12.067   5.278  0.00  0.00    +0.105 C 
ATOM     26  C   LIG    1       28.681 -14.089   4.079  0.00  0.00    +0.105 C 
ENDBRANCH  22  24
ENDBRANCH  21  22
ENDBRANCH   1  21
TORSDOF 9
ENDMDL
