MODEL 1
REMARK VINA RESULT:      -8.8      0.000      0.000
REMARK  Name = *****
REMARK                            x       y       z     vdW  Elec       q    Type
REMARK                         _______ _______ _______ _____ _____    ______ ____
ROOT
ATOM      1  C   LIG    1       27.140 -20.707   6.914  0.00  0.00    +0.014 C 
ATOM      2  C   LIG    1       26.631 -21.932   7.659  0.00  0.00    +0.024 C 
ATOM      3  C   LIG    1       26.805 -20.616   8.378  0.00  0.00    +0.014 C 
ENDROOT
BRANCH   2   4
ATOM      4  C   LIG    1       25.252 -22.471   7.371  0.00  0.00    -0.037 A 
ATOM      5  C   LIG    1       25.026 -23.769   6.915  0.00  0.00    +0.001 A 
ATOM      6  C   LIG    1       26.002 -24.845   6.614  0.00  0.00    +0.080 C 
ATOM      7  C   LIG    1       25.038 -26.018   6.431  0.00  0.00    +0.234 C 
ATOM      8  O   LIG    1       23.719 -25.512   6.132  0.00  0.00    -0.491 OA
ATOM      9  C   LIG    1       23.752 -24.223   6.595  0.00  0.00    +0.124 A 
ATOM     10  C   LIG    1       22.636 -23.423   6.712  0.00  0.00    +0.046 A 
ATOM     11  C   LIG    1       22.819 -22.125   7.180  0.00  0.00    +0.004 A 
ATOM     12  C   LIG    1       24.107 -21.659   7.498  0.00  0.00    +0.004 A 
ENDBRANCH   2   4
BRANCH   1  13
ATOM     13  C   LIG    1       28.556 -20.664   6.430  0.00  0.00    +0.108 C 
BRANCH  13  15
ATOM     14  C   LIG    1       30.109 -18.847   7.060  0.00  0.00    +0.213 C 
ATOM     15  N   LIG    1       29.398 -19.989   7.390  0.00  0.00    -0.315 N 
ATOM     16  H   LIG    1       29.493 -20.381   8.313  0.00  0.00    +0.149 HD
ATOM     17  O   LIG    1       30.060 -18.309   5.968  0.00  0.00    -0.276 OA
BRANCH  14  19
ATOM     18  C   LIG    1       30.116 -17.690   9.301  0.00  0.00    +0.013 C 
ATOM     19  C   LIG    1       30.955 -18.335   8.211  0.00  0.00    +0.092 C 
ENDBRANCH  14  19
ENDBRANCH  13  15
ENDBRANCH   1  13
TORSDOF 4
ENDMDL
MODEL 2
REMARK VINA RESULT:      -8.6      2.712      3.384
REMARK  Name = *****
REMARK                            x       y       z     vdW  Elec       q    Type
REMARK                         _______ _______ _______ _____ _____    ______ ____
ROOT
ATOM      1  C   LIG    1       28.725 -19.848   7.666  0.00  0.00    +0.014 C 
ATOM      2  C   LIG    1       27.960 -20.716   6.679  0.00  0.00    +0.024 C 
ATOM      3  C   LIG    1       28.816 -21.346   7.750  0.00  0.00    +0.014 C 
ENDROOT
BRANCH   2   4
ATOM      4  C   LIG    1       26.455 -20.797   6.755  0.00  0.00    -0.037 A 
ATOM      5  C   LIG    1       25.623 -20.423   5.701  0.00  0.00    +0.001 A 
ATOM      6  C   LIG    1       25.977 -19.887   4.364  0.00  0.00    +0.080 C 
ATOM      7  C   LIG    1       24.609 -19.966   3.687  0.00  0.00    +0.234 C 
ATOM      8  O   LIG    1       23.577 -20.015   4.696  0.00  0.00    -0.491 OA
ATOM      9  C   LIG    1       24.237 -20.446   5.817  0.00  0.00    +0.124 A 
ATOM     10  C   LIG    1       23.603 -20.842   6.974  0.00  0.00    +0.046 A 
ATOM     11  C   LIG    1       24.401 -21.239   8.043  0.00  0.00    +0.004 A 
ATOM     12  C   LIG    1       25.803 -21.210   7.934  0.00  0.00    +0.004 A 
ENDBRANCH   2   4
BRANCH   1  13
ATOM     13  C   LIG    1       29.877 -19.018   7.191  0.00  0.00    +0.108 C 
BRANCH  13  15
ATOM     14  C   LIG    1       31.384 -18.612   9.108  0.00  0.00    +0.213 C 
ATOM     15  N   LIG    1       30.376 -18.185   8.261  0.00  0.00    -0.315 N 
ATOM     16  H   LIG    1       29.954 -17.283   8.410  0.00  0.00    +0.149 HD
ATOM     17  O   LIG    1       31.946 -19.689   9.006  0.00  0.00    -0.276 OA
BRANCH  14  19
ATOM     18  C   LIG    1       30.534 -17.306  11.090  0.00  0.00    +0.013 C 
ATOM     19  C   LIG    1       31.717 -17.590  10.179  0.00  0.00    +0.092 C 
ENDBRANCH  14  19
ENDBRANCH  13  15
ENDBRANCH   1  13
TORSDOF 4
ENDMDL
MODEL 3
REMARK VINA RESULT:      -8.3      1.660      2.650
REMARK  Name = *****
REMARK                            x       y       z     vdW  Elec       q    Type
REMARK                         _______ _______ _______ _____ _____    ______ ____
ROOT
ATOM      1  C   LIG    1       28.161 -21.237   7.339  0.00  0.00    +0.014 C 
ATOM      2  C   LIG    1       26.969 -21.743   8.137  0.00  0.00    +0.024 C 
ATOM      3  C   LIG    1       27.106 -20.275   7.814  0.00  0.00    +0.014 C 
ENDROOT
BRANCH   2   4
ATOM      4  C   LIG    1       25.911 -22.580   7.462  0.00  0.00    -0.037 A 
ATOM      5  C   LIG    1       24.685 -22.063   7.048  0.00  0.00    +0.001 A 
ATOM      6  C   LIG    1       24.155 -20.683   7.170  0.00  0.00    +0.080 C 
ATOM      7  C   LIG    1       22.914 -20.808   6.287  0.00  0.00    +0.234 C 
ATOM      8  O   LIG    1       22.547 -22.199   6.169  0.00  0.00    -0.491 OA
ATOM      9  C   LIG    1       23.700 -22.868   6.487  0.00  0.00    +0.124 A 
ATOM     10  C   LIG    1       23.876 -24.222   6.300  0.00  0.00    +0.046 A 
ATOM     11  C   LIG    1       25.095 -24.773   6.685  0.00  0.00    +0.004 A 
ATOM     12  C   LIG    1       26.091 -23.964   7.261  0.00  0.00    +0.004 A 
ENDBRANCH   2   4
BRANCH   1  13
ATOM     13  C   LIG    1       29.529 -21.261   7.946  0.00  0.00    +0.108 C 
BRANCH  13  15
ATOM     14  C   LIG    1       31.226 -19.661   8.765  0.00  0.00    +0.213 C 
ATOM     15  N   LIG    1       30.039 -19.919   8.099  0.00  0.00    -0.315 N 
ATOM     16  H   LIG    1       29.499 -19.150   7.736  0.00  0.00    +0.149 HD
ATOM     17  O   LIG    1       31.940 -20.526   9.240  0.00  0.00    -0.276 OA
BRANCH  14  19
ATOM     18  C   LIG    1       30.399 -17.374   9.434  0.00  0.00    +0.013 C 
ATOM     19  C   LIG    1       31.542 -18.178   8.837  0.00  0.00    +0.092 C 
ENDBRANCH  14  19
ENDBRANCH  13  15
ENDBRANCH   1  13
TORSDOF 4
ENDMDL
MODEL 4
REMARK VINA RESULT:      -8.1      2.186      2.988
REMARK  Name = *****
REMARK                            x       y       z     vdW  Elec       q    Type
REMARK                         _______ _______ _______ _____ _____    ______ ____
ROOT
ATOM      1  C   LIG    1       28.157 -19.946   7.496  0.00  0.00    +0.014 C 
ATOM      2  C   LIG    1       27.348 -21.072   6.871  0.00  0.00    +0.024 C 
ATOM      3  C   LIG    1       27.304 -20.833   8.360  0.00  0.00    +0.014 C 
ENDROOT
BRANCH   2   4
ATOM      4  C   LIG    1       26.153 -20.753   6.008  0.00  0.00    -0.037 A 
ATOM      5  C   LIG    1       24.883 -21.276   6.247  0.00  0.00    +0.001 A 
ATOM      6  C   LIG    1       24.434 -22.209   7.310  0.00  0.00    +0.080 C 
ATOM      7  C   LIG    1       22.922 -22.119   7.103  0.00  0.00    +0.234 C 
ATOM      8  O   LIG    1       22.647 -21.640   5.769  0.00  0.00    -0.491 OA
ATOM      9  C   LIG    1       23.811 -21.019   5.400  0.00  0.00    +0.124 A 
ATOM     10  C   LIG    1       23.935 -20.227   4.279  0.00  0.00    +0.046 A 
ATOM     11  C   LIG    1       25.183 -19.672   4.015  0.00  0.00    +0.004 A 
ATOM     12  C   LIG    1       26.273 -19.937   4.865  0.00  0.00    +0.004 A 
ENDBRANCH   2   4
BRANCH   1  13
ATOM     13  C   LIG    1       29.652 -20.029   7.523  0.00  0.00    +0.108 C 
BRANCH  13  15
ATOM     14  C   LIG    1       31.364 -19.068   9.024  0.00  0.00    +0.213 C 
ATOM     15  N   LIG    1       30.206 -18.930   8.278  0.00  0.00    -0.315 N 
ATOM     16  H   LIG    1       29.716 -18.050   8.284  0.00  0.00    +0.149 HD
ATOM     17  O   LIG    1       32.017 -20.095   9.081  0.00  0.00    -0.276 OA
BRANCH  14  19
ATOM     18  C   LIG    1       30.514 -16.974  10.144  0.00  0.00    +0.013 C 
ATOM     19  C   LIG    1       31.735 -17.796   9.765  0.00  0.00    +0.092 C 
ENDBRANCH  14  19
ENDBRANCH  13  15
ENDBRANCH   1  13
TORSDOF 4
ENDMDL
MODEL 5
REMARK VINA RESULT:      -8.0      2.807      6.979
REMARK  Name = *****
REMARK                            x       y       z     vdW  Elec       q    Type
REMARK                         _______ _______ _______ _____ _____    ______ ____
ROOT
ATOM      1  C   LIG    1       26.903 -20.431   6.907  0.00  0.00    +0.014 C 
ATOM      2  C   LIG    1       28.320 -20.608   6.385  0.00  0.00    +0.024 C 
ATOM      3  C   LIG    1       27.325 -19.765   5.626  0.00  0.00    +0.014 C 
ENDROOT
BRANCH   2   4
ATOM      4  C   LIG    1       29.476 -19.963   7.109  0.00  0.00    -0.037 A 
ATOM      5  C   LIG    1       30.289 -20.655   8.006  0.00  0.00    +0.001 A 
ATOM      6  C   LIG    1       30.217 -22.070   8.444  0.00  0.00    +0.080 C 
ATOM      7  C   LIG    1       31.544 -22.171   9.197  0.00  0.00    +0.234 C 
ATOM      8  O   LIG    1       31.985 -20.847   9.571  0.00  0.00    -0.491 OA
ATOM      9  C   LIG    1       31.308 -20.023   8.710  0.00  0.00    +0.124 A 
ATOM     10  C   LIG    1       31.582 -18.681   8.561  0.00  0.00    +0.046 A 
ATOM     11  C   LIG    1       30.802 -17.960   7.662  0.00  0.00    +0.004 A 
ATOM     12  C   LIG    1       29.764 -18.593   6.953  0.00  0.00    +0.004 A 
ENDBRANCH   2   4
BRANCH   1  13
ATOM     13  C   LIG    1       25.960 -21.594   6.912  0.00  0.00    +0.108 C 
BRANCH  13  15
ATOM     14  C   LIG    1       23.611 -20.906   6.560  0.00  0.00    +0.213 C 
ATOM     15  N   LIG    1       24.828 -21.331   6.054  0.00  0.00    -0.315 N 
ATOM     16  H   LIG    1       24.922 -21.492   5.064  0.00  0.00    +0.149 HD
ATOM     17  O   LIG    1       23.405 -20.692   7.743  0.00  0.00    -0.276 OA
BRANCH  14  19
ATOM     18  C   LIG    1       22.502 -19.309   4.954  0.00  0.00    +0.013 C 
ATOM     19  C   LIG    1       22.559 -20.733   5.481  0.00  0.00    +0.092 C 
ENDBRANCH  14  19
ENDBRANCH  13  15
ENDBRANCH   1  13
TORSDOF 4
ENDMDL
MODEL 6
REMARK VINA RESULT:      -7.8      3.571      7.750
REMARK  Name = *****
REMARK                            x       y       z     vdW  Elec       q    Type
REMARK                         _______ _______ _______ _____ _____    ______ ____
ROOT
ATOM      1  C   LIG    1       25.130 -26.579   6.581  0.00  0.00    +0.014 C 
ATOM      2  C   LIG    1       25.729 -25.181   6.598  0.00  0.00    +0.024 C 
ATOM      3  C   LIG    1       25.652 -25.965   5.311  0.00  0.00    +0.014 C 
ENDROOT
BRANCH   2   4
ATOM      4  C   LIG    1       24.839 -23.983   6.820  0.00  0.00    -0.037 A 
ATOM      5  C   LIG    1       25.311 -22.771   7.320  0.00  0.00    +0.001 A 
ATOM      6  C   LIG    1       26.684 -22.394   7.736  0.00  0.00    +0.080 C 
ATOM      7  C   LIG    1       26.493 -20.887   7.910  0.00  0.00    +0.234 C 
ATOM      8  O   LIG    1       25.090 -20.600   8.097  0.00  0.00    -0.491 OA
ATOM      9  C   LIG    1       24.461 -21.701   7.577  0.00  0.00    +0.124 A 
ATOM     10  C   LIG    1       23.104 -21.770   7.349  0.00  0.00    +0.046 A 
ATOM     11  C   LIG    1       22.596 -22.959   6.833  0.00  0.00    +0.004 A 
ATOM     12  C   LIG    1       23.452 -24.047   6.580  0.00  0.00    +0.004 A 
ENDBRANCH   2   4
BRANCH   1  13
ATOM     13  C   LIG    1       25.848 -27.705   7.258  0.00  0.00    +0.108 C 
BRANCH  13  15
ATOM     14  C   LIG    1       24.618 -29.829   6.964  0.00  0.00    +0.213 C 
ATOM     15  N   LIG    1       25.609 -28.949   6.563  0.00  0.00    -0.315 N 
ATOM     16  H   LIG    1       26.202 -29.192   5.787  0.00  0.00    +0.149 HD
ATOM     17  O   LIG    1       23.860 -29.621   7.895  0.00  0.00    -0.276 OA
BRANCH  14  19
ATOM     18  C   LIG    1       25.752 -31.168   5.152  0.00  0.00    +0.013 C 
ATOM     19  C   LIG    1       24.577 -31.085   6.114  0.00  0.00    +0.092 C 
ENDBRANCH  14  19
ENDBRANCH  13  15
ENDBRANCH   1  13
TORSDOF 4
ENDMDL
MODEL 7
REMARK VINA RESULT:      -7.7      2.272      6.925
REMARK  Name = *****
REMARK                            x       y       z     vdW  Elec       q    Type
REMARK                         _______ _______ _______ _____ _____    ______ ____
ROOT
ATOM      1  C   LIG    1       26.353 -20.750   7.730  0.00  0.00    +0.014 C 
ATOM      2  C   LIG    1       27.576 -21.221   6.959  0.00  0.00    +0.024 C 
ATOM      3  C   LIG    1       26.386 -20.646   6.230  0.00  0.00    +0.014 C 
ENDROOT
BRANCH   2   4
ATOM      4  C   LIG    1       28.867 -20.446   7.048  0.00  0.00    -0.037 A 
ATOM      5  C   LIG    1       29.900 -20.793   7.918  0.00  0.00    +0.001 A 
ATOM      6  C   LIG    1       29.974 -21.904   8.897  0.00  0.00    +0.080 C 
ATOM      7  C   LIG    1       31.453 -21.814   9.274  0.00  0.00    +0.234 C 
ATOM      8  O   LIG    1       31.949 -20.495   8.955  0.00  0.00    -0.491 OA
ATOM      9  C   LIG    1       31.054 -20.026   8.029  0.00  0.00    +0.124 A 
ATOM     10  C   LIG    1       31.252 -18.884   7.284  0.00  0.00    +0.046 A 
ATOM     11  C   LIG    1       30.251 -18.514   6.392  0.00  0.00    +0.004 A 
ATOM     12  C   LIG    1       29.077 -19.282   6.282  0.00  0.00    +0.004 A 
ENDBRANCH   2   4
BRANCH   1  13
ATOM     13  C   LIG    1       25.481 -21.749   8.427  0.00  0.00    +0.108 C 
BRANCH  13  15
ATOM     14  C   LIG    1       24.093 -23.254   7.043  0.00  0.00    +0.213 C 
ATOM     15  N   LIG    1       25.313 -22.929   7.611  0.00  0.00    -0.315 N 
ATOM     16  H   LIG    1       26.099 -23.545   7.482  0.00  0.00    +0.149 HD
ATOM     17  O   LIG    1       23.089 -22.572   7.153  0.00  0.00    -0.276 OA
BRANCH  14  19
ATOM     18  C   LIG    1       25.567 -25.019   6.006  0.00  0.00    +0.013 C 
ATOM     19  C   LIG    1       24.142 -24.556   6.264  0.00  0.00    +0.092 C 
ENDBRANCH  14  19
ENDBRANCH  13  15
ENDBRANCH   1  13
TORSDOF 4
ENDMDL
MODEL 8
REMARK VINA RESULT:      -7.6      2.581      3.557
REMARK  Name = *****
REMARK                            x       y       z     vdW  Elec       q    Type
REMARK                         _______ _______ _______ _____ _____    ______ ____
ROOT
ATOM      1  C   LIG    1       26.542 -21.400   7.896  0.00  0.00    +0.014 C 
ATOM      2  C   LIG    1       25.795 -22.230   6.863  0.00  0.00    +0.024 C 
ATOM      3  C   LIG    1       25.688 -22.559   8.332  0.00  0.00    +0.014 C 
ENDROOT
BRANCH   2   4
ATOM      4  C   LIG    1       24.623 -21.635   6.123  0.00  0.00    -0.037 A 
ATOM      5  C   LIG    1       24.761 -20.630   5.167  0.00  0.00    +0.001 A 
ATOM      6  C   LIG    1       25.987 -19.945   4.690  0.00  0.00    +0.080 C 
ATOM      7  C   LIG    1       25.408 -19.188   3.496  0.00  0.00    +0.234 C 
ATOM      8  O   LIG    1       23.979 -19.057   3.658  0.00  0.00    -0.491 OA
ATOM      9  C   LIG    1       23.660 -20.052   4.546  0.00  0.00    +0.124 A 
ATOM     10  C   LIG    1       22.368 -20.438   4.830  0.00  0.00    +0.046 A 
ATOM     11  C   LIG    1       22.190 -21.452   5.767  0.00  0.00    +0.004 A 
ATOM     12  C   LIG    1       23.300 -22.034   6.405  0.00  0.00    +0.004 A 
ENDBRANCH   2   4
BRANCH   1  13
ATOM     13  C   LIG    1       28.037 -21.461   7.961  0.00  0.00    +0.108 C 
BRANCH  13  15
ATOM     14  C   LIG    1       29.626 -19.577   7.779  0.00  0.00    +0.213 C 
ATOM     15  N   LIG    1       28.620 -20.357   7.235  0.00  0.00    -0.315 N 
ATOM     16  H   LIG    1       28.260 -20.133   6.322  0.00  0.00    +0.149 HD
ATOM     17  O   LIG    1       30.117 -19.770   8.878  0.00  0.00    -0.276 OA
BRANCH  14  19
ATOM     18  C   LIG    1       29.276 -18.450   5.550  0.00  0.00    +0.013 C 
ATOM     19  C   LIG    1       30.055 -18.452   6.855  0.00  0.00    +0.092 C 
ENDBRANCH  14  19
ENDBRANCH  13  15
ENDBRANCH   1  13
TORSDOF 4
ENDMDL
MODEL 9
REMARK VINA RESULT:      -7.6      3.582      7.233
REMARK  Name = *****
REMARK                            x       y       z     vdW  Elec       q    Type
REMARK                         _______ _______ _______ _____ _____    ______ ____
ROOT
ATOM      1  C   LIG    1       25.464 -26.494   6.639  0.00  0.00    +0.014 C 
ATOM      2  C   LIG    1       25.902 -25.054   6.419  0.00  0.00    +0.024 C 
ATOM      3  C   LIG    1       25.643 -25.964   5.243  0.00  0.00    +0.014 C 
ENDROOT
BRANCH   2   4
ATOM      4  C   LIG    1       24.957 -23.921   6.735  0.00  0.00    -0.037 A 
ATOM      5  C   LIG    1       25.380 -22.714   7.288  0.00  0.00    +0.001 A 
ATOM      6  C   LIG    1       26.744 -22.284   7.682  0.00  0.00    +0.080 C 
ATOM      7  C   LIG    1       26.478 -20.802   7.946  0.00  0.00    +0.234 C 
ATOM      8  O   LIG    1       25.068 -20.604   8.191  0.00  0.00    -0.491 OA
ATOM      9  C   LIG    1       24.482 -21.709   7.630  0.00  0.00    +0.124 A 
ATOM     10  C   LIG    1       23.124 -21.841   7.439  0.00  0.00    +0.046 A 
ATOM     11  C   LIG    1       22.665 -23.026   6.873  0.00  0.00    +0.004 A 
ATOM     12  C   LIG    1       23.568 -24.049   6.533  0.00  0.00    +0.004 A 
ENDBRANCH   2   4
BRANCH   1  13
ATOM     13  C   LIG    1       26.420 -27.482   7.231  0.00  0.00    +0.108 C 
BRANCH  13  15
ATOM     14  C   LIG    1       26.138 -29.041   9.128  0.00  0.00    +0.213 C 
ATOM     15  N   LIG    1       25.704 -28.532   7.916  0.00  0.00    -0.315 N 
ATOM     16  H   LIG    1       24.884 -28.923   7.481  0.00  0.00    +0.149 HD
ATOM     17  O   LIG    1       27.121 -28.634   9.722  0.00  0.00    -0.276 OA
BRANCH  14  19
ATOM     18  C   LIG    1       23.876 -30.148   8.998  0.00  0.00    +0.013 C 
ATOM     19  C   LIG    1       25.254 -30.164   9.639  0.00  0.00    +0.092 C 
ENDBRANCH  14  19
ENDBRANCH  13  15
ENDBRANCH   1  13
TORSDOF 4
ENDMDL
