MODEL 1
REMARK VINA RESULT:      -9.6      0.000      0.000
REMARK  Name = *****
REMARK                            x       y       z     vdW  Elec       q    Type
REMARK                         _______ _______ _______ _____ _____    ______ ____
ROOT
ATOM      1  O   LIG    1       24.723 -24.258   5.505  0.00  0.00    -0.284 OA
ENDROOT
BRANCH   1   2
ATOM      2  P   LIG    1       24.666 -22.748   6.219  0.00  0.00    +0.462 P 
ATOM      3  O   LIG    1       24.548 -23.324   7.648  0.00  0.00    -0.228 OA
BRANCH   2   4
ATOM      4  N   LIG    1       26.330 -22.391   6.432  0.00  0.00    -0.199 NA
ATOM      5  H   LIG    1       26.654 -23.012   7.165  0.00  0.00    +0.135 HD
BRANCH   4   6
ATOM      6  C   LIG    1       26.802 -21.039   6.792  0.00  0.00    +0.171 C 
ATOM      7  C   LIG    1       25.874 -20.408   7.829  0.00  0.00    +0.036 C 
BRANCH   6   8
ATOM      8  C   LIG    1       28.249 -21.155   7.355  0.00  0.00    +0.325 C 
ATOM      9  O   LIG    1       28.526 -21.599   8.470  0.00  0.00    -0.249 OA
BRANCH   8  10
ATOM     10  O   LIG    1       29.166 -20.612   6.503  0.00  0.00    -0.461 OA
BRANCH  10  12
ATOM     11  C   LIG    1       31.172 -19.302   7.084  0.00  0.00    +0.051 C 
ATOM     12  C   LIG    1       29.676 -19.297   6.793  0.00  0.00    +0.170 C 
ATOM     13  C   LIG    1       29.380 -18.431   5.569  0.00  0.00    +0.051 C 
ENDBRANCH  10  12
ENDBRANCH   8  10
ENDBRANCH   6   8
ENDBRANCH   4   6
ENDBRANCH   2   4
BRANCH   2  14
ATOM     14  O   LIG    1       24.795 -22.116   4.650  0.00  0.00    -0.413 OA
BRANCH  14  15
ATOM     15  C   LIG    1       24.108 -20.927   4.470  0.00  0.00    +0.131 A 
ATOM     16  C   LIG    1       24.650 -19.933   3.657  0.00  0.00    +0.046 A 
ATOM     17  C   LIG    1       24.014 -18.685   3.567  0.00  0.00    +0.004 A 
ATOM     18  C   LIG    1       22.833 -18.441   4.272  0.00  0.00    +0.000 A 
ATOM     19  C   LIG    1       22.268 -19.451   5.043  0.00  0.00    +0.004 A 
ATOM     20  C   LIG    1       22.899 -20.690   5.135  0.00  0.00    +0.046 A 
ENDBRANCH  14  15
ENDBRANCH   2  14
ENDBRANCH   1   2
BRANCH   1  21
ATOM     21  C   LIG    1       24.600 -25.439   6.292  0.00  0.00    +0.206 C 
BRANCH  21  22
ATOM     22  C   LIG    1       25.853 -26.313   6.206  0.00  0.00    +0.179 C 
ATOM     23  C   LIG    1       25.821 -27.350   5.089  0.00  0.00    +0.186 C 
ATOM     24  C   LIG    1       25.461 -28.668   5.779  0.00  0.00    +0.182 C 
ATOM     25  C   LIG    1       23.983 -28.978   5.599  0.00  0.00    +0.055 C 
ATOM     26  F   LIG    1       26.163 -29.658   5.142  0.00  0.00    -0.235 F 
ATOM     27  C   LIG    1       26.018 -28.449   7.204  0.00  0.00    +0.263 C 
ATOM     28  O   LIG    1       25.994 -27.023   7.452  0.00  0.00    -0.345 OA
BRANCH  27  29
ATOM     29  N   LIG    1       25.417 -29.164   8.356  0.00  0.00    -0.271 N 
ATOM     30  C   LIG    1       26.093 -29.163   9.570  0.00  0.00    +0.331 C 
ATOM     31  O   LIG    1       27.253 -28.820   9.720  0.00  0.00    -0.246 OA
ATOM     32  N   LIG    1       25.375 -29.616  10.661  0.00  0.00    -0.275 N 
ATOM     33  H   LIG    1       25.874 -29.639  11.538  0.00  0.00    +0.173 HD
ATOM     34  C   LIG    1       24.194 -30.275  10.609  0.00  0.00    +0.254 C 
ATOM     35  O   LIG    1       23.702 -30.865  11.582  0.00  0.00    -0.268 OA
ATOM     36  C   LIG    1       23.516 -30.258   9.314  0.00  0.00    +0.088 C 
ATOM     37  C   LIG    1       24.131 -29.674   8.273  0.00  0.00    +0.098 C 
ENDBRANCH  27  29
BRANCH  23  38
ATOM     38  O   LIG    1       27.139 -27.463   4.521  0.00  0.00    -0.386 OA
ATOM     39  H   LIG    1       27.571 -26.598   4.674  0.00  0.00    +0.210 HD
ENDBRANCH  23  38
ENDBRANCH  21  22
ENDBRANCH   1  21
TORSDOF 12
ENDMDL
MODEL 2
REMARK VINA RESULT:      -9.3      0.716      1.299
REMARK  Name = *****
REMARK                            x       y       z     vdW  Elec       q    Type
REMARK                         _______ _______ _______ _____ _____    ______ ____
ROOT
ATOM      1  O   LIG    1       25.000 -24.113   5.581  0.00  0.00    -0.284 OA
ENDROOT
BRANCH   1   2
ATOM      2  P   LIG    1       24.648 -22.635   6.279  0.00  0.00    +0.462 P 
ATOM      3  O   LIG    1       24.575 -23.219   7.707  0.00  0.00    -0.228 OA
BRANCH   2   4
ATOM      4  N   LIG    1       26.213 -21.989   6.554  0.00  0.00    -0.199 NA
ATOM      5  H   LIG    1       26.670 -22.634   7.189  0.00  0.00    +0.135 HD
BRANCH   4   6
ATOM      6  C   LIG    1       26.417 -20.638   7.113  0.00  0.00    +0.171 C 
ATOM      7  C   LIG    1       26.081 -20.621   8.604  0.00  0.00    +0.036 C 
BRANCH   6   8
ATOM      8  C   LIG    1       27.901 -20.227   6.885  0.00  0.00    +0.325 C 
ATOM      9  O   LIG    1       28.473 -20.270   5.795  0.00  0.00    -0.249 OA
BRANCH   8  10
ATOM     10  O   LIG    1       28.521 -19.910   8.058  0.00  0.00    -0.461 OA
BRANCH  10  12
ATOM     11  C   LIG    1       30.128 -18.236   8.893  0.00  0.00    +0.051 C 
ATOM     12  C   LIG    1       29.886 -19.454   8.009  0.00  0.00    +0.170 C 
ATOM     13  C   LIG    1       30.757 -20.622   8.471  0.00  0.00    +0.051 C 
ENDBRANCH  10  12
ENDBRANCH   8  10
ENDBRANCH   6   8
ENDBRANCH   4   6
ENDBRANCH   2   4
BRANCH   2  14
ATOM     14  O   LIG    1       24.728 -21.993   4.710  0.00  0.00    -0.413 OA
BRANCH  14  15
ATOM     15  C   LIG    1       24.119 -20.757   4.582  0.00  0.00    +0.131 A 
ATOM     16  C   LIG    1       22.914 -20.509   5.239  0.00  0.00    +0.046 A 
ATOM     17  C   LIG    1       22.237 -19.300   5.016  0.00  0.00    +0.004 A 
ATOM     18  C   LIG    1       22.771 -18.338   4.157  0.00  0.00    +0.000 A 
ATOM     19  C   LIG    1       23.997 -18.567   3.542  0.00  0.00    +0.004 A 
ATOM     20  C   LIG    1       24.671 -19.767   3.760  0.00  0.00    +0.046 A 
ENDBRANCH  14  15
ENDBRANCH   2  14
ENDBRANCH   1   2
BRANCH   1  21
ATOM     21  C   LIG    1       24.798 -25.323   6.304  0.00  0.00    +0.206 C 
BRANCH  21  22
ATOM     22  C   LIG    1       26.008 -26.255   6.204  0.00  0.00    +0.179 C 
ATOM     23  C   LIG    1       25.927 -27.272   5.073  0.00  0.00    +0.186 C 
ATOM     24  C   LIG    1       25.505 -28.581   5.744  0.00  0.00    +0.182 C 
ATOM     25  C   LIG    1       24.014 -28.819   5.561  0.00  0.00    +0.055 C 
ATOM     26  F   LIG    1       26.158 -29.594   5.091  0.00  0.00    -0.235 F 
ATOM     27  C   LIG    1       26.072 -28.410   7.171  0.00  0.00    +0.263 C 
ATOM     28  O   LIG    1       26.116 -26.989   7.440  0.00  0.00    -0.345 OA
BRANCH  27  29
ATOM     29  N   LIG    1       25.439 -29.113   8.313  0.00  0.00    -0.271 N 
ATOM     30  C   LIG    1       26.084 -29.107   9.544  0.00  0.00    +0.331 C 
ATOM     31  O   LIG    1       27.243 -28.770   9.719  0.00  0.00    -0.246 OA
ATOM     32  N   LIG    1       25.338 -29.547  10.620  0.00  0.00    -0.275 N 
ATOM     33  H   LIG    1       25.815 -29.567  11.509  0.00  0.00    +0.173 HD
ATOM     34  C   LIG    1       24.153 -30.198  10.544  0.00  0.00    +0.254 C 
ATOM     35  O   LIG    1       23.634 -30.778  11.508  0.00  0.00    -0.268 OA
ATOM     36  C   LIG    1       23.508 -30.187   9.233  0.00  0.00    +0.088 C 
ATOM     37  C   LIG    1       24.151 -29.615   8.203  0.00  0.00    +0.098 C 
ENDBRANCH  27  29
BRANCH  23  38
ATOM     38  O   LIG    1       27.237 -27.439   4.501  0.00  0.00    -0.386 OA
ATOM     39  H   LIG    1       27.772 -27.891   5.185  0.00  0.00    +0.210 HD
ENDBRANCH  23  38
ENDBRANCH  21  22
ENDBRANCH   1  21
TORSDOF 12
ENDMDL
MODEL 3
REMARK VINA RESULT:      -9.0      4.273      9.565
REMARK  Name = *****
REMARK                            x       y       z     vdW  Elec       q    Type
REMARK                         _______ _______ _______ _____ _____    ______ ____
ROOT
ATOM      1  O   LIG    1       27.682 -21.361   8.189  0.00  0.00    -0.284 OA
ENDROOT
BRANCH   1   2
ATOM      2  P   LIG    1       26.166 -21.727   7.586  0.00  0.00    +0.462 P 
ATOM      3  O   LIG    1       25.612 -20.311   7.858  0.00  0.00    -0.228 OA
BRANCH   2   4
ATOM      4  N   LIG    1       26.359 -21.400   5.913  0.00  0.00    -0.199 NA
ATOM      5  H   LIG    1       27.355 -21.276   5.770  0.00  0.00    +0.135 HD
BRANCH   4   6
ATOM      6  C   LIG    1       25.696 -20.255   5.257  0.00  0.00    +0.171 C 
ATOM      7  C   LIG    1       26.713 -19.428   4.471  0.00  0.00    +0.036 C 
BRANCH   6   8
ATOM      8  C   LIG    1       24.590 -20.803   4.308  0.00  0.00    +0.325 C 
ATOM      9  O   LIG    1       24.526 -21.968   3.917  0.00  0.00    -0.249 OA
BRANCH   8  10
ATOM     10  O   LIG    1       23.757 -19.810   3.882  0.00  0.00    -0.461 OA
BRANCH  10  12
ATOM     11  C   LIG    1       22.607 -20.075   6.046  0.00  0.00    +0.051 C 
ATOM     12  C   LIG    1       22.533 -19.585   4.606  0.00  0.00    +0.170 C 
ATOM     13  C   LIG    1       22.274 -18.079   4.574  0.00  0.00    +0.051 C 
ENDBRANCH  10  12
ENDBRANCH   8  10
ENDBRANCH   6   8
ENDBRANCH   4   6
ENDBRANCH   2   4
BRANCH   2  14
ATOM     14  O   LIG    1       26.775 -23.283   7.288  0.00  0.00    -0.413 OA
BRANCH  14  15
ATOM     15  C   LIG    1       25.841 -24.153   6.752  0.00  0.00    +0.131 A 
ATOM     16  C   LIG    1       24.482 -23.858   6.857  0.00  0.00    +0.046 A 
ATOM     17  C   LIG    1       23.533 -24.795   6.420  0.00  0.00    +0.004 A 
ATOM     18  C   LIG    1       23.941 -26.009   5.865  0.00  0.00    +0.000 A 
ATOM     19  C   LIG    1       25.297 -26.280   5.716  0.00  0.00    +0.004 A 
ATOM     20  C   LIG    1       26.241 -25.352   6.151  0.00  0.00    +0.046 A 
ENDBRANCH  14  15
ENDBRANCH   2  14
ENDBRANCH   1   2
BRANCH   1  21
ATOM     21  C   LIG    1       27.949 -20.080   8.751  0.00  0.00    +0.206 C 
BRANCH  21  22
ATOM     22  C   LIG    1       28.766 -19.201   7.802  0.00  0.00    +0.179 C 
ATOM     23  C   LIG    1       29.960 -19.902   7.165  0.00  0.00    +0.186 C 
ATOM     24  C   LIG    1       31.174 -19.432   7.970  0.00  0.00    +0.182 C 
ATOM     25  C   LIG    1       31.578 -20.484   8.991  0.00  0.00    +0.055 C 
ATOM     26  F   LIG    1       32.215 -19.305   7.087  0.00  0.00    -0.235 F 
ATOM     27  C   LIG    1       30.716 -18.040   8.461  0.00  0.00    +0.263 C 
ATOM     28  O   LIG    1       29.272 -18.078   8.551  0.00  0.00    -0.345 OA
BRANCH  27  29
ATOM     29  N   LIG    1       31.277 -17.470   9.710  0.00  0.00    -0.271 N 
ATOM     30  C   LIG    1       32.183 -16.421   9.618  0.00  0.00    +0.331 C 
ATOM     31  O   LIG    1       32.741 -16.071   8.592  0.00  0.00    -0.246 OA
ATOM     32  N   LIG    1       32.471 -15.766  10.801  0.00  0.00    -0.275 N 
ATOM     33  H   LIG    1       33.149 -15.021  10.739  0.00  0.00    +0.173 HD
ATOM     34  C   LIG    1       32.150 -16.202  12.042  0.00  0.00    +0.254 C 
ATOM     35  O   LIG    1       32.624 -15.713  13.077  0.00  0.00    -0.268 OA
ATOM     36  C   LIG    1       31.198 -17.310  12.097  0.00  0.00    +0.088 C 
ATOM     37  C   LIG    1       30.778 -17.856  10.945  0.00  0.00    +0.098 C 
ENDBRANCH  27  29
BRANCH  23  38
ATOM     38  O   LIG    1       30.095 -19.451   5.805  0.00  0.00    -0.386 OA
ATOM     39  H   LIG    1       30.063 -20.257   5.251  0.00  0.00    +0.210 HD
ENDBRANCH  23  38
ENDBRANCH  21  22
ENDBRANCH   1  21
TORSDOF 12
ENDMDL
MODEL 4
REMARK VINA RESULT:      -8.9      4.165      9.293
REMARK  Name = *****
REMARK                            x       y       z     vdW  Elec       q    Type
REMARK                         _______ _______ _______ _____ _____    ______ ____
ROOT
ATOM      1  O   LIG    1       27.516 -21.815   8.064  0.00  0.00    -0.284 OA
ENDROOT
BRANCH   1   2
ATOM      2  P   LIG    1       25.900 -22.232   7.971  0.00  0.00    +0.462 P 
ATOM      3  O   LIG    1       25.523 -21.433   9.238  0.00  0.00    -0.228 OA
BRANCH   2   4
ATOM      4  N   LIG    1       25.276 -21.013   6.938  0.00  0.00    -0.199 NA
ATOM      5  H   LIG    1       25.081 -20.218   7.536  0.00  0.00    +0.135 HD
BRANCH   4   6
ATOM      6  C   LIG    1       24.065 -21.224   6.118  0.00  0.00    +0.171 C 
ATOM      7  C   LIG    1       22.966 -20.245   6.526  0.00  0.00    +0.036 C 
BRANCH   6   8
ATOM      8  C   LIG    1       24.443 -21.024   4.621  0.00  0.00    +0.325 C 
ATOM      9  O   LIG    1       24.192 -21.833   3.727  0.00  0.00    -0.249 OA
BRANCH   8  10
ATOM     10  O   LIG    1       25.177 -19.888   4.435  0.00  0.00    -0.461 OA
BRANCH  10  12
ATOM     11  C   LIG    1       23.378 -18.362   3.720  0.00  0.00    +0.051 C 
ATOM     12  C   LIG    1       24.750 -18.955   3.425  0.00  0.00    +0.170 C 
ATOM     13  C   LIG    1       25.803 -17.849   3.375  0.00  0.00    +0.051 C 
ENDBRANCH  10  12
ENDBRANCH   8  10
ENDBRANCH   6   8
ENDBRANCH   4   6
ENDBRANCH   2   4
BRANCH   2  14
ATOM     14  O   LIG    1       26.314 -23.110   6.579  0.00  0.00    -0.413 OA
BRANCH  14  15
ATOM     15  C   LIG    1       25.688 -24.341   6.490  0.00  0.00    +0.131 A 
ATOM     16  C   LIG    1       26.455 -25.505   6.447  0.00  0.00    +0.046 A 
ATOM     17  C   LIG    1       25.828 -26.743   6.239  0.00  0.00    +0.004 A 
ATOM     18  C   LIG    1       24.441 -26.818   6.092  0.00  0.00    +0.000 A 
ATOM     19  C   LIG    1       23.674 -25.662   6.185  0.00  0.00    +0.004 A 
ATOM     20  C   LIG    1       24.294 -24.431   6.390  0.00  0.00    +0.046 A 
ENDBRANCH  14  15
ENDBRANCH   2  14
ENDBRANCH   1   2
BRANCH   1  21
ATOM     21  C   LIG    1       27.920 -20.624   8.733  0.00  0.00    +0.206 C 
BRANCH  21  22
ATOM     22  C   LIG    1       28.565 -19.622   7.773  0.00  0.00    +0.179 C 
ATOM     23  C   LIG    1       29.765 -20.167   7.006  0.00  0.00    +0.186 C 
ATOM     24  C   LIG    1       30.989 -19.613   7.738  0.00  0.00    +0.182 C 
ATOM     25  C   LIG    1       31.579 -20.665   8.665  0.00  0.00    +0.055 C 
ATOM     26  F   LIG    1       31.935 -19.339   6.785  0.00  0.00    -0.235 F 
ATOM     27  C   LIG    1       30.439 -18.300   8.340  0.00  0.00    +0.263 C 
ATOM     28  O   LIG    1       29.019 -18.490   8.540  0.00  0.00    -0.345 OA
BRANCH  27  29
ATOM     29  N   LIG    1       31.044 -17.735   9.571  0.00  0.00    -0.271 N 
ATOM     30  C   LIG    1       32.034 -16.767   9.447  0.00  0.00    +0.331 C 
ATOM     31  O   LIG    1       32.619 -16.501   8.412  0.00  0.00    -0.246 OA
ATOM     32  N   LIG    1       32.373 -16.098  10.607  0.00  0.00    -0.275 N 
ATOM     33  H   LIG    1       33.110 -15.414  10.522  0.00  0.00    +0.173 HD
ATOM     34  C   LIG    1       32.016 -16.463  11.861  0.00  0.00    +0.254 C 
ATOM     35  O   LIG    1       32.527 -15.978  12.881  0.00  0.00    -0.268 OA
ATOM     36  C   LIG    1       30.976 -17.486  11.950  0.00  0.00    +0.088 C 
ATOM     37  C   LIG    1       30.514 -18.035  10.816  0.00  0.00    +0.098 C 
ENDBRANCH  27  29
BRANCH  23  38
ATOM     38  O   LIG    1       29.741 -19.640   5.667  0.00  0.00    -0.386 OA
ATOM     39  H   LIG    1       29.772 -20.418   5.074  0.00  0.00    +0.210 HD
ENDBRANCH  23  38
ENDBRANCH  21  22
ENDBRANCH   1  21
TORSDOF 12
ENDMDL
MODEL 5
REMARK VINA RESULT:      -8.9      3.757      8.967
REMARK  Name = *****
REMARK                            x       y       z     vdW  Elec       q    Type
REMARK                         _______ _______ _______ _____ _____    ______ ____
ROOT
ATOM      1  O   LIG    1       26.397 -21.305   8.563  0.00  0.00    -0.284 OA
ENDROOT
BRANCH   1   2
ATOM      2  P   LIG    1       25.832 -22.011   7.156  0.00  0.00    +0.462 P 
ATOM      3  O   LIG    1       26.986 -23.035   7.094  0.00  0.00    -0.228 OA
BRANCH   2   4
ATOM      4  N   LIG    1       24.737 -23.184   7.762  0.00  0.00    -0.199 NA
ATOM      5  H   LIG    1       25.284 -23.785   8.369  0.00  0.00    +0.135 HD
BRANCH   4   6
ATOM      6  C   LIG    1       23.973 -24.079   6.868  0.00  0.00    +0.171 C 
ATOM      7  C   LIG    1       22.597 -23.486   6.568  0.00  0.00    +0.036 C 
BRANCH   6   8
ATOM      8  C   LIG    1       24.783 -24.269   5.552  0.00  0.00    +0.325 C 
ATOM      9  O   LIG    1       24.705 -23.524   4.575  0.00  0.00    -0.249 OA
BRANCH   8  10
ATOM     10  O   LIG    1       25.515 -25.420   5.575  0.00  0.00    -0.461 OA
BRANCH  10  12
ATOM     11  C   LIG    1       24.490 -27.656   5.406  0.00  0.00    +0.051 C 
ATOM     12  C   LIG    1       25.002 -26.544   6.314  0.00  0.00    +0.170 C 
ATOM     13  C   LIG    1       26.149 -27.059   7.183  0.00  0.00    +0.051 C 
ENDBRANCH  10  12
ENDBRANCH   8  10
ENDBRANCH   6   8
ENDBRANCH   4   6
ENDBRANCH   2   4
BRANCH   2  14
ATOM     14  O   LIG    1       24.564 -20.885   7.225  0.00  0.00    -0.413 OA
BRANCH  14  15
ATOM     15  C   LIG    1       24.219 -20.359   5.992  0.00  0.00    +0.131 A 
ATOM     16  C   LIG    1       25.192 -20.220   5.003  0.00  0.00    +0.046 A 
ATOM     17  C   LIG    1       24.871 -19.580   3.797  0.00  0.00    +0.004 A 
ATOM     18  C   LIG    1       23.579 -19.098   3.574  0.00  0.00    +0.000 A 
ATOM     19  C   LIG    1       22.598 -19.281   4.542  0.00  0.00    +0.004 A 
ATOM     20  C   LIG    1       22.915 -19.915   5.741  0.00  0.00    +0.046 A 
ENDBRANCH  14  15
ENDBRANCH   2  14
ENDBRANCH   1   2
BRANCH   1  21
ATOM     21  C   LIG    1       27.785 -21.036   8.732  0.00  0.00    +0.206 C 
BRANCH  21  22
ATOM     22  C   LIG    1       28.276 -19.952   7.769  0.00  0.00    +0.179 C 
ATOM     23  C   LIG    1       29.421 -20.387   6.862  0.00  0.00    +0.186 C 
ATOM     24  C   LIG    1       30.681 -19.797   7.501  0.00  0.00    +0.182 C 
ATOM     25  C   LIG    1       31.415 -20.857   8.308  0.00  0.00    +0.055 C 
ATOM     26  F   LIG    1       31.511 -19.422   6.476  0.00  0.00    -0.235 F 
ATOM     27  C   LIG    1       30.123 -18.550   8.223  0.00  0.00    +0.263 C 
ATOM     28  O   LIG    1       28.742 -18.833   8.549  0.00  0.00    -0.345 OA
BRANCH  27  29
ATOM     29  N   LIG    1       30.816 -18.010   9.418  0.00  0.00    -0.271 N 
ATOM     30  C   LIG    1       31.962 -17.246   9.239  0.00  0.00    +0.331 C 
ATOM     31  O   LIG    1       32.588 -17.166   8.196  0.00  0.00    -0.246 OA
ATOM     32  N   LIG    1       32.413 -16.562  10.352  0.00  0.00    -0.275 N 
ATOM     33  H   LIG    1       33.261 -16.028  10.228  0.00  0.00    +0.173 HD
ATOM     34  C   LIG    1       31.994 -16.763  11.623  0.00  0.00    +0.254 C 
ATOM     35  O   LIG    1       32.581 -16.302  12.612  0.00  0.00    -0.268 OA
ATOM     36  C   LIG    1       30.789 -17.576  11.772  0.00  0.00    +0.088 C 
ATOM     37  C   LIG    1       30.238 -18.118  10.674  0.00  0.00    +0.098 C 
ENDBRANCH  27  29
BRANCH  23  38
ATOM     38  O   LIG    1       29.235 -19.798   5.562  0.00  0.00    -0.386 OA
ATOM     39  H   LIG    1       29.907 -20.211   4.983  0.00  0.00    +0.210 HD
ENDBRANCH  23  38
ENDBRANCH  21  22
ENDBRANCH   1  21
TORSDOF 12
ENDMDL
MODEL 6
REMARK VINA RESULT:      -8.3      2.049      3.034
REMARK  Name = *****
REMARK                            x       y       z     vdW  Elec       q    Type
REMARK                         _______ _______ _______ _____ _____    ______ ____
ROOT
ATOM      1  O   LIG    1       25.475 -22.117   7.567  0.00  0.00    -0.284 OA
ENDROOT
BRANCH   1   2
ATOM      2  P   LIG    1       26.439 -20.765   7.371  0.00  0.00    +0.462 P 
ATOM      3  O   LIG    1       26.692 -20.609   8.887  0.00  0.00    -0.228 OA
BRANCH   2   4
ATOM      4  N   LIG    1       27.986 -21.464   7.120  0.00  0.00    -0.199 NA
ATOM      5  H   LIG    1       28.163 -22.041   7.935  0.00  0.00    +0.135 HD
BRANCH   4   6
ATOM      6  C   LIG    1       29.195 -20.640   6.920  0.00  0.00    +0.171 C 
ATOM      7  C   LIG    1       28.823 -19.278   6.337  0.00  0.00    +0.036 C 
BRANCH   6   8
ATOM      8  C   LIG    1       29.906 -20.468   8.294  0.00  0.00    +0.325 C 
ATOM      9  O   LIG    1       30.487 -21.373   8.894  0.00  0.00    -0.249 OA
BRANCH   8  10
ATOM     10  O   LIG    1       29.723 -19.214   8.801  0.00  0.00    -0.461 OA
BRANCH  10  12
ATOM     11  C   LIG    1       31.919 -18.165   8.409  0.00  0.00    +0.051 C 
ATOM     12  C   LIG    1       30.844 -18.553   9.417  0.00  0.00    +0.170 C 
ATOM     13  C   LIG    1       30.295 -17.306  10.108  0.00  0.00    +0.051 C 
ENDBRANCH  10  12
ENDBRANCH   8  10
ENDBRANCH   6   8
ENDBRANCH   4   6
ENDBRANCH   2   4
BRANCH   2  14
ATOM     14  O   LIG    1       26.162 -20.937   5.706  0.00  0.00    -0.413 OA
BRANCH  14  15
ATOM     15  C   LIG    1       25.035 -20.270   5.257  0.00  0.00    +0.131 A 
ATOM     16  C   LIG    1       23.829 -20.411   5.944  0.00  0.00    +0.046 A 
ATOM     17  C   LIG    1       22.662 -19.831   5.424  0.00  0.00    +0.004 A 
ATOM     18  C   LIG    1       22.704 -19.100   4.236  0.00  0.00    +0.000 A 
ATOM     19  C   LIG    1       23.916 -18.918   3.579  0.00  0.00    +0.004 A 
ATOM     20  C   LIG    1       25.076 -19.494   4.092  0.00  0.00    +0.046 A 
ENDBRANCH  14  15
ENDBRANCH   2  14
ENDBRANCH   1   2
BRANCH   1  21
ATOM     21  C   LIG    1       26.055 -23.414   7.663  0.00  0.00    +0.206 C 
BRANCH  21  22
ATOM     22  C   LIG    1       26.132 -24.106   6.300  0.00  0.00    +0.179 C 
ATOM     23  C   LIG    1       24.814 -24.143   5.536  0.00  0.00    +0.186 C 
ATOM     24  C   LIG    1       24.269 -25.556   5.752  0.00  0.00    +0.182 C 
ATOM     25  C   LIG    1       23.207 -25.559   6.840  0.00  0.00    +0.055 C 
ATOM     26  F   LIG    1       23.654 -25.930   4.585  0.00  0.00    -0.235 F 
ATOM     27  C   LIG    1       25.564 -26.374   5.959  0.00  0.00    +0.263 C 
ATOM     28  O   LIG    1       26.551 -25.469   6.510  0.00  0.00    -0.345 OA
BRANCH  27  29
ATOM     29  N   LIG    1       25.536 -27.623   6.758  0.00  0.00    -0.271 N 
ATOM     30  C   LIG    1       25.116 -28.798   6.146  0.00  0.00    +0.331 C 
ATOM     31  O   LIG    1       24.547 -28.856   5.070  0.00  0.00    -0.246 OA
ATOM     32  N   LIG    1       25.353 -29.963   6.850  0.00  0.00    -0.275 N 
ATOM     33  H   LIG    1       25.024 -30.814   6.417  0.00  0.00    +0.173 HD
ATOM     34  C   LIG    1       25.718 -30.038   8.151  0.00  0.00    +0.254 C 
ATOM     35  O   LIG    1       25.693 -31.091   8.804  0.00  0.00    -0.268 OA
ATOM     36  C   LIG    1       26.148 -28.781   8.761  0.00  0.00    +0.088 C 
ATOM     37  C   LIG    1       26.079 -27.655   8.032  0.00  0.00    +0.098 C 
ENDBRANCH  27  29
BRANCH  23  38
ATOM     38  O   LIG    1       25.082 -23.951   4.135  0.00  0.00    -0.386 OA
ATOM     39  H   LIG    1       24.501 -24.582   3.664  0.00  0.00    +0.210 HD
ENDBRANCH  23  38
ENDBRANCH  21  22
ENDBRANCH   1  21
TORSDOF 12
ENDMDL
MODEL 7
REMARK VINA RESULT:      -7.9      2.858      9.663
REMARK  Name = *****
REMARK                            x       y       z     vdW  Elec       q    Type
REMARK                         _______ _______ _______ _____ _____    ______ ____
ROOT
ATOM      1  O   LIG    1       26.140 -27.057   5.784  0.00  0.00    -0.284 OA
ENDROOT
BRANCH   1   2
ATOM      2  P   LIG    1       25.094 -28.109   6.555  0.00  0.00    +0.462 P 
ATOM      3  O   LIG    1       24.136 -28.192   5.346  0.00  0.00    -0.228 OA
BRANCH   2   4
ATOM      4  N   LIG    1       25.790 -29.634   6.190  0.00  0.00    -0.199 NA
ATOM      5  H   LIG    1       26.633 -29.434   5.664  0.00  0.00    +0.135 HD
BRANCH   4   6
ATOM      6  C   LIG    1       25.059 -30.667   5.428  0.00  0.00    +0.171 C 
ATOM      7  C   LIG    1       26.016 -31.442   4.524  0.00  0.00    +0.036 C 
BRANCH   6   8
ATOM      8  C   LIG    1       24.367 -31.628   6.439  0.00  0.00    +0.325 C 
ATOM      9  O   LIG    1       23.259 -31.432   6.937  0.00  0.00    -0.249 OA
BRANCH   8  10
ATOM     10  O   LIG    1       25.183 -32.666   6.784  0.00  0.00    -0.461 OA
BRANCH  10  12
ATOM     11  C   LIG    1       25.205 -33.692   9.026  0.00  0.00    +0.051 C 
ATOM     12  C   LIG    1       25.799 -32.650   8.086  0.00  0.00    +0.170 C 
ATOM     13  C   LIG    1       27.288 -32.920   7.871  0.00  0.00    +0.051 C 
ENDBRANCH  10  12
ENDBRANCH   8  10
ENDBRANCH   6   8
ENDBRANCH   4   6
ENDBRANCH   2   4
BRANCH   2  14
ATOM     14  O   LIG    1       26.146 -28.018   7.883  0.00  0.00    -0.413 OA
BRANCH  14  15
ATOM     15  C   LIG    1       25.845 -28.913   8.895  0.00  0.00    +0.131 A 
ATOM     16  C   LIG    1       24.518 -29.272   9.127  0.00  0.00    +0.046 A 
ATOM     17  C   LIG    1       24.200 -30.086  10.225  0.00  0.00    +0.004 A 
ATOM     18  C   LIG    1       25.206 -30.552  11.074  0.00  0.00    +0.000 A 
ATOM     19  C   LIG    1       26.534 -30.234  10.812  0.00  0.00    +0.004 A 
ATOM     20  C   LIG    1       26.851 -29.425   9.723  0.00  0.00    +0.046 A 
ENDBRANCH  14  15
ENDBRANCH   2  14
ENDBRANCH   1   2
BRANCH   1  21
ATOM     21  C   LIG    1       25.727 -25.734   5.456  0.00  0.00    +0.206 C 
BRANCH  21  22
ATOM     22  C   LIG    1       24.871 -25.113   6.563  0.00  0.00    +0.179 C 
ATOM     23  C   LIG    1       23.700 -24.277   6.060  0.00  0.00    +0.186 C 
ATOM     24  C   LIG    1       24.166 -22.825   6.186  0.00  0.00    +0.182 C 
ATOM     25  C   LIG    1       24.636 -22.297   4.838  0.00  0.00    +0.055 C 
ATOM     26  F   LIG    1       23.072 -22.084   6.551  0.00  0.00    -0.235 F 
ATOM     27  C   LIG    1       25.172 -22.908   7.356  0.00  0.00    +0.263 C 
ATOM     28  O   LIG    1       25.712 -24.250   7.353  0.00  0.00    -0.345 OA
BRANCH  27  29
ATOM     29  N   LIG    1       26.279 -21.926   7.457  0.00  0.00    -0.271 N 
ATOM     30  C   LIG    1       26.072 -20.758   8.180  0.00  0.00    +0.331 C 
ATOM     31  O   LIG    1       24.984 -20.353   8.551  0.00  0.00    -0.246 OA
ATOM     32  N   LIG    1       27.202 -20.011   8.456  0.00  0.00    -0.275 N 
ATOM     33  H   LIG    1       27.048 -19.149   8.959  0.00  0.00    +0.173 HD
ATOM     34  C   LIG    1       28.419 -20.182   7.888  0.00  0.00    +0.254 C 
ATOM     35  O   LIG    1       29.336 -19.355   7.985  0.00  0.00    -0.268 OA
ATOM     36  C   LIG    1       28.596 -21.421   7.132  0.00  0.00    +0.088 C 
ATOM     37  C   LIG    1       27.545 -22.244   6.990  0.00  0.00    +0.098 C 
ENDBRANCH  27  29
BRANCH  23  38
ATOM     38  O   LIG    1       22.572 -24.485   6.928  0.00  0.00    -0.386 OA
ATOM     39  H   LIG    1       22.323 -23.599   7.260  0.00  0.00    +0.210 HD
ENDBRANCH  23  38
ENDBRANCH  21  22
ENDBRANCH   1  21
TORSDOF 12
ENDMDL
MODEL 8
REMARK VINA RESULT:      -7.1      5.770      8.864
REMARK  Name = *****
REMARK                            x       y       z     vdW  Elec       q    Type
REMARK                         _______ _______ _______ _____ _____    ______ ____
ROOT
ATOM      1  O   LIG    1       23.137 -29.487  11.493  0.00  0.00    -0.284 OA
ENDROOT
BRANCH   1   2
ATOM      2  P   LIG    1       22.391 -29.497  12.989  0.00  0.00    +0.462 P 
ATOM      3  O   LIG    1       23.140 -30.763  13.460  0.00  0.00    -0.228 OA
BRANCH   2   4
ATOM      4  N   LIG    1       23.417 -28.472  13.906  0.00  0.00    -0.199 NA
ATOM      5  H   LIG    1       22.806 -27.956  14.529  0.00  0.00    +0.135 HD
BRANCH   4   6
ATOM      6  C   LIG    1       24.301 -27.475  13.268  0.00  0.00    +0.171 C 
ATOM      7  C   LIG    1       23.933 -26.065  13.726  0.00  0.00    +0.036 C 
BRANCH   6   8
ATOM      8  C   LIG    1       25.773 -27.804  13.652  0.00  0.00    +0.325 C 
ATOM      9  O   LIG    1       26.409 -27.219  14.529  0.00  0.00    -0.249 OA
BRANCH   8  10
ATOM     10  O   LIG    1       26.307 -28.755  12.831  0.00  0.00    -0.461 OA
BRANCH  10  12
ATOM     11  C   LIG    1       28.488 -29.426  11.898  0.00  0.00    +0.051 C 
ATOM     12  C   LIG    1       27.386 -28.376  11.956  0.00  0.00    +0.170 C 
ATOM     13  C   LIG    1       26.777 -28.173  10.569  0.00  0.00    +0.051 C 
ENDBRANCH  10  12
ENDBRANCH   8  10
ENDBRANCH   6   8
ENDBRANCH   4   6
ENDBRANCH   2   4
BRANCH   2  14
ATOM     14  O   LIG    1       21.569 -28.106  12.472  0.00  0.00    -0.413 OA
BRANCH  14  15
ATOM     15  C   LIG    1       20.454 -27.802  13.234  0.00  0.00    +0.131 A 
ATOM     16  C   LIG    1       19.801 -28.814  13.937  0.00  0.00    +0.046 A 
ATOM     17  C   LIG    1       18.605 -28.529  14.614  0.00  0.00    +0.004 A 
ATOM     18  C   LIG    1       18.076 -27.237  14.603  0.00  0.00    +0.000 A 
ATOM     19  C   LIG    1       18.756 -26.219  13.942  0.00  0.00    +0.004 A 
ATOM     20  C   LIG    1       19.942 -26.499  13.268  0.00  0.00    +0.046 A 
ENDBRANCH  14  15
ENDBRANCH   2  14
ENDBRANCH   1   2
BRANCH   1  21
ATOM     21  C   LIG    1       24.003 -30.550  11.108  0.00  0.00    +0.206 C 
BRANCH  21  22
ATOM     22  C   LIG    1       23.492 -31.277   9.862  0.00  0.00    +0.179 C 
ATOM     23  C   LIG    1       24.327 -32.483   9.449  0.00  0.00    +0.186 C 
ATOM     24  C   LIG    1       25.195 -31.988   8.289  0.00  0.00    +0.182 C 
ATOM     25  C   LIG    1       26.597 -31.656   8.776  0.00  0.00    +0.055 C 
ATOM     26  F   LIG    1       25.310 -33.029   7.404  0.00  0.00    -0.235 F 
ATOM     27  C   LIG    1       24.319 -30.867   7.686  0.00  0.00    +0.263 C 
ATOM     28  O   LIG    1       23.501 -30.347   8.761  0.00  0.00    -0.345 OA
BRANCH  27  29
ATOM     29  N   LIG    1       24.950 -29.743   6.953  0.00  0.00    -0.271 N 
ATOM     30  C   LIG    1       25.317 -29.932   5.627  0.00  0.00    +0.331 C 
ATOM     31  O   LIG    1       25.380 -31.015   5.071  0.00  0.00    -0.246 OA
ATOM     32  N   LIG    1       25.657 -28.791   4.925  0.00  0.00    -0.275 N 
ATOM     33  H   LIG    1       25.949 -28.932   3.969  0.00  0.00    +0.173 HD
ATOM     34  C   LIG    1       25.897 -27.574   5.468  0.00  0.00    +0.254 C 
ATOM     35  O   LIG    1       26.421 -26.643   4.841  0.00  0.00    -0.268 OA
ATOM     36  C   LIG    1       25.501 -27.415   6.866  0.00  0.00    +0.088 C 
ATOM     37  C   LIG    1       25.013 -28.480   7.521  0.00  0.00    +0.098 C 
ENDBRANCH  27  29
BRANCH  23  38
ATOM     38  O   LIG    1       23.448 -33.517   8.970  0.00  0.00    -0.386 OA
ATOM     39  H   LIG    1       22.622 -33.065   8.706  0.00  0.00    +0.210 HD
ENDBRANCH  23  38
ENDBRANCH  21  22
ENDBRANCH   1  21
TORSDOF 12
ENDMDL
MODEL 9
REMARK VINA RESULT:      -6.9      3.548      9.352
REMARK  Name = *****
REMARK                            x       y       z     vdW  Elec       q    Type
REMARK                         _______ _______ _______ _____ _____    ______ ____
ROOT
ATOM      1  O   LIG    1       24.833 -30.001   8.424  0.00  0.00    -0.284 OA
ENDROOT
BRANCH   1   2
ATOM      2  P   LIG    1       25.831 -31.342   8.396  0.00  0.00    +0.462 P 
ATOM      3  O   LIG    1       27.013 -30.593   9.049  0.00  0.00    -0.228 OA
BRANCH   2   4
ATOM      4  N   LIG    1       25.425 -32.119   9.871  0.00  0.00    -0.199 NA
ATOM      5  H   LIG    1       25.010 -33.006   9.610  0.00  0.00    +0.135 HD
BRANCH   4   6
ATOM      6  C   LIG    1       24.512 -31.504  10.855  0.00  0.00    +0.171 C 
ATOM      7  C   LIG    1       23.271 -32.374  11.049  0.00  0.00    +0.036 C 
BRANCH   6   8
ATOM      8  C   LIG    1       25.277 -31.339  12.201  0.00  0.00    +0.325 C 
ATOM      9  O   LIG    1       25.138 -32.081  13.173  0.00  0.00    -0.249 OA
BRANCH   8  10
ATOM     10  O   LIG    1       26.046 -30.212  12.207  0.00  0.00    -0.461 OA
BRANCH  10  12
ATOM     11  C   LIG    1       24.598 -28.326  12.860  0.00  0.00    +0.051 C 
ATOM     12  C   LIG    1       25.450 -28.973  11.776  0.00  0.00    +0.170 C 
ATOM     13  C   LIG    1       26.600 -28.046  11.384  0.00  0.00    +0.051 C 
ENDBRANCH  10  12
ENDBRANCH   8  10
ENDBRANCH   6   8
ENDBRANCH   4   6
ENDBRANCH   2   4
BRANCH   2  14
ATOM     14  O   LIG    1       24.532 -32.165   7.679  0.00  0.00    -0.413 OA
BRANCH  14  15
ATOM     15  C   LIG    1       24.717 -32.431   6.333  0.00  0.00    +0.131 A 
ATOM     16  C   LIG    1       23.771 -33.189   5.643  0.00  0.00    +0.046 A 
ATOM     17  C   LIG    1       24.015 -33.559   4.311  0.00  0.00    +0.004 A 
ATOM     18  C   LIG    1       25.188 -33.157   3.669  0.00  0.00    +0.000 A 
ATOM     19  C   LIG    1       26.106 -32.359   4.343  0.00  0.00    +0.004 A 
ATOM     20  C   LIG    1       25.867 -31.992   5.666  0.00  0.00    +0.046 A 
ENDBRANCH  14  15
ENDBRANCH   2  14
ENDBRANCH   1   2
BRANCH   1  21
ATOM     21  C   LIG    1       25.282 -28.751   7.911  0.00  0.00    +0.206 C 
BRANCH  21  22
ATOM     22  C   LIG    1       24.488 -28.323   6.676  0.00  0.00    +0.179 C 
ATOM     23  C   LIG    1       25.283 -28.346   5.376  0.00  0.00    +0.186 C 
ATOM     24  C   LIG    1       25.665 -26.887   5.117  0.00  0.00    +0.182 C 
ATOM     25  C   LIG    1       27.098 -26.624   5.552  0.00  0.00    +0.055 C 
ATOM     26  F   LIG    1       25.612 -26.695   3.760  0.00  0.00    -0.235 F 
ATOM     27  C   LIG    1       24.514 -26.124   5.811  0.00  0.00    +0.263 C 
ATOM     28  O   LIG    1       24.030 -26.972   6.879  0.00  0.00    -0.345 OA
BRANCH  27  29
ATOM     29  N   LIG    1       24.735 -24.751   6.326  0.00  0.00    -0.271 N 
ATOM     30  C   LIG    1       23.636 -24.002   6.728  0.00  0.00    +0.331 C 
ATOM     31  O   LIG    1       22.476 -24.283   6.482  0.00  0.00    -0.246 OA
ATOM     32  N   LIG    1       23.917 -22.847   7.432  0.00  0.00    -0.275 N 
ATOM     33  H   LIG    1       23.119 -22.289   7.701  0.00  0.00    +0.173 HD
ATOM     34  C   LIG    1       25.136 -22.269   7.544  0.00  0.00    +0.254 C 
ATOM     35  O   LIG    1       25.306 -21.122   7.981  0.00  0.00    -0.268 OA
ATOM     36  C   LIG    1       26.266 -23.086   7.107  0.00  0.00    +0.088 C 
ATOM     37  C   LIG    1       26.020 -24.289   6.566  0.00  0.00    +0.098 C 
ENDBRANCH  27  29
BRANCH  23  38
ATOM     38  O   LIG    1       24.427 -28.804   4.313  0.00  0.00    -0.386 OA
ATOM     39  H   LIG    1       24.557 -28.174   3.576  0.00  0.00    +0.210 HD
ENDBRANCH  23  38
ENDBRANCH  21  22
ENDBRANCH   1  21
TORSDOF 12
ENDMDL
