MODEL 1
REMARK VINA RESULT:      -2.5      0.000      0.000
REMARK  Name = *****
REMARK                            x       y       z     vdW  Elec       q    Type
REMARK                         _______ _______ _______ _____ _____    ______ ____
ROOT
ATOM      1  C   LIG    1       24.119 -14.693   4.352  0.00  0.00    +0.162 A 
ATOM      2  C   LIG    1       25.219 -15.110   3.591  0.00  0.00    +0.162 A 
ATOM      3  C   LIG    1       25.319 -16.460   3.237  0.00  0.00    +0.054 A 
ATOM      4  C   LIG    1       24.391 -17.422   3.665  0.00  0.00    -0.023 A 
ATOM      5  C   LIG    1       24.558 -18.891   3.280  0.00  0.00    +0.094 C 
ATOM      6  N   LIG    1       23.811 -19.817   4.165  0.00  0.00    -0.294 NA
ATOM      7  C   LIG    1       22.404 -19.378   4.232  0.00  0.00    +0.089 C 
ATOM      8  C   LIG    1       22.211 -17.975   4.837  0.00  0.00    +0.051 C 
ATOM      9  C   LIG    1       24.398 -19.940   5.513  0.00  0.00    +0.096 C 
ATOM     10  C   LIG    1       25.886 -20.320   5.531  0.00  0.00    +0.070 C 
ATOM     11  C   LIG    1       26.613 -19.433   4.541  0.00  0.00    +0.139 C 
ATOM     12  O   LIG    1       27.681 -18.858   4.791  0.00  0.00    -0.297 OA
ATOM     13  C   LIG    1       26.006 -19.383   3.166  0.00  0.00    +0.098 C 
ATOM     14  C   LIG    1       23.272 -16.991   4.396  0.00  0.00    -0.038 A 
ATOM     15  C   LIG    1       23.163 -15.638   4.756  0.00  0.00    +0.053 A 
ENDROOT
BRANCH   1  17
ATOM     16  C   LIG    1       23.993 -12.368   3.876  0.00  0.00    +0.277 C 
ATOM     17  O   LIG    1       23.865 -13.427   4.815  0.00  0.00    -0.491 OA
ENDBRANCH   1  17
BRANCH   2  18
ATOM     18  O   LIG    1       26.140 -14.192   3.161  0.00  0.00    -0.491 OA
ATOM     19  C   LIG    1       27.369 -14.137   3.882  0.00  0.00    +0.277 C 
ENDBRANCH   2  18
BRANCH  10  20
ATOM     20  C   LIG    1       26.482 -20.210   6.948  0.00  0.00    +0.015 C 
BRANCH  20  21
ATOM     21  C   LIG    1       27.964 -20.622   7.062  0.00  0.00    -0.016 C 
ATOM     22  C   LIG    1       28.863 -19.384   7.061  0.00  0.00    +0.007 C 
ATOM     23  C   LIG    1       28.379 -21.571   5.938  0.00  0.00    +0.007 C 
ENDBRANCH  20  21
ENDBRANCH  10  20
TORSDOF 4
ENDMDL
