MODEL 1
REMARK VINA RESULT:      -5.4      0.000      0.000
REMARK  Name = *****
REMARK                            x       y       z     vdW  Elec       q    Type
REMARK                         _______ _______ _______ _____ _____    ______ ____
ROOT
ATOM      1  C   LIG    1       22.980 -20.393   4.933  0.00  0.00    +0.085 C 
ATOM      2  C   LIG    1       24.456 -20.350   5.255  0.00  0.00    -0.027 A 
ATOM      3  C   LIG    1       24.734 -21.015   6.457  0.00  0.00    -0.043 A 
ATOM      4  C   LIG    1       26.017 -21.062   6.975  0.00  0.00    +0.004 A 
ATOM      5  C   LIG    1       27.041 -20.441   6.258  0.00  0.00    +0.000 A 
ATOM      6  C   LIG    1       26.769 -19.777   5.051  0.00  0.00    +0.000 A 
ATOM      7  C   LIG    1       23.484 -21.571   7.062  0.00  0.00    +0.037 C 
ATOM      8  C   LIG    1       25.468 -19.724   4.544  0.00  0.00    +0.005 A 
ATOM      9  C   LIG    1       22.551 -21.570   5.845  0.00  0.00    +0.028 C 
ENDROOT
BRANCH   1  10
ATOM     10  N   LIG    1       22.366 -19.100   5.230  0.00  0.00    -0.299 NA
ATOM     11  H   LIG    1       21.451 -19.239   5.653  0.00  0.00    +0.123 HD
BRANCH  10  12
ATOM     12  C   LIG    1       22.245 -18.240   4.062  0.00  0.00    +0.171 C 
BRANCH  12  14
ATOM     13  C   LIG    1       22.728 -15.713   4.778  0.00  0.00    +0.005 C 
ATOM     14  C   LIG    1       22.510 -16.845   4.437  0.00  0.00    -0.090 C 
ENDBRANCH  12  14
ENDBRANCH  10  12
ENDBRANCH   1  10
TORSDOF 3
ENDMDL
MODEL 2
REMARK VINA RESULT:      -5.4      2.158      2.934
REMARK  Name = *****
REMARK                            x       y       z     vdW  Elec       q    Type
REMARK                         _______ _______ _______ _____ _____    ______ ____
ROOT
ATOM      1  C   LIG    1       24.188 -19.043   3.508  0.00  0.00    +0.085 C 
ATOM      2  C   LIG    1       24.508 -19.903   4.709  0.00  0.00    -0.027 A 
ATOM      3  C   LIG    1       23.373 -20.106   5.505  0.00  0.00    -0.043 A 
ATOM      4  C   LIG    1       23.440 -20.826   6.686  0.00  0.00    +0.004 A 
ATOM      5  C   LIG    1       24.672 -21.364   7.062  0.00  0.00    +0.000 A 
ATOM      6  C   LIG    1       25.811 -21.167   6.265  0.00  0.00    +0.000 A 
ATOM      7  C   LIG    1       22.182 -19.412   4.926  0.00  0.00    +0.037 C 
ATOM      8  C   LIG    1       25.736 -20.427   5.082  0.00  0.00    +0.005 A 
ATOM      9  C   LIG    1       22.647 -19.201   3.481  0.00  0.00    +0.028 C 
ENDROOT
BRANCH   1  10
ATOM     10  N   LIG    1       24.686 -17.685   3.720  0.00  0.00    -0.299 NA
ATOM     11  H   LIG    1       24.103 -17.019   3.217  0.00  0.00    +0.123 HD
BRANCH  10  12
ATOM     12  C   LIG    1       26.078 -17.516   3.329  0.00  0.00    +0.171 C 
BRANCH  12  14
ATOM     13  C   LIG    1       26.756 -14.934   3.400  0.00  0.00    +0.005 C 
ATOM     14  C   LIG    1       26.437 -16.093   3.355  0.00  0.00    -0.090 C 
ENDBRANCH  12  14
ENDBRANCH  10  12
ENDBRANCH   1  10
TORSDOF 3
ENDMDL
MODEL 3
REMARK VINA RESULT:      -5.1      1.922      4.939
REMARK  Name = *****
REMARK                            x       y       z     vdW  Elec       q    Type
REMARK                         _______ _______ _______ _____ _____    ______ ____
ROOT
ATOM      1  C   LIG    1       25.874 -20.541   4.942  0.00  0.00    +0.085 C 
ATOM      2  C   LIG    1       24.371 -20.419   4.849  0.00  0.00    -0.027 A 
ATOM      3  C   LIG    1       23.997 -19.255   4.162  0.00  0.00    -0.043 A 
ATOM      4  C   LIG    1       22.666 -18.912   3.997  0.00  0.00    +0.004 A 
ATOM      5  C   LIG    1       21.694 -19.766   4.519  0.00  0.00    +0.000 A 
ATOM      6  C   LIG    1       22.063 -20.935   5.204  0.00  0.00    +0.000 A 
ATOM      7  C   LIG    1       25.201 -18.482   3.727  0.00  0.00    +0.037 C 
ATOM      8  C   LIG    1       23.409 -21.266   5.377  0.00  0.00    +0.005 A 
ATOM      9  C   LIG    1       26.283 -19.564   3.812  0.00  0.00    +0.028 C 
ENDROOT
BRANCH   1  10
ATOM     10  N   LIG    1       26.321 -20.184   6.288  0.00  0.00    -0.299 NA
ATOM     11  H   LIG    1       26.316 -19.172   6.397  0.00  0.00    +0.123 HD
BRANCH  10  12
ATOM     12  C   LIG    1       27.638 -20.710   6.614  0.00  0.00    +0.171 C 
BRANCH  12  14
ATOM     13  C   LIG    1       29.463 -18.796   6.250  0.00  0.00    +0.005 C 
ATOM     14  C   LIG    1       28.655 -19.670   6.421  0.00  0.00    -0.090 C 
ENDBRANCH  12  14
ENDBRANCH  10  12
ENDBRANCH   1  10
TORSDOF 3
ENDMDL
MODEL 4
REMARK VINA RESULT:      -5.0      4.259      7.655
REMARK  Name = *****
REMARK                            x       y       z     vdW  Elec       q    Type
REMARK                         _______ _______ _______ _____ _____    ______ ____
ROOT
ATOM      1  C   LIG    1       26.796 -14.064   3.001  0.00  0.00    +0.085 C 
ATOM      2  C   LIG    1       25.637 -13.102   3.116  0.00  0.00    -0.027 A 
ATOM      3  C   LIG    1       25.299 -12.872   4.457  0.00  0.00    -0.043 A 
ATOM      4  C   LIG    1       24.233 -12.058   4.802  0.00  0.00    +0.004 A 
ATOM      5  C   LIG    1       23.505 -11.452   3.777  0.00  0.00    +0.000 A 
ATOM      6  C   LIG    1       23.842 -11.677   2.432  0.00  0.00    +0.000 A 
ATOM      7  C   LIG    1       26.189 -13.648   5.373  0.00  0.00    +0.037 C 
ATOM      8  C   LIG    1       24.911 -12.510   2.094  0.00  0.00    +0.005 A 
ATOM      9  C   LIG    1       27.364 -13.958   4.438  0.00  0.00    +0.028 C 
ENDROOT
BRANCH   1  10
ATOM     10  N   LIG    1       26.310 -15.385   2.603  0.00  0.00    -0.299 NA
ATOM     11  H   LIG    1       25.293 -15.406   2.640  0.00  0.00    +0.123 HD
BRANCH  10  12
ATOM     12  C   LIG    1       26.857 -16.465   3.410  0.00  0.00    +0.171 C 
BRANCH  12  14
ATOM     13  C   LIG    1       25.193 -18.554   3.440  0.00  0.00    +0.005 C 
ATOM     14  C   LIG    1       25.935 -17.608   3.409  0.00  0.00    -0.090 C 
ENDBRANCH  12  14
ENDBRANCH  10  12
ENDBRANCH   1  10
TORSDOF 3
ENDMDL
MODEL 5
REMARK VINA RESULT:      -5.0      3.999      6.785
REMARK  Name = *****
REMARK                            x       y       z     vdW  Elec       q    Type
REMARK                         _______ _______ _______ _____ _____    ______ ____
ROOT
ATOM      1  C   LIG    1       24.101 -13.890   4.162  0.00  0.00    +0.085 C 
ATOM      2  C   LIG    1       25.585 -13.628   4.276  0.00  0.00    -0.027 A 
ATOM      3  C   LIG    1       26.131 -13.253   3.041  0.00  0.00    -0.043 A 
ATOM      4  C   LIG    1       27.487 -13.010   2.896  0.00  0.00    +0.004 A 
ATOM      5  C   LIG    1       28.303 -13.131   4.021  0.00  0.00    +0.000 A 
ATOM      6  C   LIG    1       27.760 -13.503   5.262  0.00  0.00    +0.000 A 
ATOM      7  C   LIG    1       25.079 -13.221   1.978  0.00  0.00    +0.037 C 
ATOM      8  C   LIG    1       26.393 -13.760   5.394  0.00  0.00    +0.005 A 
ATOM      9  C   LIG    1       23.809 -13.147   2.834  0.00  0.00    +0.028 C 
ENDROOT
BRANCH   1  10
ATOM     10  N   LIG    1       23.847 -15.329   4.157  0.00  0.00    -0.299 NA
ATOM     11  H   LIG    1       23.794 -15.669   3.199  0.00  0.00    +0.123 HD
BRANCH  10  12
ATOM     12  C   LIG    1       22.640 -15.701   4.880  0.00  0.00    +0.171 C 
BRANCH  12  14
ATOM     13  C   LIG    1       22.134 -18.294   4.491  0.00  0.00    +0.005 C 
ATOM     14  C   LIG    1       22.343 -17.123   4.662  0.00  0.00    -0.090 C 
ENDBRANCH  12  14
ENDBRANCH  10  12
ENDBRANCH   1  10
TORSDOF 3
ENDMDL
MODEL 6
REMARK VINA RESULT:      -5.0      1.170      1.604
REMARK  Name = *****
REMARK                            x       y       z     vdW  Elec       q    Type
REMARK                         _______ _______ _______ _____ _____    ______ ____
ROOT
ATOM      1  C   LIG    1       23.615 -20.093   3.989  0.00  0.00    +0.085 C 
ATOM      2  C   LIG    1       24.877 -20.212   4.811  0.00  0.00    -0.027 A 
ATOM      3  C   LIG    1       24.596 -20.648   6.113  0.00  0.00    -0.043 A 
ATOM      4  C   LIG    1       25.597 -20.784   7.060  0.00  0.00    +0.004 A 
ATOM      5  C   LIG    1       26.908 -20.490   6.682  0.00  0.00    +0.000 A 
ATOM      6  C   LIG    1       27.196 -20.057   5.378  0.00  0.00    +0.000 A 
ATOM      7  C   LIG    1       23.128 -20.867   6.299  0.00  0.00    +0.037 C 
ATOM      8  C   LIG    1       26.176 -19.910   4.433  0.00  0.00    +0.005 A 
ATOM      9  C   LIG    1       22.668 -20.975   4.840  0.00  0.00    +0.028 C 
ENDROOT
BRANCH   1  10
ATOM     10  N   LIG    1       23.234 -18.688   3.860  0.00  0.00    -0.299 NA
ATOM     11  H   LIG    1       24.009 -18.091   4.143  0.00  0.00    +0.123 HD
BRANCH  10  12
ATOM     12  C   LIG    1       22.042 -18.344   4.620  0.00  0.00    +0.171 C 
BRANCH  12  14
ATOM     13  C   LIG    1       19.887 -18.473   3.048  0.00  0.00    +0.005 C 
ATOM     14  C   LIG    1       20.860 -18.396   3.750  0.00  0.00    -0.090 C 
ENDBRANCH  12  14
ENDBRANCH  10  12
ENDBRANCH   1  10
TORSDOF 3
ENDMDL
MODEL 7
REMARK VINA RESULT:      -4.5      2.065      4.554
REMARK  Name = *****
REMARK                            x       y       z     vdW  Elec       q    Type
REMARK                         _______ _______ _______ _____ _____    ______ ____
ROOT
ATOM      1  C   LIG    1       26.094 -19.857   4.134  0.00  0.00    +0.085 C 
ATOM      2  C   LIG    1       25.106 -20.434   5.121  0.00  0.00    -0.027 A 
ATOM      3  C   LIG    1       23.789 -20.095   4.779  0.00  0.00    -0.043 A 
ATOM      4  C   LIG    1       22.718 -20.476   5.569  0.00  0.00    +0.004 A 
ATOM      5  C   LIG    1       22.978 -21.227   6.717  0.00  0.00    +0.000 A 
ATOM      6  C   LIG    1       24.295 -21.572   7.062  0.00  0.00    +0.000 A 
ATOM      7  C   LIG    1       23.757 -19.264   3.536  0.00  0.00    +0.037 C 
ATOM      8  C   LIG    1       25.370 -21.171   6.265  0.00  0.00    +0.005 A 
ATOM      9  C   LIG    1       25.139 -19.573   2.948  0.00  0.00    +0.028 C 
ENDROOT
BRANCH   1  10
ATOM     10  N   LIG    1       26.755 -18.689   4.715  0.00  0.00    -0.299 NA
ATOM     11  H   LIG    1       26.514 -17.855   4.184  0.00  0.00    +0.123 HD
BRANCH  10  12
ATOM     12  C   LIG    1       28.202 -18.827   4.789  0.00  0.00    +0.171 C 
BRANCH  12  14
ATOM     13  C   LIG    1       28.865 -20.565   6.705  0.00  0.00    +0.005 C 
ATOM     14  C   LIG    1       28.561 -19.769   5.856  0.00  0.00    -0.090 C 
ENDBRANCH  12  14
ENDBRANCH  10  12
ENDBRANCH   1  10
TORSDOF 3
ENDMDL
MODEL 8
REMARK VINA RESULT:      -4.3      1.276      1.876
REMARK  Name = *****
REMARK                            x       y       z     vdW  Elec       q    Type
REMARK                         _______ _______ _______ _____ _____    ______ ____
ROOT
ATOM      1  C   LIG    1       23.922 -19.060   3.771  0.00  0.00    +0.085 C 
ATOM      2  C   LIG    1       24.654 -19.830   4.845  0.00  0.00    -0.027 A 
ATOM      3  C   LIG    1       23.786 -20.216   5.876  0.00  0.00    -0.043 A 
ATOM      4  C   LIG    1       24.248 -20.893   6.992  0.00  0.00    +0.004 A 
ATOM      5  C   LIG    1       25.607 -21.201   7.062  0.00  0.00    +0.000 A 
ATOM      6  C   LIG    1       26.480 -20.820   6.030  0.00  0.00    +0.000 A 
ATOM      7  C   LIG    1       22.391 -19.750   5.602  0.00  0.00    +0.037 C 
ATOM      8  C   LIG    1       26.007 -20.125   4.915  0.00  0.00    +0.005 A 
ATOM      9  C   LIG    1       22.468 -19.485   4.094  0.00  0.00    +0.028 C 
ENDROOT
BRANCH   1  10
ATOM     10  N   LIG    1       24.211 -17.632   3.896  0.00  0.00    -0.299 NA
ATOM     11  H   LIG    1       24.946 -17.486   4.584  0.00  0.00    +0.123 HD
BRANCH  10  12
ATOM     12  C   LIG    1       23.042 -16.838   4.246  0.00  0.00    +0.171 C 
BRANCH  12  14
ATOM     13  C   LIG    1       23.715 -14.254   4.293  0.00  0.00    +0.005 C 
ATOM     14  C   LIG    1       23.397 -15.414   4.284  0.00  0.00    -0.090 C 
ENDBRANCH  12  14
ENDBRANCH  10  12
ENDBRANCH   1  10
TORSDOF 3
ENDMDL
MODEL 9
REMARK VINA RESULT:      -4.1      1.681      4.409
REMARK  Name = *****
REMARK                            x       y       z     vdW  Elec       q    Type
REMARK                         _______ _______ _______ _____ _____    ______ ____
ROOT
ATOM      1  C   LIG    1       25.096 -20.250   6.035  0.00  0.00    +0.085 C 
ATOM      2  C   LIG    1       23.942 -19.679   5.242  0.00  0.00    -0.027 A 
ATOM      3  C   LIG    1       22.774 -20.429   5.433  0.00  0.00    -0.043 A 
ATOM      4  C   LIG    1       21.601 -20.118   4.767  0.00  0.00    +0.004 A 
ATOM      5  C   LIG    1       21.601 -19.020   3.906  0.00  0.00    +0.000 A 
ATOM      6  C   LIG    1       22.768 -18.263   3.714  0.00  0.00    +0.000 A 
ATOM      7  C   LIG    1       23.019 -21.572   6.367  0.00  0.00    +0.037 C 
ATOM      8  C   LIG    1       23.951 -18.593   4.381  0.00  0.00    +0.005 A 
ATOM      9  C   LIG    1       24.308 -21.108   7.055  0.00  0.00    +0.028 C 
ENDROOT
BRANCH   1  10
ATOM     10  N   LIG    1       25.997 -20.981   5.146  0.00  0.00    -0.299 NA
ATOM     11  H   LIG    1       26.216 -21.891   5.547  0.00  0.00    +0.123 HD
BRANCH  10  12
ATOM     12  C   LIG    1       27.228 -20.260   4.856  0.00  0.00    +0.171 C 
BRANCH  12  14
ATOM     13  C   LIG    1       28.711 -19.999   7.062  0.00  0.00    +0.005 C 
ATOM     14  C   LIG    1       28.027 -20.120   6.080  0.00  0.00    -0.090 C 
ENDBRANCH  12  14
ENDBRANCH  10  12
ENDBRANCH   1  10
TORSDOF 3
ENDMDL
