MODEL 1
REMARK VINA RESULT:      -3.6      0.000      0.000
REMARK  Name = *****
REMARK                            x       y       z     vdW  Elec       q    Type
REMARK                         _______ _______ _______ _____ _____    ______ ____
ROOT
ATOM      1  C   LIG    1       23.714 -21.454   6.858  0.00  0.00    +0.052 C 
ATOM      2  C   LIG    1       24.613 -20.583   6.037  0.00  0.00    +0.040 C 
ATOM      3  C   LIG    1       24.241 -19.712   5.083  0.00  0.00    +0.142 C 
ATOM      4  O   LIG    1       25.110 -18.874   4.411  0.00  0.00    -0.454 OA
ATOM      5  C   LIG    1       26.422 -18.794   4.808  0.00  0.00    +0.153 A 
ATOM      6  C   LIG    1       26.960 -19.713   5.702  0.00  0.00    +0.065 A 
ATOM      7  C   LIG    1       28.324 -19.689   6.030  0.00  0.00    +0.015 A 
ATOM      8  C   LIG    1       29.155 -18.713   5.487  0.00  0.00    +0.002 A 
ATOM      9  C   LIG    1       28.618 -17.758   4.629  0.00  0.00    +0.019 A 
ATOM     10  C   LIG    1       27.256 -17.793   4.280  0.00  0.00    +0.102 A 
ATOM     11  C   LIG    1       26.067 -20.701   6.324  0.00  0.00    +0.196 C 
ATOM     12  O   LIG    1       26.514 -21.572   7.062  0.00  0.00    -0.287 OA
ENDROOT
BRANCH   3  13
ATOM     13  C   LIG    1       22.851 -19.590   4.601  0.00  0.00    +0.018 A 
ATOM     14  C   LIG    1       22.300 -18.345   4.272  0.00  0.00    +0.011 A 
ATOM     15  C   LIG    1       20.980 -18.252   3.816  0.00  0.00    +0.001 A 
ATOM     16  C   LIG    1       20.201 -19.400   3.679  0.00  0.00    +0.000 A 
ATOM     17  C   LIG    1       20.740 -20.644   3.999  0.00  0.00    +0.001 A 
ATOM     18  C   LIG    1       22.058 -20.739   4.457  0.00  0.00    +0.011 A 
ENDBRANCH   3  13
BRANCH  10  19
ATOM     19  C   LIG    1       26.793 -16.730   3.363  0.00  0.00    +0.343 C 
ATOM     20  O   LIG    1       25.766 -16.825   2.695  0.00  0.00    -0.245 OA
BRANCH  19  21
ATOM     21  O   LIG    1       27.667 -15.706   3.322  0.00  0.00    -0.460 OA
BRANCH  21  22
ATOM     22  C   LIG    1       27.208 -14.488   3.917  0.00  0.00    +0.247 C 
BRANCH  22  23
ATOM     23  C   LIG    1       26.619 -13.586   2.823  0.00  0.00    +0.125 C 
BRANCH  23  24
ATOM     24  N   LIG    1       25.197 -13.821   2.542  0.00  0.00    -0.299 NA
ATOM     25  C   LIG    1       24.460 -14.177   3.763  0.00  0.00    +0.084 C 
ATOM     26  C   LIG    1       24.248 -13.016   4.738  0.00  0.00    +0.015 C 
ATOM     27  C   LIG    1       23.669 -11.777   4.062  0.00  0.00    +0.002 C 
ATOM     28  C   LIG    1       24.332 -11.458   2.725  0.00  0.00    +0.015 C 
ATOM     29  C   LIG    1       24.533 -12.702   1.861  0.00  0.00    +0.084 C 
ENDBRANCH  23  24
ENDBRANCH  22  23
ENDBRANCH  21  22
ENDBRANCH  19  21
ENDBRANCH  10  19
TORSDOF 6
ENDMDL
MODEL 2
REMARK VINA RESULT:      -1.5      0.904      1.771
REMARK  Name = *****
REMARK                            x       y       z     vdW  Elec       q    Type
REMARK                         _______ _______ _______ _____ _____    ______ ____
ROOT
ATOM      1  C   LIG    1       24.035 -21.571   6.758  0.00  0.00    +0.052 C 
ATOM      2  C   LIG    1       24.878 -20.633   5.953  0.00  0.00    +0.040 C 
ATOM      3  C   LIG    1       24.450 -19.745   5.039  0.00  0.00    +0.142 C 
ATOM      4  O   LIG    1       25.268 -18.845   4.382  0.00  0.00    -0.454 OA
ATOM      5  C   LIG    1       26.583 -18.721   4.757  0.00  0.00    +0.153 A 
ATOM      6  C   LIG    1       27.178 -19.647   5.607  0.00  0.00    +0.065 A 
ATOM      7  C   LIG    1       28.546 -19.575   5.910  0.00  0.00    +0.015 A 
ATOM      8  C   LIG    1       29.322 -18.544   5.387  0.00  0.00    +0.002 A 
ATOM      9  C   LIG    1       28.727 -17.584   4.576  0.00  0.00    +0.019 A 
ATOM     10  C   LIG    1       27.361 -17.666   4.251  0.00  0.00    +0.102 A 
ATOM     11  C   LIG    1       26.342 -20.696   6.209  0.00  0.00    +0.196 C 
ATOM     12  O   LIG    1       26.841 -21.572   6.906  0.00  0.00    -0.287 OA
ENDROOT
BRANCH   3  13
ATOM     13  C   LIG    1       23.046 -19.668   4.587  0.00  0.00    +0.018 A 
ATOM     14  C   LIG    1       22.176 -20.756   4.722  0.00  0.00    +0.011 A 
ATOM     15  C   LIG    1       20.848 -20.662   4.288  0.00  0.00    +0.001 A 
ATOM     16  C   LIG    1       20.377 -19.478   3.721  0.00  0.00    +0.000 A 
ATOM     17  C   LIG    1       21.233 -18.387   3.586  0.00  0.00    +0.001 A 
ATOM     18  C   LIG    1       22.560 -18.481   4.017  0.00  0.00    +0.011 A 
ENDBRANCH   3  13
BRANCH  10  19
ATOM     19  C   LIG    1       26.834 -16.593   3.382  0.00  0.00    +0.343 C 
ATOM     20  O   LIG    1       27.555 -15.767   2.828  0.00  0.00    -0.245 OA
BRANCH  19  21
ATOM     21  O   LIG    1       25.488 -16.617   3.341  0.00  0.00    -0.460 OA
BRANCH  21  22
ATOM     22  C   LIG    1       24.843 -15.418   3.783  0.00  0.00    +0.247 C 
BRANCH  22  23
ATOM     23  C   LIG    1       25.045 -14.320   2.730  0.00  0.00    +0.125 C 
BRANCH  23  24
ATOM     24  N   LIG    1       25.232 -12.973   3.284  0.00  0.00    -0.299 NA
ATOM     25  C   LIG    1       25.194 -12.988   4.753  0.00  0.00    +0.084 C 
ATOM     26  C   LIG    1       26.425 -13.614   5.415  0.00  0.00    +0.015 C 
ATOM     27  C   LIG    1       27.734 -13.041   4.883  0.00  0.00    +0.002 C 
ATOM     28  C   LIG    1       27.753 -12.895   3.364  0.00  0.00    +0.015 C 
ATOM     29  C   LIG    1       26.454 -12.304   2.819  0.00  0.00    +0.084 C 
ENDBRANCH  23  24
ENDBRANCH  22  23
ENDBRANCH  21  22
ENDBRANCH  19  21
ENDBRANCH  10  19
TORSDOF 6
ENDMDL
