MODEL 1
REMARK VINA RESULT:       4.6      0.000      0.000
REMARK  Name = *****
REMARK                            x       y       z     vdW  Elec       q    Type
REMARK                         _______ _______ _______ _____ _____    ______ ____
ROOT
ATOM      1  C   LIG    1       26.460 -21.020   5.789  0.00  0.00    -0.000 C 
ENDROOT
BRANCH   1   2
ATOM      2  C   LIG    1       25.547 -21.052   7.062  0.00  0.00    +0.000 C 
BRANCH   2   3
ATOM      3  C   LIG    1       24.249 -20.187   6.960  0.00  0.00    +0.002 C 
BRANCH   3   4
ATOM      4  C   LIG    1       22.879 -20.951   6.653  0.00  0.00    +0.021 C 
BRANCH   4   5
ATOM      5  C   LIG    1       22.527 -21.569   5.277  0.00  0.00    +0.122 C 
BRANCH   5   8
ATOM      6  C   LIG    1       19.438 -19.838   3.545  0.00  0.00    +0.063 C 
ATOM      7  C   LIG    1       20.826 -19.661   4.217  0.00  0.00    +0.018 C 
ATOM      8  N   LIG    1       21.920 -20.619   4.118  0.00  0.00    -0.344 NA
ATOM      9  C   LIG    1       23.169 -19.976   3.650  0.00  0.00    +0.051 C 
ATOM     10  C   LIG    1       23.423 -18.601   3.873  0.00  0.00    +0.023 C 
ATOM     11  C   LIG    1       24.687 -18.074   3.567  0.00  0.00    +0.012 C 
ATOM     12  C   LIG    1       25.684 -18.901   3.023  0.00  0.00    +0.001 C 
ATOM     13  C   LIG    1       25.421 -20.242   2.752  0.00  0.00    +0.002 C 
ATOM     14  C   LIG    1       22.341 -17.745   4.428  0.00  0.00    +0.066 C 
ATOM     15  N   LIG    1       22.504 -16.514   4.809  0.00  0.00    -0.299 NA
ATOM     16  H   LIG    1       21.600 -16.125   5.119  0.00  0.00    +0.187 HD
ATOM     17  C   LIG    1       24.169 -20.770   3.052  0.00  0.00    +0.026 C 
ATOM     18  C   LIG    1       21.001 -18.340   4.426  0.00  0.00    +0.048 C 
ENDBRANCH   5   8
ENDBRANCH   4   5
ENDBRANCH   3   4
ENDBRANCH   2   3
ENDBRANCH   1   2
BRANCH   1  19
ATOM     19  C   LIG    1       27.689 -20.094   5.939  0.00  0.00    -0.000 C 
BRANCH  19  20
ATOM     20  C   LIG    1       27.789 -18.818   5.058  0.00  0.00    +0.000 C 
BRANCH  20  21
ATOM     21  C   LIG    1       28.954 -17.799   5.248  0.00  0.00    +0.002 C 
BRANCH  21  22
ATOM     22  C   LIG    1       28.765 -16.345   4.764  0.00  0.00    +0.021 C 
BRANCH  22  23
ATOM     23  C   LIG    1       27.573 -16.027   3.825  0.00  0.00    +0.122 C 
BRANCH  23  24
ATOM     24  N   LIG    1       27.135 -14.602   3.811  0.00  0.00    -0.344 NA
ATOM     25  C   LIG    1       25.767 -14.209   3.636  0.00  0.00    +0.051 C 
ATOM     26  C   LIG    1       25.268 -13.013   4.279  0.00  0.00    +0.023 C 
ATOM     27  C   LIG    1       24.000 -12.509   3.886  0.00  0.00    +0.012 C 
ATOM     28  C   LIG    1       23.141 -13.282   3.068  0.00  0.00    +0.001 C 
ATOM     29  C   LIG    1       23.564 -14.505   2.568  0.00  0.00    +0.002 C 
ATOM     30  C   LIG    1       26.125 -12.465   5.441  0.00  0.00    +0.066 C 
ATOM     31  N   LIG    1       25.969 -11.645   6.425  0.00  0.00    -0.299 NA
ATOM     32  H   LIG    1       25.124 -11.099   6.543  0.00  0.00    +0.187 HD
ATOM     33  C   LIG    1       27.555 -12.813   5.344  0.00  0.00    +0.048 C 
ATOM     34  C   LIG    1       24.881 -14.924   2.791  0.00  0.00    +0.026 C 
ATOM     35  C   LIG    1       27.954 -13.662   4.488  0.00  0.00    +0.018 C 
ATOM     36  C   LIG    1       29.331 -13.374   3.950  0.00  0.00    +0.063 C 
ENDBRANCH  23  24
ENDBRANCH  22  23
ENDBRANCH  21  22
ENDBRANCH  20  21
ENDBRANCH  19  20
ENDBRANCH   1  19
TORSDOF 11
ENDMDL
MODEL 2
REMARK VINA RESULT:       6.3      1.465      6.853
REMARK  Name = *****
REMARK                            x       y       z     vdW  Elec       q    Type
REMARK                         _______ _______ _______ _____ _____    ______ ____
ROOT
ATOM      1  C   LIG    1       29.240 -18.154   6.384  0.00  0.00    -0.000 C 
ENDROOT
BRANCH   1   2
ATOM      2  C   LIG    1       29.128 -18.175   4.821  0.00  0.00    +0.000 C 
BRANCH   2   3
ATOM      3  C   LIG    1       28.659 -16.829   4.179  0.00  0.00    +0.002 C 
BRANCH   3   4
ATOM      4  C   LIG    1       27.243 -16.247   4.643  0.00  0.00    +0.021 C 
BRANCH   4   5
ATOM      5  C   LIG    1       27.046 -14.826   5.227  0.00  0.00    +0.122 C 
BRANCH   5   8
ATOM      6  C   LIG    1       28.427 -13.138   1.943  0.00  0.00    +0.063 C 
ATOM      7  C   LIG    1       27.183 -13.533   2.784  0.00  0.00    +0.018 C 
ATOM      8  N   LIG    1       27.142 -13.548   4.241  0.00  0.00    -0.344 NA
ATOM      9  C   LIG    1       26.009 -12.750   4.765  0.00  0.00    +0.051 C 
ATOM     10  C   LIG    1       24.832 -12.548   4.005  0.00  0.00    +0.023 C 
ATOM     11  C   LIG    1       23.722 -11.934   4.604  0.00  0.00    +0.012 C 
ATOM     12  C   LIG    1       23.787 -11.504   5.940  0.00  0.00    +0.001 C 
ATOM     13  C   LIG    1       24.962 -11.652   6.674  0.00  0.00    +0.002 C 
ATOM     14  C   LIG    1       24.800 -12.993   2.587  0.00  0.00    +0.066 C 
ATOM     15  N   LIG    1       23.734 -12.994   1.844  0.00  0.00    -0.299 NA
ATOM     16  H   LIG    1       23.976 -13.309   0.891  0.00  0.00    +0.187 HD
ATOM     17  C   LIG    1       26.067 -12.259   6.085  0.00  0.00    +0.026 C 
ATOM     18  C   LIG    1       26.099 -13.344   2.004  0.00  0.00    +0.048 C 
ENDBRANCH   5   8
ENDBRANCH   4   5
ENDBRANCH   3   4
ENDBRANCH   2   3
ENDBRANCH   1   2
BRANCH   1  19
ATOM     19  C   LIG    1       28.574 -19.372   7.062  0.00  0.00    -0.000 C 
BRANCH  19  20
ATOM     20  C   LIG    1       28.092 -20.560   6.182  0.00  0.00    +0.000 C 
BRANCH  20  21
ATOM     21  C   LIG    1       26.793 -21.347   6.535  0.00  0.00    +0.002 C 
BRANCH  21  22
ATOM     22  C   LIG    1       25.462 -20.575   6.669  0.00  0.00    +0.021 C 
BRANCH  22  23
ATOM     23  C   LIG    1       24.238 -21.063   5.852  0.00  0.00    +0.122 C 
BRANCH  23  24
ATOM     24  N   LIG    1       23.799 -20.153   4.757  0.00  0.00    -0.344 NA
ATOM     25  C   LIG    1       22.419 -19.897   4.463  0.00  0.00    +0.051 C 
ATOM     26  C   LIG    1       22.014 -18.606   3.951  0.00  0.00    +0.023 C 
ATOM     27  C   LIG    1       20.701 -18.464   3.429  0.00  0.00    +0.012 C 
ATOM     28  C   LIG    1       19.736 -19.482   3.622  0.00  0.00    +0.001 C 
ATOM     29  C   LIG    1       20.087 -20.669   4.248  0.00  0.00    +0.002 C 
ATOM     30  C   LIG    1       23.026 -17.456   4.144  0.00  0.00    +0.066 C 
ATOM     31  N   LIG    1       23.011 -16.167   4.106  0.00  0.00    -0.299 NA
ATOM     32  H   LIG    1       22.190 -15.646   3.821  0.00  0.00    +0.187 HD
ATOM     33  C   LIG    1       24.429 -17.905   4.232  0.00  0.00    +0.048 C 
ATOM     34  C   LIG    1       21.423 -20.898   4.596  0.00  0.00    +0.026 C 
ATOM     35  C   LIG    1       24.704 -19.140   4.349  0.00  0.00    +0.018 C 
ATOM     36  C   LIG    1       25.989 -19.537   3.672  0.00  0.00    +0.063 C 
ENDBRANCH  23  24
ENDBRANCH  22  23
ENDBRANCH  21  22
ENDBRANCH  20  21
ENDBRANCH  19  20
ENDBRANCH   1  19
TORSDOF 11
ENDMDL
