MODEL 1
REMARK VINA RESULT:      -8.1      0.000      0.000
REMARK  Name = *****
REMARK                            x       y       z     vdW  Elec       q    Type
REMARK                         _______ _______ _______ _____ _____    ______ ____
ROOT
ATOM      1  C   LIG    1       26.396 -21.565   7.238  0.00  0.00    +0.046 C 
ATOM      2  C   LIG    1       25.476 -21.788   5.989  0.00  0.00    +0.031 C 
ATOM      3  C   LIG    1       24.199 -20.950   6.288  0.00  0.00    +0.121 C 
ATOM      4  C   LIG    1       24.207 -20.671   7.779  0.00  0.00    +0.063 C 
ATOM      5  C   LIG    1       25.670 -20.507   8.102  0.00  0.00    +0.124 C 
ENDROOT
BRANCH   5   6
ATOM      6  O   LIG    1       25.882 -20.701   9.492  0.00  0.00    -0.391 OA
ATOM      7  H   LIG    1       25.171 -20.232   9.963  0.00  0.00    +0.210 HD
ENDBRANCH   5   6
BRANCH   3   8
ATOM      8  O   LIG    1       22.982 -21.574   5.927  0.00  0.00    -0.391 OA
ATOM      9  H   LIG    1       22.772 -21.289   5.019  0.00  0.00    +0.210 HD
ENDBRANCH   3   8
BRANCH   1  11
ATOM     10  C   LIG    1       28.238 -19.902   6.530  0.00  0.00    -0.000 C 
ATOM     11  C   LIG    1       27.824 -21.143   6.871  0.00  0.00    -0.022 C 
BRANCH  10  12
ATOM     12  C   LIG    1       29.611 -19.533   6.012  0.00  0.00    +0.137 C 
BRANCH  12  13
ATOM     13  O   LIG    1       29.525 -18.166   5.622  0.00  0.00    -0.388 OA
ATOM     14  H   LIG    1       30.278 -17.963   5.046  0.00  0.00    +0.210 HD
ENDBRANCH  12  13
BRANCH  12  15
ATOM     15  C   LIG    1       30.733 -19.644   7.068  0.00  0.00    +0.035 C 
BRANCH  15  16
ATOM     16  C   LIG    1       30.983 -18.372   7.910  0.00  0.00    +0.003 C 
BRANCH  16  17
ATOM     17  C   LIG    1       30.081 -18.133   9.134  0.00  0.00    -0.000 C 
BRANCH  17  19
ATOM     18  C   LIG    1       30.995 -17.344  11.354  0.00  0.00    +0.004 C 
ATOM     19  C   LIG    1       30.463 -16.921   9.988  0.00  0.00    -0.003 C 
ENDBRANCH  17  19
ENDBRANCH  16  17
ENDBRANCH  15  16
ENDBRANCH  12  15
ENDBRANCH  10  12
ENDBRANCH   1  11
BRANCH   2  20
ATOM     20  C   LIG    1       25.180 -23.271   5.589  0.00  0.00    +0.033 C 
BRANCH  20  21
ATOM     21  C   LIG    1       25.222 -24.276   6.733  0.00  0.00    -0.031 C 
ATOM     22  C   LIG    1       25.801 -25.486   6.914  0.00  0.00    -0.031 C 
BRANCH  22  23
ATOM     23  C   LIG    1       26.600 -26.376   5.983  0.00  0.00    +0.027 C 
BRANCH  23  24
ATOM     24  C   LIG    1       25.789 -27.275   4.994  0.00  0.00    +0.015 C 
BRANCH  24  25
ATOM     25  C   LIG    1       24.335 -27.608   5.346  0.00  0.00    +0.121 C 
BRANCH  25  26
ATOM     26  C   LIG    1       24.235 -28.991   6.025  0.00  0.00    +0.305 C 
ATOM     27  O   LIG    1       24.980 -29.388   6.887  0.00  0.00    -0.251 OA
BRANCH  26  28
ATOM     28  O   LIG    1       23.187 -29.734   5.549  0.00  0.00    -0.481 OA
ATOM     29  H   LIG    1       22.412 -29.784   6.126  0.00  0.00    +0.295 HD
ENDBRANCH  26  28
ENDBRANCH  25  26
ENDBRANCH  24  25
ENDBRANCH  23  24
ENDBRANCH  22  23
ENDBRANCH  20  21
ENDBRANCH   2  20
TORSDOF 16
ENDMDL
MODEL 2
REMARK VINA RESULT:      -8.1      2.277      8.262
REMARK  Name = *****
REMARK                            x       y       z     vdW  Elec       q    Type
REMARK                         _______ _______ _______ _____ _____    ______ ____
ROOT
ATOM      1  C   LIG    1       25.632 -22.933   6.644  0.00  0.00    +0.046 C 
ATOM      2  C   LIG    1       26.402 -22.454   7.922  0.00  0.00    +0.031 C 
ATOM      3  C   LIG    1       25.361 -21.608   8.713  0.00  0.00    +0.121 C 
ATOM      4  C   LIG    1       24.260 -21.253   7.731  0.00  0.00    +0.063 C 
ATOM      5  C   LIG    1       24.170 -22.468   6.844  0.00  0.00    +0.124 C 
ENDROOT
BRANCH   5   6
ATOM      6  O   LIG    1       23.534 -22.127   5.622  0.00  0.00    -0.391 OA
ATOM      7  H   LIG    1       23.275 -22.959   5.186  0.00  0.00    +0.210 HD
ENDBRANCH   5   6
BRANCH   3   8
ATOM      8  O   LIG    1       25.877 -20.427   9.297  0.00  0.00    -0.391 OA
ATOM      9  H   LIG    1       25.115 -19.866   9.530  0.00  0.00    +0.210 HD
ENDBRANCH   3   8
BRANCH   1  11
ATOM     10  C   LIG    1       25.420 -25.106   5.267  0.00  0.00    -0.000 C 
ATOM     11  C   LIG    1       25.739 -24.444   6.403  0.00  0.00    -0.022 C 
BRANCH  10  12
ATOM     12  C   LIG    1       25.373 -26.609   5.097  0.00  0.00    +0.137 C 
BRANCH  12  13
ATOM     13  O   LIG    1       26.720 -27.055   5.209  0.00  0.00    -0.388 OA
ATOM     14  H   LIG    1       26.807 -27.894   4.732  0.00  0.00    +0.210 HD
ENDBRANCH  12  13
BRANCH  12  15
ATOM     15  C   LIG    1       24.550 -27.340   6.180  0.00  0.00    +0.035 C 
BRANCH  15  16
ATOM     16  C   LIG    1       25.024 -28.770   6.525  0.00  0.00    +0.003 C 
BRANCH  16  17
ATOM     17  C   LIG    1       24.689 -29.321   7.921  0.00  0.00    -0.000 C 
BRANCH  17  19
ATOM     18  C   LIG    1       26.524 -28.532   9.469  0.00  0.00    +0.004 C 
ATOM     19  C   LIG    1       25.902 -29.731   8.761  0.00  0.00    -0.003 C 
ENDBRANCH  17  19
ENDBRANCH  16  17
ENDBRANCH  15  16
ENDBRANCH  12  15
ENDBRANCH  10  12
ENDBRANCH   1  11
BRANCH   2  20
ATOM     20  C   LIG    1       27.765 -21.722   7.689  0.00  0.00    +0.033 C 
BRANCH  20  21
ATOM     21  C   LIG    1       27.774 -20.705   6.556  0.00  0.00    -0.031 C 
ATOM     22  C   LIG    1       28.562 -19.656   6.226  0.00  0.00    -0.031 C 
BRANCH  22  23
ATOM     23  C   LIG    1       29.745 -19.018   6.928  0.00  0.00    +0.027 C 
BRANCH  23  24
ATOM     24  C   LIG    1       30.891 -19.974   7.396  0.00  0.00    +0.015 C 
BRANCH  24  25
ATOM     25  C   LIG    1       31.145 -20.113   8.901  0.00  0.00    +0.121 C 
BRANCH  25  26
ATOM     26  C   LIG    1       31.282 -21.598   9.302  0.00  0.00    +0.305 C 
ATOM     27  O   LIG    1       30.660 -22.129  10.188  0.00  0.00    -0.251 OA
BRANCH  26  28
ATOM     28  O   LIG    1       32.190 -22.270   8.527  0.00  0.00    -0.481 OA
ATOM     29  H   LIG    1       32.407 -21.855   7.680  0.00  0.00    +0.295 HD
ENDBRANCH  26  28
ENDBRANCH  25  26
ENDBRANCH  24  25
ENDBRANCH  23  24
ENDBRANCH  22  23
ENDBRANCH  20  21
ENDBRANCH   2  20
TORSDOF 16
ENDMDL
MODEL 3
REMARK VINA RESULT:      -8.1      2.234      8.855
REMARK  Name = *****
REMARK                            x       y       z     vdW  Elec       q    Type
REMARK                         _______ _______ _______ _____ _____    ______ ____
ROOT
ATOM      1  C   LIG    1       25.624 -22.832   6.563  0.00  0.00    +0.046 C 
ATOM      2  C   LIG    1       26.403 -22.413   7.857  0.00  0.00    +0.031 C 
ATOM      3  C   LIG    1       25.378 -21.578   8.678  0.00  0.00    +0.121 C 
ATOM      4  C   LIG    1       24.283 -21.168   7.711  0.00  0.00    +0.063 C 
ATOM      5  C   LIG    1       24.171 -22.349   6.780  0.00  0.00    +0.124 C 
ENDROOT
BRANCH   5   6
ATOM      6  O   LIG    1       23.541 -21.953   5.572  0.00  0.00    -0.391 OA
ATOM      7  H   LIG    1       23.707 -21.000   5.456  0.00  0.00    +0.210 HD
ENDBRANCH   5   6
BRANCH   3   8
ATOM      8  O   LIG    1       25.915 -20.429   9.304  0.00  0.00    -0.391 OA
ATOM      9  H   LIG    1       25.248 -20.110   9.938  0.00  0.00    +0.210 HD
ENDBRANCH   3   8
BRANCH   1  11
ATOM     10  C   LIG    1       25.249 -24.967   5.162  0.00  0.00    -0.000 C 
ATOM     11  C   LIG    1       25.704 -24.335   6.267  0.00  0.00    -0.022 C 
BRANCH  10  12
ATOM     12  C   LIG    1       25.184 -26.465   4.956  0.00  0.00    +0.137 C 
BRANCH  12  13
ATOM     13  O   LIG    1       26.535 -26.916   4.960  0.00  0.00    -0.388 OA
ATOM     14  H   LIG    1       26.629 -27.612   4.292  0.00  0.00    +0.210 HD
ENDBRANCH  12  13
BRANCH  12  15
ATOM     15  C   LIG    1       24.438 -27.223   6.076  0.00  0.00    +0.035 C 
BRANCH  15  16
ATOM     16  C   LIG    1       24.918 -28.669   6.335  0.00  0.00    +0.003 C 
BRANCH  16  17
ATOM     17  C   LIG    1       25.288 -29.056   7.777  0.00  0.00    -0.000 C 
BRANCH  17  19
ATOM     18  C   LIG    1       26.716 -28.649   9.822  0.00  0.00    +0.004 C 
ATOM     19  C   LIG    1       26.278 -28.110   8.464  0.00  0.00    -0.003 C 
ENDBRANCH  17  19
ENDBRANCH  16  17
ENDBRANCH  15  16
ENDBRANCH  12  15
ENDBRANCH  10  12
ENDBRANCH   1  11
BRANCH   2  20
ATOM     20  C   LIG    1       27.779 -21.698   7.649  0.00  0.00    +0.033 C 
BRANCH  20  21
ATOM     21  C   LIG    1       27.785 -20.585   6.610  0.00  0.00    -0.031 C 
ATOM     22  C   LIG    1       28.647 -19.594   6.283  0.00  0.00    -0.031 C 
BRANCH  22  23
ATOM     23  C   LIG    1       29.958 -19.149   6.900  0.00  0.00    +0.027 C 
BRANCH  23  24
ATOM     24  C   LIG    1       29.961 -18.879   8.440  0.00  0.00    +0.015 C 
BRANCH  24  25
ATOM     25  C   LIG    1       30.561 -17.561   8.942  0.00  0.00    +0.121 C 
BRANCH  25  26
ATOM     26  C   LIG    1       30.424 -17.440  10.475  0.00  0.00    +0.305 C 
ATOM     27  O   LIG    1       30.179 -16.417  11.064  0.00  0.00    -0.251 OA
BRANCH  26  28
ATOM     28  O   LIG    1       30.600 -18.640  11.113  0.00  0.00    -0.481 OA
ATOM     29  H   LIG    1       31.317 -19.195  10.773  0.00  0.00    +0.295 HD
ENDBRANCH  26  28
ENDBRANCH  25  26
ENDBRANCH  24  25
ENDBRANCH  23  24
ENDBRANCH  22  23
ENDBRANCH  20  21
ENDBRANCH   2  20
TORSDOF 16
ENDMDL
MODEL 4
REMARK VINA RESULT:      -7.9      3.072      6.888
REMARK  Name = *****
REMARK                            x       y       z     vdW  Elec       q    Type
REMARK                         _______ _______ _______ _____ _____    ______ ____
ROOT
ATOM      1  C   LIG    1       24.022 -22.496   6.637  0.00  0.00    +0.046 C 
ATOM      2  C   LIG    1       25.477 -23.076   6.673  0.00  0.00    +0.031 C 
ATOM      3  C   LIG    1       25.307 -24.581   6.316  0.00  0.00    +0.121 C 
ATOM      4  C   LIG    1       23.842 -24.912   6.530  0.00  0.00    +0.063 C 
ATOM      5  C   LIG    1       23.129 -23.649   6.120  0.00  0.00    +0.124 C 
ENDROOT
BRANCH   5   6
ATOM      6  O   LIG    1       21.827 -23.625   6.684  0.00  0.00    -0.391 OA
ATOM      7  H   LIG    1       21.845 -24.184   7.481  0.00  0.00    +0.210 HD
ENDBRANCH   5   6
BRANCH   3   8
ATOM      8  O   LIG    1       26.111 -25.465   7.074  0.00  0.00    -0.391 OA
ATOM      9  H   LIG    1       27.035 -25.314   6.805  0.00  0.00    +0.210 HD
ENDBRANCH   3   8
BRANCH   1  11
ATOM     10  C   LIG    1       24.254 -21.090   4.484  0.00  0.00    -0.000 C 
ATOM     11  C   LIG    1       23.895 -21.229   5.781  0.00  0.00    -0.022 C 
BRANCH  10  12
ATOM     12  C   LIG    1       24.278 -19.795   3.702  0.00  0.00    +0.137 C 
BRANCH  12  13
ATOM     13  O   LIG    1       23.211 -19.007   4.220  0.00  0.00    -0.388 OA
ATOM     14  H   LIG    1       22.377 -19.473   4.054  0.00  0.00    +0.210 HD
ENDBRANCH  12  13
BRANCH  12  15
ATOM     15  C   LIG    1       25.580 -18.981   3.871  0.00  0.00    +0.035 C 
BRANCH  15  16
ATOM     16  C   LIG    1       25.594 -17.596   3.186  0.00  0.00    +0.003 C 
BRANCH  16  17
ATOM     17  C   LIG    1       26.770 -16.654   3.494  0.00  0.00    -0.000 C 
BRANCH  17  19
ATOM     18  C   LIG    1       27.649 -14.299   3.757  0.00  0.00    +0.004 C 
ATOM     19  C   LIG    1       26.442 -15.161   3.400  0.00  0.00    -0.003 C 
ENDBRANCH  17  19
ENDBRANCH  16  17
ENDBRANCH  15  16
ENDBRANCH  12  15
ENDBRANCH  10  12
ENDBRANCH   1  11
BRANCH   2  20
ATOM     20  C   LIG    1       26.302 -22.825   7.979  0.00  0.00    +0.033 C 
BRANCH  20  21
ATOM     21  C   LIG    1       26.524 -21.362   8.338  0.00  0.00    -0.031 C 
ATOM     22  C   LIG    1       27.165 -20.326   7.750  0.00  0.00    -0.031 C 
BRANCH  22  23
ATOM     23  C   LIG    1       28.006 -20.238   6.492  0.00  0.00    +0.027 C 
BRANCH  23  24
ATOM     24  C   LIG    1       29.478 -19.736   6.657  0.00  0.00    +0.015 C 
BRANCH  24  25
ATOM     25  C   LIG    1       29.911 -19.208   8.029  0.00  0.00    +0.121 C 
BRANCH  25  26
ATOM     26  C   LIG    1       30.874 -20.197   8.722  0.00  0.00    +0.305 C 
ATOM     27  O   LIG    1       31.988 -19.924   9.093  0.00  0.00    -0.251 OA
BRANCH  26  28
ATOM     28  O   LIG    1       30.320 -21.439   8.887  0.00  0.00    -0.481 OA
ATOM     29  H   LIG    1       30.719 -21.989   9.575  0.00  0.00    +0.295 HD
ENDBRANCH  26  28
ENDBRANCH  25  26
ENDBRANCH  24  25
ENDBRANCH  23  24
ENDBRANCH  22  23
ENDBRANCH  20  21
ENDBRANCH   2  20
TORSDOF 16
ENDMDL
MODEL 5
REMARK VINA RESULT:      -7.9      2.468      8.537
REMARK  Name = *****
REMARK                            x       y       z     vdW  Elec       q    Type
REMARK                         _______ _______ _______ _____ _____    ______ ____
ROOT
ATOM      1  C   LIG    1       25.351 -22.978   6.395  0.00  0.00    +0.046 C 
ATOM      2  C   LIG    1       24.901 -22.323   7.745  0.00  0.00    +0.031 C 
ATOM      3  C   LIG    1       23.512 -21.694   7.432  0.00  0.00    +0.121 C 
ATOM      4  C   LIG    1       23.416 -21.594   5.921  0.00  0.00    +0.063 C 
ATOM      5  C   LIG    1       24.147 -22.820   5.437  0.00  0.00    +0.124 C 
ENDROOT
BRANCH   5   6
ATOM      6  O   LIG    1       24.544 -22.643   4.086  0.00  0.00    -0.391 OA
ATOM      7  H   LIG    1       24.488 -23.512   3.650  0.00  0.00    +0.210 HD
ENDBRANCH   5   6
BRANCH   3   8
ATOM      8  O   LIG    1       23.294 -20.420   8.008  0.00  0.00    -0.391 OA
ATOM      9  H   LIG    1       24.170 -20.021   8.159  0.00  0.00    +0.210 HD
ENDBRANCH   3   8
BRANCH   1  11
ATOM     10  C   LIG    1       25.688 -25.416   5.616  0.00  0.00    -0.000 C 
ATOM     11  C   LIG    1       25.792 -24.439   6.546  0.00  0.00    -0.022 C 
BRANCH  10  12
ATOM     12  C   LIG    1       25.973 -26.886   5.834  0.00  0.00    +0.137 C 
BRANCH  12  13
ATOM     13  O   LIG    1       27.277 -27.111   5.308  0.00  0.00    -0.388 OA
ATOM     14  H   LIG    1       27.492 -28.051   5.411  0.00  0.00    +0.210 HD
ENDBRANCH  12  13
BRANCH  12  15
ATOM     15  C   LIG    1       25.993 -27.310   7.319  0.00  0.00    +0.035 C 
BRANCH  15  16
ATOM     16  C   LIG    1       25.381 -28.696   7.624  0.00  0.00    +0.003 C 
BRANCH  16  17
ATOM     17  C   LIG    1       25.822 -29.408   8.914  0.00  0.00    -0.000 C 
BRANCH  17  19
ATOM     18  C   LIG    1       27.268 -29.422  10.987  0.00  0.00    +0.004 C 
ATOM     19  C   LIG    1       26.759 -28.594   9.811  0.00  0.00    -0.003 C 
ENDBRANCH  17  19
ENDBRANCH  16  17
ENDBRANCH  15  16
ENDBRANCH  12  15
ENDBRANCH  10  12
ENDBRANCH   1  11
BRANCH   2  20
ATOM     20  C   LIG    1       25.907 -21.332   8.417  0.00  0.00    +0.033 C 
BRANCH  20  21
ATOM     21  C   LIG    1       26.568 -20.336   7.474  0.00  0.00    -0.031 C 
ATOM     22  C   LIG    1       27.795 -20.230   6.912  0.00  0.00    -0.031 C 
BRANCH  22  23
ATOM     23  C   LIG    1       29.056 -21.055   7.071  0.00  0.00    +0.027 C 
BRANCH  23  24
ATOM     24  C   LIG    1       30.216 -20.422   7.907  0.00  0.00    +0.015 C 
BRANCH  24  25
ATOM     25  C   LIG    1       30.577 -18.955   7.648  0.00  0.00    +0.121 C 
BRANCH  25  26
ATOM     26  C   LIG    1       31.745 -18.506   8.553  0.00  0.00    +0.305 C 
ATOM     27  O   LIG    1       32.192 -19.152   9.467  0.00  0.00    -0.251 OA
BRANCH  26  28
ATOM     28  O   LIG    1       32.242 -17.279   8.198  0.00  0.00    -0.481 OA
ATOM     29  H   LIG    1       31.829 -16.518   8.629  0.00  0.00    +0.295 HD
ENDBRANCH  26  28
ENDBRANCH  25  26
ENDBRANCH  24  25
ENDBRANCH  23  24
ENDBRANCH  22  23
ENDBRANCH  20  21
ENDBRANCH   2  20
TORSDOF 16
ENDMDL
MODEL 6
REMARK VINA RESULT:      -7.9      2.169      3.236
REMARK  Name = *****
REMARK                            x       y       z     vdW  Elec       q    Type
REMARK                         _______ _______ _______ _____ _____    ______ ____
ROOT
ATOM      1  C   LIG    1       25.862 -19.727   5.055  0.00  0.00    +0.046 C 
ATOM      2  C   LIG    1       24.916 -20.889   5.514  0.00  0.00    +0.031 C 
ATOM      3  C   LIG    1       24.031 -21.188   4.269  0.00  0.00    +0.121 C 
ATOM      4  C   LIG    1       24.148 -19.981   3.357  0.00  0.00    +0.063 C 
ATOM      5  C   LIG    1       25.573 -19.529   3.548  0.00  0.00    +0.124 C 
ENDROOT
BRANCH   5   6
ATOM      6  O   LIG    1       25.709 -18.177   3.140  0.00  0.00    -0.391 OA
ATOM      7  H   LIG    1       25.904 -18.179   2.186  0.00  0.00    +0.210 HD
ENDBRANCH   5   6
BRANCH   3   8
ATOM      8  O   LIG    1       22.668 -21.437   4.557  0.00  0.00    -0.391 OA
ATOM      9  H   LIG    1       22.557 -21.342   5.520  0.00  0.00    +0.210 HD
ENDBRANCH   3   8
BRANCH   1  11
ATOM     10  C   LIG    1       28.052 -19.602   6.416  0.00  0.00    -0.000 C 
ATOM     11  C   LIG    1       27.344 -20.005   5.336  0.00  0.00    -0.022 C 
BRANCH  10  12
ATOM     12  C   LIG    1       29.547 -19.740   6.602  0.00  0.00    +0.137 C 
BRANCH  12  13
ATOM     13  O   LIG    1       30.128 -18.648   5.896  0.00  0.00    -0.388 OA
ATOM     14  H   LIG    1       29.930 -17.830   6.378  0.00  0.00    +0.210 HD
ENDBRANCH  12  13
BRANCH  12  15
ATOM     15  C   LIG    1       30.010 -19.641   8.072  0.00  0.00    +0.035 C 
BRANCH  15  16
ATOM     16  C   LIG    1       31.453 -19.130   8.283  0.00  0.00    +0.003 C 
BRANCH  16  17
ATOM     17  C   LIG    1       31.638 -17.691   8.793  0.00  0.00    -0.000 C 
BRANCH  17  19
ATOM     18  C   LIG    1       30.524 -17.525  11.055  0.00  0.00    +0.004 C 
ATOM     19  C   LIG    1       30.452 -17.131   9.584  0.00  0.00    -0.003 C 
ENDBRANCH  17  19
ENDBRANCH  16  17
ENDBRANCH  15  16
ENDBRANCH  12  15
ENDBRANCH  10  12
ENDBRANCH   1  11
BRANCH   2  20
ATOM     20  C   LIG    1       24.101 -20.656   6.828  0.00  0.00    +0.033 C 
BRANCH  20  21
ATOM     21  C   LIG    1       24.861 -20.919   8.121  0.00  0.00    -0.031 C 
ATOM     22  C   LIG    1       25.903 -21.710   8.468  0.00  0.00    -0.031 C 
BRANCH  22  23
ATOM     23  C   LIG    1       26.699 -22.735   7.686  0.00  0.00    +0.027 C 
BRANCH  23  24
ATOM     24  C   LIG    1       25.978 -24.079   7.340  0.00  0.00    +0.015 C 
BRANCH  24  25
ATOM     25  C   LIG    1       25.224 -24.173   6.009  0.00  0.00    +0.121 C 
BRANCH  25  26
ATOM     26  C   LIG    1       23.887 -24.926   6.184  0.00  0.00    +0.305 C 
ATOM     27  O   LIG    1       23.770 -26.126   6.173  0.00  0.00    -0.251 OA
BRANCH  26  28
ATOM     28  O   LIG    1       22.827 -24.078   6.369  0.00  0.00    -0.481 OA
ATOM     29  H   LIG    1       23.023 -23.259   6.846  0.00  0.00    +0.295 HD
ENDBRANCH  26  28
ENDBRANCH  25  26
ENDBRANCH  24  25
ENDBRANCH  23  24
ENDBRANCH  22  23
ENDBRANCH  20  21
ENDBRANCH   2  20
TORSDOF 16
ENDMDL
MODEL 7
REMARK VINA RESULT:      -7.7      2.044      9.331
REMARK  Name = *****
REMARK                            x       y       z     vdW  Elec       q    Type
REMARK                         _______ _______ _______ _____ _____    ______ ____
ROOT
ATOM      1  C   LIG    1       25.423 -22.515   6.309  0.00  0.00    +0.046 C 
ATOM      2  C   LIG    1       26.305 -22.302   7.586  0.00  0.00    +0.031 C 
ATOM      3  C   LIG    1       25.382 -21.533   8.576  0.00  0.00    +0.121 C 
ATOM      4  C   LIG    1       24.252 -20.952   7.747  0.00  0.00    +0.063 C 
ATOM      5  C   LIG    1       24.015 -21.997   6.687  0.00  0.00    +0.124 C 
ENDROOT
BRANCH   5   6
ATOM      6  O   LIG    1       23.332 -21.421   5.584  0.00  0.00    -0.391 OA
ATOM      7  H   LIG    1       23.940 -21.439   4.824  0.00  0.00    +0.210 HD
ENDBRANCH   5   6
BRANCH   3   8
ATOM      8  O   LIG    1       26.021 -20.499   9.301  0.00  0.00    -0.391 OA
ATOM      9  H   LIG    1       26.949 -20.768   9.426  0.00  0.00    +0.210 HD
ENDBRANCH   3   8
BRANCH   1  11
ATOM     10  C   LIG    1       25.733 -25.067   6.540  0.00  0.00    -0.000 C 
ATOM     11  C   LIG    1       25.401 -23.970   5.823  0.00  0.00    -0.022 C 
BRANCH  10  12
ATOM     12  C   LIG    1       25.866 -26.475   6.003  0.00  0.00    +0.137 C 
BRANCH  12  13
ATOM     13  O   LIG    1       27.230 -26.617   5.617  0.00  0.00    -0.388 OA
ATOM     14  H   LIG    1       27.779 -26.594   6.415  0.00  0.00    +0.210 HD
ENDBRANCH  12  13
BRANCH  12  15
ATOM     15  C   LIG    1       25.561 -27.577   7.041  0.00  0.00    +0.035 C 
BRANCH  15  16
ATOM     16  C   LIG    1       24.441 -28.568   6.651  0.00  0.00    +0.003 C 
BRANCH  16  17
ATOM     17  C   LIG    1       24.463 -29.966   7.292  0.00  0.00    -0.000 C 
BRANCH  17  19
ATOM     18  C   LIG    1       25.701 -31.393   5.612  0.00  0.00    +0.004 C 
ATOM     19  C   LIG    1       24.365 -31.130   6.301  0.00  0.00    -0.003 C 
ENDBRANCH  17  19
ENDBRANCH  16  17
ENDBRANCH  15  16
ENDBRANCH  12  15
ENDBRANCH  10  12
ENDBRANCH   1  11
BRANCH   2  20
ATOM     20  C   LIG    1       27.702 -21.631   7.373  0.00  0.00    +0.033 C 
BRANCH  20  21
ATOM     21  C   LIG    1       27.720 -20.459   6.401  0.00  0.00    -0.031 C 
ATOM     22  C   LIG    1       28.600 -19.469   6.122  0.00  0.00    -0.031 C 
BRANCH  22  23
ATOM     23  C   LIG    1       29.926 -19.087   6.748  0.00  0.00    +0.027 C 
BRANCH  23  24
ATOM     24  C   LIG    1       29.951 -18.904   8.301  0.00  0.00    +0.015 C 
BRANCH  24  25
ATOM     25  C   LIG    1       30.903 -17.858   8.890  0.00  0.00    +0.121 C 
BRANCH  25  26
ATOM     26  C   LIG    1       30.523 -17.526  10.350  0.00  0.00    +0.305 C 
ATOM     27  O   LIG    1       30.132 -16.451  10.730  0.00  0.00    -0.251 OA
BRANCH  26  28
ATOM     28  O   LIG    1       30.667 -18.602  11.187  0.00  0.00    -0.481 OA
ATOM     29  H   LIG    1       31.332 -19.253  10.923  0.00  0.00    +0.295 HD
ENDBRANCH  26  28
ENDBRANCH  25  26
ENDBRANCH  24  25
ENDBRANCH  23  24
ENDBRANCH  22  23
ENDBRANCH  20  21
ENDBRANCH   2  20
TORSDOF 16
ENDMDL
MODEL 8
REMARK VINA RESULT:      -7.6      1.070      1.555
REMARK  Name = *****
REMARK                            x       y       z     vdW  Elec       q    Type
REMARK                         _______ _______ _______ _____ _____    ______ ____
ROOT
ATOM      1  C   LIG    1       26.251 -21.650   7.077  0.00  0.00    +0.046 C 
ATOM      2  C   LIG    1       25.267 -22.027   5.918  0.00  0.00    +0.031 C 
ATOM      3  C   LIG    1       23.943 -21.290   6.273  0.00  0.00    +0.121 C 
ATOM      4  C   LIG    1       24.034 -20.925   7.742  0.00  0.00    +0.063 C 
ATOM      5  C   LIG    1       25.495 -20.612   7.941  0.00  0.00    +0.124 C 
ENDROOT
BRANCH   5   6
ATOM      6  O   LIG    1       25.826 -20.704   9.318  0.00  0.00    -0.391 OA
ATOM      7  H   LIG    1       26.772 -20.488   9.405  0.00  0.00    +0.210 HD
ENDBRANCH   5   6
BRANCH   3   8
ATOM      8  O   LIG    1       22.766 -22.041   6.041  0.00  0.00    -0.391 OA
ATOM      9  H   LIG    1       22.764 -22.286   5.098  0.00  0.00    +0.210 HD
ENDBRANCH   3   8
BRANCH   1  11
ATOM     10  C   LIG    1       27.921 -19.837   6.310  0.00  0.00    -0.000 C 
ATOM     11  C   LIG    1       27.603 -21.124   6.579  0.00  0.00    -0.022 C 
BRANCH  10  12
ATOM     12  C   LIG    1       29.201 -19.353   5.664  0.00  0.00    +0.137 C 
BRANCH  12  13
ATOM     13  O   LIG    1       28.824 -18.268   4.822  0.00  0.00    -0.388 OA
ATOM     14  H   LIG    1       29.580 -18.036   4.261  0.00  0.00    +0.210 HD
ENDBRANCH  12  13
BRANCH  12  15
ATOM     15  C   LIG    1       30.250 -18.821   6.664  0.00  0.00    +0.035 C 
BRANCH  15  16
ATOM     16  C   LIG    1       29.793 -18.764   8.140  0.00  0.00    +0.003 C 
BRANCH  16  17
ATOM     17  C   LIG    1       30.744 -19.328   9.209  0.00  0.00    -0.000 C 
BRANCH  17  19
ATOM     18  C   LIG    1       30.795 -21.853   9.122  0.00  0.00    +0.004 C 
ATOM     19  C   LIG    1       31.537 -20.565   8.778  0.00  0.00    -0.003 C 
ENDBRANCH  17  19
ENDBRANCH  16  17
ENDBRANCH  15  16
ENDBRANCH  12  15
ENDBRANCH  10  12
ENDBRANCH   1  11
BRANCH   2  20
ATOM     20  C   LIG    1       25.082 -23.552   5.620  0.00  0.00    +0.033 C 
BRANCH  20  21
ATOM     21  C   LIG    1       25.624 -24.495   6.686  0.00  0.00    -0.031 C 
ATOM     22  C   LIG    1       25.978 -25.801   6.709  0.00  0.00    -0.031 C 
BRANCH  22  23
ATOM     23  C   LIG    1       25.898 -26.890   5.658  0.00  0.00    +0.027 C 
BRANCH  23  24
ATOM     24  C   LIG    1       24.550 -27.676   5.553  0.00  0.00    +0.015 C 
BRANCH  24  25
ATOM     25  C   LIG    1       24.261 -28.758   6.599  0.00  0.00    +0.121 C 
BRANCH  25  26
ATOM     26  C   LIG    1       24.507 -30.167   6.017  0.00  0.00    +0.305 C 
ATOM     27  O   LIG    1       25.595 -30.647   5.816  0.00  0.00    -0.251 OA
BRANCH  26  28
ATOM     28  O   LIG    1       23.340 -30.837   5.756  0.00  0.00    -0.481 OA
ATOM     29  H   LIG    1       22.996 -31.379   6.479  0.00  0.00    +0.295 HD
ENDBRANCH  26  28
ENDBRANCH  25  26
ENDBRANCH  24  25
ENDBRANCH  23  24
ENDBRANCH  22  23
ENDBRANCH  20  21
ENDBRANCH   2  20
TORSDOF 16
ENDMDL
MODEL 9
REMARK VINA RESULT:      -7.4      1.887      2.630
REMARK  Name = *****
REMARK                            x       y       z     vdW  Elec       q    Type
REMARK                         _______ _______ _______ _____ _____    ______ ____
ROOT
ATOM      1  C   LIG    1       25.892 -19.890   5.356  0.00  0.00    +0.046 C 
ATOM      2  C   LIG    1       24.873 -21.056   5.597  0.00  0.00    +0.031 C 
ATOM      3  C   LIG    1       24.192 -21.273   4.214  0.00  0.00    +0.121 C 
ATOM      4  C   LIG    1       24.466 -20.024   3.399  0.00  0.00    +0.063 C 
ATOM      5  C   LIG    1       25.848 -19.610   3.836  0.00  0.00    +0.124 C 
ENDROOT
BRANCH   5   6
ATOM      6  O   LIG    1       26.062 -18.241   3.527  0.00  0.00    -0.391 OA
ATOM      7  H   LIG    1       26.971 -18.021   3.798  0.00  0.00    +0.210 HD
ENDBRANCH   5   6
BRANCH   3   8
ATOM      8  O   LIG    1       22.798 -21.509   4.270  0.00  0.00    -0.391 OA
ATOM      9  H   LIG    1       22.358 -20.703   3.945  0.00  0.00    +0.210 HD
ENDBRANCH   3   8
BRANCH   1  11
ATOM     10  C   LIG    1       27.727 -20.239   7.138  0.00  0.00    -0.000 C 
ATOM     11  C   LIG    1       27.307 -20.210   5.853  0.00  0.00    -0.022 C 
BRANCH  10  12
ATOM     12  C   LIG    1       29.158 -20.393   7.604  0.00  0.00    +0.137 C 
BRANCH  12  13
ATOM     13  O   LIG    1       29.555 -21.704   7.214  0.00  0.00    -0.388 OA
ATOM     14  H   LIG    1       28.800 -22.301   7.331  0.00  0.00    +0.210 HD
ENDBRANCH  12  13
BRANCH  12  15
ATOM     15  C   LIG    1       30.143 -19.397   6.953  0.00  0.00    +0.035 C 
BRANCH  15  16
ATOM     16  C   LIG    1       30.834 -18.413   7.924  0.00  0.00    +0.003 C 
BRANCH  16  17
ATOM     17  C   LIG    1       30.020 -17.896   9.123  0.00  0.00    -0.000 C 
BRANCH  17  19
ATOM     18  C   LIG    1       32.016 -16.406   9.547  0.00  0.00    +0.004 C 
ATOM     19  C   LIG    1       30.833 -17.137  10.175  0.00  0.00    -0.003 C 
ENDBRANCH  17  19
ENDBRANCH  16  17
ENDBRANCH  15  16
ENDBRANCH  12  15
ENDBRANCH  10  12
ENDBRANCH   1  11
BRANCH   2  20
ATOM     20  C   LIG    1       23.862 -20.874   6.778  0.00  0.00    +0.033 C 
BRANCH  20  21
ATOM     21  C   LIG    1       23.065 -22.116   7.150  0.00  0.00    -0.031 C 
ATOM     22  C   LIG    1       23.279 -23.449   7.049  0.00  0.00    -0.031 C 
BRANCH  22  23
ATOM     23  C   LIG    1       24.408 -24.249   6.432  0.00  0.00    +0.027 C 
BRANCH  23  24
ATOM     24  C   LIG    1       24.073 -25.701   5.960  0.00  0.00    +0.015 C 
BRANCH  24  25
ATOM     25  C   LIG    1       25.105 -26.803   6.224  0.00  0.00    +0.121 C 
BRANCH  25  26
ATOM     26  C   LIG    1       24.429 -28.191   6.276  0.00  0.00    +0.305 C 
ATOM     27  O   LIG    1       24.422 -28.915   7.240  0.00  0.00    -0.251 OA
BRANCH  26  28
ATOM     28  O   LIG    1       23.814 -28.519   5.096  0.00  0.00    -0.481 OA
ATOM     29  H   LIG    1       23.205 -29.270   5.134  0.00  0.00    +0.295 HD
ENDBRANCH  26  28
ENDBRANCH  25  26
ENDBRANCH  24  25
ENDBRANCH  23  24
ENDBRANCH  22  23
ENDBRANCH  20  21
ENDBRANCH   2  20
TORSDOF 16
ENDMDL
