MODEL 1
REMARK VINA RESULT:      -7.8      0.000      0.000
REMARK  Name = *****
REMARK                            x       y       z     vdW  Elec       q    Type
REMARK                         _______ _______ _______ _____ _____    ______ ____
ROOT
ATOM      1  N   LIG    1       29.200 -20.230   6.905  0.00  0.00    -0.308 N 
ATOM      2  H   LIG    1       28.853 -21.094   7.306  0.00  0.00    +0.149 HD
ATOM      3  C   LIG    1       28.400 -19.606   5.966  0.00  0.00    +0.248 C 
ATOM      4  O   LIG    1       28.767 -18.672   5.274  0.00  0.00    -0.270 OA
ENDROOT
BRANCH   3   5
ATOM      5  C   LIG    1       27.013 -20.123   5.824  0.00  0.00    +0.080 A 
ATOM      6  C   LIG    1       26.337 -20.811   6.822  0.00  0.00    +0.138 A 
ATOM      7  O   LIG    1       26.835 -21.073   8.078  0.00  0.00    -0.490 OA
ATOM      8  C   LIG    1       25.894 -21.999   8.657  0.00  0.00    +0.234 C 
ATOM      9  C   LIG    1       24.566 -21.891   7.914  0.00  0.00    +0.081 C 
ATOM     10  C   LIG    1       25.037 -21.279   6.647  0.00  0.00    +0.020 A 
ATOM     11  C   LIG    1       24.350 -21.085   5.455  0.00  0.00    +0.050 A 
ATOM     12  C   LIG    1       25.010 -20.341   4.455  0.00  0.00    +0.063 A 
ATOM     13 CL   LIG    1       24.210 -19.987   2.961  0.00  0.00    -0.082 Cl
ATOM     14  C   LIG    1       26.328 -19.886   4.623  0.00  0.00    +0.038 A 
BRANCH  11  15
ATOM     15  N   LIG    1       22.988 -21.409   5.361  0.00  0.00    -0.356 N 
ATOM     16  H   LIG    1       22.421 -20.729   4.868  0.00  0.00    +0.142 HD
ATOM     17  H   LIG    1       22.586 -21.674   6.259  0.00  0.00    +0.142 HD
ENDBRANCH  11  15
ENDBRANCH   3   5
BRANCH   1  21
ATOM     18  N   LIG    1       30.993 -18.601   9.800  0.00  0.00    -0.302 NA
ATOM     19  C   LIG    1       30.283 -17.874   8.733  0.00  0.00    +0.086 C 
ATOM     20  C   LIG    1       30.754 -18.340   7.357  0.00  0.00    +0.037 C 
ATOM     21  C   LIG    1       30.586 -19.849   7.156  0.00  0.00    +0.076 C 
ATOM     22  C   LIG    1       31.148 -20.610   8.363  0.00  0.00    +0.037 C 
ATOM     23  C   LIG    1       30.682 -20.034   9.702  0.00  0.00    +0.086 C 
BRANCH  18  24
ATOM     24  C   LIG    1       30.660 -18.035  11.122  0.00  0.00    +0.086 C 
BRANCH  24  25
ATOM     25  C   LIG    1       30.882 -16.518  11.204  0.00  0.00    +0.043 C 
BRANCH  25  26
ATOM     26  C   LIG    1       32.072 -16.157  12.087  0.00  0.00    +0.161 C 
BRANCH  26  28
ATOM     27  C   LIG    1       32.372 -15.883  14.414  0.00  0.00    +0.193 C 
ATOM     28  O   LIG    1       31.584 -15.541  13.280  0.00  0.00    -0.383 OA
ENDBRANCH  26  28
ENDBRANCH  25  26
ENDBRANCH  24  25
ENDBRANCH  18  24
ENDBRANCH   1  21
TORSDOF 7
ENDMDL
MODEL 2
REMARK VINA RESULT:      -7.4      3.912      8.020
REMARK  Name = *****
REMARK                            x       y       z     vdW  Elec       q    Type
REMARK                         _______ _______ _______ _____ _____    ______ ____
ROOT
ATOM      1  N   LIG    1       26.467 -22.506   6.789  0.00  0.00    -0.308 N 
ATOM      2  H   LIG    1       27.063 -22.572   5.971  0.00  0.00    +0.149 HD
ATOM      3  C   LIG    1       26.994 -21.886   7.905  0.00  0.00    +0.248 C 
ATOM      4  O   LIG    1       26.466 -21.900   9.003  0.00  0.00    -0.270 OA
ENDROOT
BRANCH   3   5
ATOM      5  C   LIG    1       28.280 -21.162   7.719  0.00  0.00    +0.080 A 
ATOM      6  C   LIG    1       28.466 -20.137   6.801  0.00  0.00    +0.138 A 
ATOM      7  O   LIG    1       27.489 -19.630   5.975  0.00  0.00    -0.490 OA
ATOM      8  C   LIG    1       28.199 -18.774   5.057  0.00  0.00    +0.234 C 
ATOM      9  C   LIG    1       29.542 -18.391   5.668  0.00  0.00    +0.081 C 
ATOM     10  C   LIG    1       29.687 -19.484   6.660  0.00  0.00    +0.020 A 
ATOM     11  C   LIG    1       30.790 -19.833   7.430  0.00  0.00    +0.050 A 
ATOM     12  C   LIG    1       30.596 -20.837   8.400  0.00  0.00    +0.063 A 
ATOM     13 CL   LIG    1       31.891 -21.292   9.456  0.00  0.00    -0.082 Cl
ATOM     14  C   LIG    1       29.370 -21.509   8.531  0.00  0.00    +0.038 A 
BRANCH  11  15
ATOM     15  N   LIG    1       31.955 -19.051   7.394  0.00  0.00    -0.356 N 
ATOM     16  H   LIG    1       32.270 -18.713   8.296  0.00  0.00    +0.142 HD
ATOM     17  H   LIG    1       31.909 -18.311   6.695  0.00  0.00    +0.142 HD
ENDBRANCH  11  15
ENDBRANCH   3   5
BRANCH   1  21
ATOM     18  N   LIG    1       22.973 -21.855   5.516  0.00  0.00    -0.302 NA
ATOM     19  C   LIG    1       23.495 -21.395   6.814  0.00  0.00    +0.086 C 
ATOM     20  C   LIG    1       24.111 -22.557   7.591  0.00  0.00    +0.037 C 
ATOM     21  C   LIG    1       25.221 -23.266   6.807  0.00  0.00    +0.076 C 
ATOM     22  C   LIG    1       24.750 -23.573   5.381  0.00  0.00    +0.037 C 
ATOM     23  C   LIG    1       24.080 -22.375   4.703  0.00  0.00    +0.086 C 
BRANCH  18  24
ATOM     24  C   LIG    1       22.231 -20.771   4.843  0.00  0.00    +0.086 C 
BRANCH  24  25
ATOM     25  C   LIG    1       22.566 -19.377   5.392  0.00  0.00    +0.043 C 
BRANCH  25  26
ATOM     26  C   LIG    1       22.860 -18.376   4.279  0.00  0.00    +0.161 C 
BRANCH  26  28
ATOM     27  C   LIG    1       25.045 -18.787   3.481  0.00  0.00    +0.193 C 
ATOM     28  O   LIG    1       23.656 -19.022   3.284  0.00  0.00    -0.383 OA
ENDBRANCH  26  28
ENDBRANCH  25  26
ENDBRANCH  24  25
ENDBRANCH  18  24
ENDBRANCH   1  21
TORSDOF 7
ENDMDL
MODEL 3
REMARK VINA RESULT:      -7.4      1.639      2.367
REMARK  Name = *****
REMARK                            x       y       z     vdW  Elec       q    Type
REMARK                         _______ _______ _______ _____ _____    ______ ____
ROOT
ATOM      1  N   LIG    1       29.269 -20.126   6.837  0.00  0.00    -0.308 N 
ATOM      2  H   LIG    1       29.061 -20.997   7.313  0.00  0.00    +0.149 HD
ATOM      3  C   LIG    1       28.357 -19.691   5.895  0.00  0.00    +0.248 C 
ATOM      4  O   LIG    1       28.565 -18.770   5.124  0.00  0.00    -0.270 OA
ENDROOT
BRANCH   3   5
ATOM      5  C   LIG    1       27.052 -20.404   5.851  0.00  0.00    +0.080 A 
ATOM      6  C   LIG    1       26.008 -20.057   5.005  0.00  0.00    +0.138 A 
ATOM      7  O   LIG    1       26.048 -19.043   4.075  0.00  0.00    -0.490 OA
ATOM      8  C   LIG    1       24.685 -18.911   3.623  0.00  0.00    +0.234 C 
ATOM      9  C   LIG    1       23.929 -20.198   3.932  0.00  0.00    +0.081 C 
ATOM     10  C   LIG    1       24.802 -20.752   4.997  0.00  0.00    +0.020 A 
ATOM     11  C   LIG    1       24.579 -21.830   5.845  0.00  0.00    +0.050 A 
ATOM     12  C   LIG    1       25.653 -22.222   6.670  0.00  0.00    +0.063 A 
ATOM     13 CL   LIG    1       25.496 -23.596   7.711  0.00  0.00    -0.082 Cl
ATOM     14  C   LIG    1       26.863 -21.509   6.693  0.00  0.00    +0.038 A 
BRANCH  11  15
ATOM     15  N   LIG    1       23.428 -22.620   5.699  0.00  0.00    -0.356 N 
ATOM     16  H   LIG    1       22.948 -22.514   4.813  0.00  0.00    +0.142 HD
ATOM     17  H   LIG    1       22.798 -22.545   6.496  0.00  0.00    +0.142 HD
ENDBRANCH  11  15
ENDBRANCH   3   5
BRANCH   1  21
ATOM     18  N   LIG    1       31.079 -18.477   9.710  0.00  0.00    -0.302 NA
ATOM     19  C   LIG    1       30.152 -17.790   8.794  0.00  0.00    +0.086 C 
ATOM     20  C   LIG    1       30.542 -18.048   7.339  0.00  0.00    +0.037 C 
ATOM     21  C   LIG    1       30.595 -19.541   7.000  0.00  0.00    +0.076 C 
ATOM     22  C   LIG    1       31.397 -20.298   8.065  0.00  0.00    +0.037 C 
ATOM     23  C   LIG    1       30.992 -19.928   9.493  0.00  0.00    +0.086 C 
BRANCH  18  24
ATOM     24  C   LIG    1       30.804 -18.092  11.109  0.00  0.00    +0.086 C 
BRANCH  24  25
ATOM     25  C   LIG    1       30.883 -16.578  11.346  0.00  0.00    +0.043 C 
BRANCH  25  26
ATOM     26  C   LIG    1       32.095 -16.190  12.188  0.00  0.00    +0.161 C 
BRANCH  26  28
ATOM     27  C   LIG    1       32.370 -15.866  14.512  0.00  0.00    +0.193 C 
ATOM     28  O   LIG    1       31.638 -15.495  13.350  0.00  0.00    -0.383 OA
ENDBRANCH  26  28
ENDBRANCH  25  26
ENDBRANCH  24  25
ENDBRANCH  18  24
ENDBRANCH   1  21
TORSDOF 7
ENDMDL
MODEL 4
REMARK VINA RESULT:      -7.0      3.534      7.739
REMARK  Name = *****
REMARK                            x       y       z     vdW  Elec       q    Type
REMARK                         _______ _______ _______ _____ _____    ______ ____
ROOT
ATOM      1  N   LIG    1       26.352 -22.215   6.858  0.00  0.00    -0.308 N 
ATOM      2  H   LIG    1       26.890 -22.270   6.000  0.00  0.00    +0.149 HD
ATOM      3  C   LIG    1       26.969 -21.641   7.953  0.00  0.00    +0.248 C 
ATOM      4  O   LIG    1       26.515 -21.675   9.083  0.00  0.00    -0.270 OA
ENDROOT
BRANCH   3   5
ATOM      5  C   LIG    1       28.257 -20.940   7.700  0.00  0.00    +0.080 A 
ATOM      6  C   LIG    1       29.445 -21.246   8.349  0.00  0.00    +0.138 A 
ATOM      7  O   LIG    1       29.604 -22.251   9.276  0.00  0.00    -0.490 OA
ATOM      8  C   LIG    1       30.914 -22.028   9.833  0.00  0.00    +0.234 C 
ATOM      9  C   LIG    1       31.730 -21.175   8.866  0.00  0.00    +0.081 C 
ATOM     10  C   LIG    1       30.629 -20.564   8.082  0.00  0.00    +0.020 A 
ATOM     11  C   LIG    1       30.679 -19.533   7.151  0.00  0.00    +0.050 A 
ATOM     12  C   LIG    1       29.489 -19.251   6.450  0.00  0.00    +0.063 A 
ATOM     13 CL   LIG    1       29.468 -18.031   5.222  0.00  0.00    -0.082 Cl
ATOM     14  C   LIG    1       28.289 -19.925   6.733  0.00  0.00    +0.038 A 
BRANCH  11  15
ATOM     15  N   LIG    1       31.912 -18.979   6.773  0.00  0.00    -0.356 N 
ATOM     16  H   LIG    1       32.175 -18.141   7.279  0.00  0.00    +0.142 HD
ATOM     17  H   LIG    1       31.999 -18.870   5.764  0.00  0.00    +0.142 HD
ENDBRANCH  11  15
ENDBRANCH   3   5
BRANCH   1  21
ATOM     18  N   LIG    1       22.885 -21.641   5.480  0.00  0.00    -0.302 NA
ATOM     19  C   LIG    1       23.402 -21.056   6.729  0.00  0.00    +0.086 C 
ATOM     20  C   LIG    1       23.988 -22.141   7.630  0.00  0.00    +0.037 C 
ATOM     21  C   LIG    1       25.093 -22.947   6.940  0.00  0.00    +0.076 C 
ATOM     22  C   LIG    1       24.632 -23.394   5.547  0.00  0.00    +0.037 C 
ATOM     23  C   LIG    1       23.992 -22.262   4.739  0.00  0.00    +0.086 C 
BRANCH  18  24
ATOM     24  C   LIG    1       22.171 -20.620   4.687  0.00  0.00    +0.086 C 
BRANCH  24  25
ATOM     25  C   LIG    1       22.565 -19.183   5.055  0.00  0.00    +0.043 C 
BRANCH  25  26
ATOM     26  C   LIG    1       23.242 -18.457   3.897  0.00  0.00    +0.161 C 
BRANCH  26  28
ATOM     27  C   LIG    1       25.514 -18.109   3.352  0.00  0.00    +0.193 C 
ATOM     28  O   LIG    1       24.510 -19.070   3.654  0.00  0.00    -0.383 OA
ENDBRANCH  26  28
ENDBRANCH  25  26
ENDBRANCH  24  25
ENDBRANCH  18  24
ENDBRANCH   1  21
TORSDOF 7
ENDMDL
MODEL 5
REMARK VINA RESULT:      -7.0      6.942      9.578
REMARK  Name = *****
REMARK                            x       y       z     vdW  Elec       q    Type
REMARK                         _______ _______ _______ _____ _____    ______ ____
ROOT
ATOM      1  N   LIG    1       25.046 -27.304   6.928  0.00  0.00    -0.308 N 
ATOM      2  H   LIG    1       25.120 -26.952   7.876  0.00  0.00    +0.149 HD
ATOM      3  C   LIG    1       25.038 -28.676   6.765  0.00  0.00    +0.248 C 
ATOM      4  O   LIG    1       25.140 -29.233   5.686  0.00  0.00    -0.270 OA
ENDROOT
BRANCH   3   5
ATOM      5  C   LIG    1       24.886 -29.493   7.999  0.00  0.00    +0.080 A 
ATOM      6  C   LIG    1       25.577 -29.250   9.178  0.00  0.00    +0.138 A 
ATOM      7  O   LIG    1       26.458 -28.211   9.378  0.00  0.00    -0.490 OA
ATOM      8  C   LIG    1       27.091 -28.509  10.639  0.00  0.00    +0.234 C 
ATOM      9  C   LIG    1       26.211 -29.477  11.423  0.00  0.00    +0.081 C 
ATOM     10  C   LIG    1       25.405 -30.039  10.312  0.00  0.00    +0.020 A 
ATOM     11  C   LIG    1       24.532 -31.121  10.318  0.00  0.00    +0.050 A 
ATOM     12  C   LIG    1       23.788 -31.343   9.141  0.00  0.00    +0.063 A 
ATOM     13 CL   LIG    1       22.624 -32.623   9.074  0.00  0.00    -0.082 Cl
ATOM     14  C   LIG    1       23.975 -30.559   7.991  0.00  0.00    +0.038 A 
BRANCH  11  15
ATOM     15  N   LIG    1       24.245 -31.793  11.516  0.00  0.00    -0.356 N 
ATOM     16  H   LIG    1       24.506 -31.293  12.358  0.00  0.00    +0.142 HD
ATOM     17  H   LIG    1       24.579 -32.755  11.514  0.00  0.00    +0.142 HD
ENDBRANCH  11  15
ENDBRANCH   3   5
BRANCH   1  21
ATOM     18  N   LIG    1       24.731 -23.557   6.595  0.00  0.00    -0.302 NA
ATOM     19  C   LIG    1       23.607 -24.507   6.518  0.00  0.00    +0.086 C 
ATOM     20  C   LIG    1       23.903 -25.612   5.506  0.00  0.00    +0.037 C 
ATOM     21  C   LIG    1       25.199 -26.367   5.820  0.00  0.00    +0.076 C 
ATOM     22  C   LIG    1       26.335 -25.376   6.099  0.00  0.00    +0.037 C 
ATOM     23  C   LIG    1       25.931 -24.262   7.067  0.00  0.00    +0.086 C 
BRANCH  18  24
ATOM     24  C   LIG    1       24.376 -22.403   7.445  0.00  0.00    +0.086 C 
BRANCH  24  25
ATOM     25  C   LIG    1       25.309 -21.199   7.249  0.00  0.00    +0.043 C 
BRANCH  25  26
ATOM     26  C   LIG    1       25.927 -20.731   8.563  0.00  0.00    +0.161 C 
BRANCH  26  28
ATOM     27  C   LIG    1       28.029 -21.294   7.645  0.00  0.00    +0.193 C 
ATOM     28  O   LIG    1       27.159 -21.428   8.761  0.00  0.00    -0.383 OA
ENDBRANCH  26  28
ENDBRANCH  25  26
ENDBRANCH  24  25
ENDBRANCH  18  24
ENDBRANCH   1  21
TORSDOF 7
ENDMDL
MODEL 6
REMARK VINA RESULT:      -7.0      4.592      9.323
REMARK  Name = *****
REMARK                            x       y       z     vdW  Elec       q    Type
REMARK                         _______ _______ _______ _____ _____    ______ ____
ROOT
ATOM      1  N   LIG    1       26.285 -22.496   6.719  0.00  0.00    -0.308 N 
ATOM      2  H   LIG    1       26.891 -22.615   5.915  0.00  0.00    +0.149 HD
ATOM      3  C   LIG    1       26.814 -21.841   7.815  0.00  0.00    +0.248 C 
ATOM      4  O   LIG    1       26.270 -21.791   8.904  0.00  0.00    -0.270 OA
ENDROOT
BRANCH   3   5
ATOM      5  C   LIG    1       28.122 -21.161   7.617  0.00  0.00    +0.080 A 
ATOM      6  C   LIG    1       28.333 -20.141   6.700  0.00  0.00    +0.138 A 
ATOM      7  O   LIG    1       27.366 -19.598   5.885  0.00  0.00    -0.490 OA
ATOM      8  C   LIG    1       28.095 -18.765   4.962  0.00  0.00    +0.234 C 
ATOM      9  C   LIG    1       29.457 -18.430   5.559  0.00  0.00    +0.081 C 
ATOM     10  C   LIG    1       29.575 -19.530   6.547  0.00  0.00    +0.020 A 
ATOM     11  C   LIG    1       30.674 -19.919   7.304  0.00  0.00    +0.050 A 
ATOM     12  C   LIG    1       30.455 -20.919   8.274  0.00  0.00    +0.063 A 
ATOM     13 CL   LIG    1       31.745 -21.422   9.314  0.00  0.00    -0.082 Cl
ATOM     14  C   LIG    1       29.208 -21.549   8.416  0.00  0.00    +0.038 A 
BRANCH  11  15
ATOM     15  N   LIG    1       31.865 -19.178   7.257  0.00  0.00    -0.356 N 
ATOM     16  H   LIG    1       32.097 -18.691   8.115  0.00  0.00    +0.142 HD
ATOM     17  H   LIG    1       31.918 -18.575   6.438  0.00  0.00    +0.142 HD
ENDBRANCH  11  15
ENDBRANCH   3   5
BRANCH   1  21
ATOM     18  N   LIG    1       25.153 -25.868   5.457  0.00  0.00    -0.302 NA
ATOM     19  C   LIG    1       25.199 -24.639   4.647  0.00  0.00    +0.086 C 
ATOM     20  C   LIG    1       24.464 -23.500   5.352  0.00  0.00    +0.037 C 
ATOM     21  C   LIG    1       25.019 -23.220   6.753  0.00  0.00    +0.076 C 
ATOM     22  C   LIG    1       25.162 -24.529   7.538  0.00  0.00    +0.037 C 
ATOM     23  C   LIG    1       25.844 -25.637   6.733  0.00  0.00    +0.086 C 
BRANCH  18  24
ATOM     24  C   LIG    1       25.714 -27.007   4.702  0.00  0.00    +0.086 C 
BRANCH  24  25
ATOM     25  C   LIG    1       25.483 -28.360   5.389  0.00  0.00    +0.043 C 
BRANCH  25  26
ATOM     26  C   LIG    1       24.002 -28.711   5.484  0.00  0.00    +0.161 C 
BRANCH  26  28
ATOM     27  C   LIG    1       24.600 -30.938   5.996  0.00  0.00    +0.193 C 
ATOM     28  O   LIG    1       23.849 -29.800   6.397  0.00  0.00    -0.383 OA
ENDBRANCH  26  28
ENDBRANCH  25  26
ENDBRANCH  24  25
ENDBRANCH  18  24
ENDBRANCH   1  21
TORSDOF 7
ENDMDL
MODEL 7
REMARK VINA RESULT:      -6.8      7.497     10.570
REMARK  Name = *****
REMARK                            x       y       z     vdW  Elec       q    Type
REMARK                         _______ _______ _______ _____ _____    ______ ____
ROOT
ATOM      1  N   LIG    1       25.413 -28.132   7.236  0.00  0.00    -0.308 N 
ATOM      2  H   LIG    1       25.600 -27.502   8.009  0.00  0.00    +0.149 HD
ATOM      3  C   LIG    1       25.143 -29.450   7.550  0.00  0.00    +0.248 C 
ATOM      4  O   LIG    1       25.083 -30.346   6.726  0.00  0.00    -0.270 OA
ENDROOT
BRANCH   3   5
ATOM      5  C   LIG    1       24.909 -29.759   8.986  0.00  0.00    +0.080 A 
ATOM      6  C   LIG    1       25.879 -29.640   9.972  0.00  0.00    +0.138 A 
ATOM      7  O   LIG    1       27.163 -29.191   9.767  0.00  0.00    -0.490 OA
ATOM      8  C   LIG    1       27.848 -29.470  11.005  0.00  0.00    +0.234 C 
ATOM      9  C   LIG    1       26.819 -29.633  12.119  0.00  0.00    +0.081 C 
ATOM     10  C   LIG    1       25.616 -29.939  11.306  0.00  0.00    +0.020 A 
ATOM     11  C   LIG    1       24.365 -30.381  11.719  0.00  0.00    +0.050 A 
ATOM     12  C   LIG    1       23.360 -30.454  10.733  0.00  0.00    +0.063 A 
ATOM     13 CL   LIG    1       21.750 -30.925  11.162  0.00  0.00    -0.082 Cl
ATOM     14  C   LIG    1       23.628 -30.171   9.383  0.00  0.00    +0.038 A 
BRANCH  11  15
ATOM     15  N   LIG    1       24.074 -30.509  13.086  0.00  0.00    -0.356 N 
ATOM     16  H   LIG    1       24.843 -30.843  13.655  0.00  0.00    +0.142 HD
ATOM     17  H   LIG    1       23.211 -31.022  13.256  0.00  0.00    +0.142 HD
ENDBRANCH  11  15
ENDBRANCH   3   5
BRANCH   1  21
ATOM     18  N   LIG    1       25.122 -24.795   5.495  0.00  0.00    -0.302 NA
ATOM     19  C   LIG    1       24.015 -25.751   5.673  0.00  0.00    +0.086 C 
ATOM     20  C   LIG    1       24.418 -27.140   5.182  0.00  0.00    +0.037 C 
ATOM     21  C   LIG    1       25.676 -27.669   5.878  0.00  0.00    +0.076 C 
ATOM     22  C   LIG    1       26.774 -26.599   5.872  0.00  0.00    +0.037 C 
ATOM     23  C   LIG    1       26.269 -25.222   6.308  0.00  0.00    +0.086 C 
BRANCH  18  24
ATOM     24  C   LIG    1       24.677 -23.424   5.811  0.00  0.00    +0.086 C 
BRANCH  24  25
ATOM     25  C   LIG    1       23.488 -23.382   6.781  0.00  0.00    +0.043 C 
BRANCH  25  26
ATOM     26  C   LIG    1       23.185 -21.965   7.259  0.00  0.00    +0.161 C 
BRANCH  26  28
ATOM     27  C   LIG    1       22.864 -20.165   5.764  0.00  0.00    +0.193 C 
ATOM     28  O   LIG    1       23.809 -21.040   6.367  0.00  0.00    -0.383 OA
ENDBRANCH  26  28
ENDBRANCH  25  26
ENDBRANCH  24  25
ENDBRANCH  18  24
ENDBRANCH   1  21
TORSDOF 7
ENDMDL
MODEL 8
REMARK VINA RESULT:      -6.8      7.154      9.799
REMARK  Name = *****
REMARK                            x       y       z     vdW  Elec       q    Type
REMARK                         _______ _______ _______ _____ _____    ______ ____
ROOT
ATOM      1  N   LIG    1       25.487 -27.336   7.324  0.00  0.00    -0.308 N 
ATOM      2  H   LIG    1       25.841 -26.832   8.130  0.00  0.00    +0.149 HD
ATOM      3  C   LIG    1       25.330 -28.703   7.455  0.00  0.00    +0.248 C 
ATOM      4  O   LIG    1       25.093 -29.451   6.523  0.00  0.00    -0.270 OA
ENDROOT
BRANCH   3   5
ATOM      5  C   LIG    1       25.457 -29.259   8.829  0.00  0.00    +0.080 A 
ATOM      6  C   LIG    1       24.445 -29.951   9.480  0.00  0.00    +0.138 A 
ATOM      7  O   LIG    1       23.215 -30.247   8.939  0.00  0.00    -0.490 OA
ATOM      8  C   LIG    1       22.441 -30.746  10.048  0.00  0.00    +0.234 C 
ATOM      9  C   LIG    1       23.387 -31.211  11.149  0.00  0.00    +0.081 C 
ATOM     10  C   LIG    1       24.606 -30.456  10.768  0.00  0.00    +0.020 A 
ATOM     11  C   LIG    1       25.792 -30.286  11.472  0.00  0.00    +0.050 A 
ATOM     12  C   LIG    1       26.842 -29.630  10.798  0.00  0.00    +0.063 A 
ATOM     13 CL   LIG    1       28.382 -29.431  11.566  0.00  0.00    -0.082 Cl
ATOM     14  C   LIG    1       26.675 -29.103   9.506  0.00  0.00    +0.038 A 
BRANCH  11  15
ATOM     15  N   LIG    1       25.993 -30.948  12.692  0.00  0.00    -0.356 N 
ATOM     16  H   LIG    1       25.511 -30.538  13.484  0.00  0.00    +0.142 HD
ATOM     17  H   LIG    1       26.977 -31.126  12.884  0.00  0.00    +0.142 HD
ENDBRANCH  11  15
ENDBRANCH   3   5
BRANCH   1  21
ATOM     18  N   LIG    1       24.686 -23.788   6.314  0.00  0.00    -0.302 NA
ATOM     19  C   LIG    1       23.684 -24.837   6.569  0.00  0.00    +0.086 C 
ATOM     20  C   LIG    1       24.000 -26.094   5.762  0.00  0.00    +0.037 C 
ATOM     21  C   LIG    1       25.404 -26.639   6.046  0.00  0.00    +0.076 C 
ATOM     22  C   LIG    1       26.436 -25.506   5.976  0.00  0.00    +0.037 C 
ATOM     23  C   LIG    1       26.007 -24.260   6.753  0.00  0.00    +0.086 C 
BRANCH  18  24
ATOM     24  C   LIG    1       24.288 -22.522   6.961  0.00  0.00    +0.086 C 
BRANCH  24  25
ATOM     25  C   LIG    1       25.303 -22.030   8.002  0.00  0.00    +0.043 C 
BRANCH  25  26
ATOM     26  C   LIG    1       25.762 -20.601   7.726  0.00  0.00    +0.161 C 
BRANCH  26  28
ATOM     27  C   LIG    1       28.097 -20.246   7.691  0.00  0.00    +0.193 C 
ATOM     28  O   LIG    1       26.934 -20.341   8.502  0.00  0.00    -0.383 OA
ENDBRANCH  26  28
ENDBRANCH  25  26
ENDBRANCH  24  25
ENDBRANCH  18  24
ENDBRANCH   1  21
TORSDOF 7
ENDMDL
MODEL 9
REMARK VINA RESULT:      -6.8      7.508     10.647
REMARK  Name = *****
REMARK                            x       y       z     vdW  Elec       q    Type
REMARK                         _______ _______ _______ _____ _____    ______ ____
ROOT
ATOM      1  N   LIG    1       25.583 -28.024   7.257  0.00  0.00    -0.308 N 
ATOM      2  H   LIG    1       25.986 -27.421   7.966  0.00  0.00    +0.149 HD
ATOM      3  C   LIG    1       25.276 -29.319   7.632  0.00  0.00    +0.248 C 
ATOM      4  O   LIG    1       24.964 -30.197   6.847  0.00  0.00    -0.270 OA
ENDROOT
BRANCH   3   5
ATOM      5  C   LIG    1       25.332 -29.621   9.087  0.00  0.00    +0.080 A 
ATOM      6  C   LIG    1       24.254 -30.099   9.820  0.00  0.00    +0.138 A 
ATOM      7  O   LIG    1       23.013 -30.392   9.302  0.00  0.00    -0.490 OA
ATOM      8  C   LIG    1       22.181 -30.616  10.457  0.00  0.00    +0.234 C 
ATOM      9  C   LIG    1       23.066 -30.944  11.655  0.00  0.00    +0.081 C 
ATOM     10  C   LIG    1       24.350 -30.370  11.183  0.00  0.00    +0.020 A 
ATOM     11  C   LIG    1       25.533 -30.168  11.882  0.00  0.00    +0.050 A 
ATOM     12  C   LIG    1       26.646 -29.733  11.135  0.00  0.00    +0.063 A 
ATOM     13 CL   LIG    1       28.183 -29.519  11.904  0.00  0.00    -0.082 Cl
ATOM     14  C   LIG    1       26.546 -29.440   9.765  0.00  0.00    +0.038 A 
BRANCH  11  15
ATOM     15  N   LIG    1       25.656 -30.609  13.209  0.00  0.00    -0.356 N 
ATOM     16  H   LIG    1       24.921 -30.295  13.832  0.00  0.00    +0.142 HD
ATOM     17  H   LIG    1       26.587 -30.448  13.590  0.00  0.00    +0.142 HD
ENDBRANCH  11  15
ENDBRANCH   3   5
BRANCH   1  21
ATOM     18  N   LIG    1       25.083 -24.677   5.587  0.00  0.00    -0.302 NA
ATOM     19  C   LIG    1       23.997 -25.586   5.990  0.00  0.00    +0.086 C 
ATOM     20  C   LIG    1       24.237 -26.990   5.438  0.00  0.00    +0.037 C 
ATOM     21  C   LIG    1       25.587 -27.571   5.871  0.00  0.00    +0.076 C 
ATOM     22  C   LIG    1       26.703 -26.547   5.636  0.00  0.00    +0.037 C 
ATOM     23  C   LIG    1       26.352 -25.151   6.156  0.00  0.00    +0.086 C 
BRANCH  18  24
ATOM     24  C   LIG    1       24.767 -23.288   5.977  0.00  0.00    +0.086 C 
BRANCH  24  25
ATOM     25  C   LIG    1       23.518 -23.178   6.862  0.00  0.00    +0.043 C 
BRANCH  25  26
ATOM     26  C   LIG    1       23.233 -21.738   7.279  0.00  0.00    +0.161 C 
BRANCH  26  28
ATOM     27  C   LIG    1       22.814 -20.090   5.639  0.00  0.00    +0.193 C 
ATOM     28  O   LIG    1       23.805 -20.861   6.307  0.00  0.00    -0.383 OA
ENDBRANCH  26  28
ENDBRANCH  25  26
ENDBRANCH  24  25
ENDBRANCH  18  24
ENDBRANCH   1  21
TORSDOF 7
ENDMDL
