MODEL 1
REMARK VINA RESULT:      -4.8      0.000      0.000
REMARK  Name = *****
REMARK                            x       y       z     vdW  Elec       q    Type
REMARK                         _______ _______ _______ _____ _____    ______ ____
ROOT
ATOM      1  C   LIG    1       21.849 -15.475   6.076  0.00  0.00    +0.024 C 
ATOM      2  C   LIG    1       22.762 -16.104   5.018  0.00  0.00    +0.055 C 
ENDROOT
BRANCH   2   3
ATOM      3  N   LIG    1       23.102 -15.129   3.951  0.00  0.00    -0.312 NA
ATOM      4  H   LIG    1       22.262 -14.613   3.684  0.00  0.00    +0.122 HD
BRANCH   3   5
ATOM      5  C   LIG    1       24.178 -14.193   4.324  0.00  0.00    +0.096 C 
BRANCH   5   6
ATOM      6  C   LIG    1       24.585 -13.307   3.143  0.00  0.00    +0.133 C 
BRANCH   6   7
ATOM      7  C   LIG    1       25.822 -13.801   2.517  0.00  0.00    +0.064 C 
ATOM      8  N   LIG    1       26.796 -14.203   2.025  0.00  0.00    -0.197 NA
ENDBRANCH   6   7
ENDBRANCH   5   6
ENDBRANCH   3   5
ENDBRANCH   2   3
BRANCH   2   9
ATOM      9  C   LIG    1       22.062 -17.339   4.379  0.00  0.00    +0.053 C 
BRANCH   9  10
ATOM     10  C   LIG    1       22.857 -18.633   4.411  0.00  0.00    -0.046 A 
ATOM     11  C   LIG    1       24.021 -18.770   3.639  0.00  0.00    +0.003 A 
ATOM     12  C   LIG    1       24.779 -19.945   3.685  0.00  0.00    +0.000 A 
ATOM     13  C   LIG    1       24.382 -21.000   4.501  0.00  0.00    +0.000 A 
ATOM     14  C   LIG    1       23.227 -20.881   5.271  0.00  0.00    +0.000 A 
ATOM     15  C   LIG    1       22.471 -19.704   5.230  0.00  0.00    +0.003 A 
ENDBRANCH   9  10
ENDBRANCH   2   9
TORSDOF 6
ENDMDL
MODEL 2
REMARK VINA RESULT:      -4.7      2.627      6.242
REMARK  Name = *****
REMARK                            x       y       z     vdW  Elec       q    Type
REMARK                         _______ _______ _______ _____ _____    ______ ____
ROOT
ATOM      1  C   LIG    1       26.098 -19.688   4.358  0.00  0.00    +0.024 C 
ATOM      2  C   LIG    1       25.135 -18.535   4.053  0.00  0.00    +0.055 C 
ENDROOT
BRANCH   2   3
ATOM      3  N   LIG    1       23.848 -19.038   3.509  0.00  0.00    -0.312 NA
ATOM      4  H   LIG    1       23.969 -20.000   3.189  0.00  0.00    +0.122 HD
BRANCH   3   5
ATOM      5  C   LIG    1       22.728 -18.956   4.464  0.00  0.00    +0.096 C 
BRANCH   5   6
ATOM      6  C   LIG    1       22.297 -20.344   4.944  0.00  0.00    +0.133 C 
BRANCH   6   7
ATOM      7  C   LIG    1       23.067 -20.754   6.129  0.00  0.00    +0.064 C 
ATOM      8  N   LIG    1       23.686 -21.071   7.062  0.00  0.00    -0.197 NA
ENDBRANCH   6   7
ENDBRANCH   5   6
ENDBRANCH   3   5
ENDBRANCH   2   3
BRANCH   2   9
ATOM      9  C   LIG    1       25.781 -17.561   3.025  0.00  0.00    +0.053 C 
BRANCH   9  10
ATOM     10  C   LIG    1       25.953 -16.129   3.497  0.00  0.00    -0.046 A 
ATOM     11  C   LIG    1       24.831 -15.321   3.743  0.00  0.00    +0.003 A 
ATOM     12  C   LIG    1       24.977 -14.011   4.209  0.00  0.00    +0.000 A 
ATOM     13  C   LIG    1       26.247 -13.488   4.434  0.00  0.00    +0.000 A 
ATOM     14  C   LIG    1       27.371 -14.275   4.193  0.00  0.00    +0.000 A 
ATOM     15  C   LIG    1       27.226 -15.588   3.732  0.00  0.00    +0.003 A 
ENDBRANCH   9  10
ENDBRANCH   2   9
TORSDOF 6
ENDMDL
MODEL 3
REMARK VINA RESULT:      -4.7      2.659      6.475
REMARK  Name = *****
REMARK                            x       y       z     vdW  Elec       q    Type
REMARK                         _______ _______ _______ _____ _____    ______ ____
ROOT
ATOM      1  C   LIG    1       28.143 -17.335   4.508  0.00  0.00    +0.024 C 
ATOM      2  C   LIG    1       26.857 -16.674   3.998  0.00  0.00    +0.055 C 
ENDROOT
BRANCH   2   3
ATOM      3  N   LIG    1       26.171 -17.531   2.998  0.00  0.00    -0.312 NA
ATOM      4  H   LIG    1       26.833 -18.215   2.628  0.00  0.00    +0.122 HD
BRANCH   3   5
ATOM      5  C   LIG    1       24.975 -18.214   3.523  0.00  0.00    +0.096 C 
BRANCH   5   6
ATOM      6  C   LIG    1       25.163 -19.733   3.553  0.00  0.00    +0.133 C 
BRANCH   6   7
ATOM      7  C   LIG    1       25.696 -20.172   4.852  0.00  0.00    +0.064 C 
ATOM      8  N   LIG    1       26.129 -20.521   5.874  0.00  0.00    -0.197 NA
ENDBRANCH   6   7
ENDBRANCH   5   6
ENDBRANCH   3   5
ENDBRANCH   2   3
BRANCH   2   9
ATOM      9  C   LIG    1       27.189 -15.297   3.352  0.00  0.00    +0.053 C 
BRANCH   9  10
ATOM     10  C   LIG    1       26.040 -14.306   3.296  0.00  0.00    -0.046 A 
ATOM     11  C   LIG    1       25.150 -14.187   4.375  0.00  0.00    +0.003 A 
ATOM     12  C   LIG    1       24.107 -13.255   4.348  0.00  0.00    +0.000 A 
ATOM     13  C   LIG    1       23.938 -12.430   3.240  0.00  0.00    +0.000 A 
ATOM     14  C   LIG    1       24.810 -12.538   2.159  0.00  0.00    +0.000 A 
ATOM     15  C   LIG    1       25.857 -13.466   2.188  0.00  0.00    +0.003 A 
ENDBRANCH   9  10
ENDBRANCH   2   9
TORSDOF 6
ENDMDL
MODEL 4
REMARK VINA RESULT:      -4.5      2.799      6.233
REMARK  Name = *****
REMARK                            x       y       z     vdW  Elec       q    Type
REMARK                         _______ _______ _______ _____ _____    ______ ____
ROOT
ATOM      1  C   LIG    1       24.058 -17.785   3.846  0.00  0.00    +0.024 C 
ATOM      2  C   LIG    1       25.459 -17.918   3.237  0.00  0.00    +0.055 C 
ENDROOT
BRANCH   2   3
ATOM      3  N   LIG    1       26.114 -19.179   3.665  0.00  0.00    -0.312 NA
ATOM      4  H   LIG    1       26.936 -18.959   4.230  0.00  0.00    +0.122 HD
BRANCH   3   5
ATOM      5  C   LIG    1       25.221 -20.092   4.401  0.00  0.00    +0.096 C 
BRANCH   5   6
ATOM      6  C   LIG    1       25.826 -20.508   5.745  0.00  0.00    +0.133 C 
BRANCH   6   7
ATOM      7  C   LIG    1       27.251 -20.146   5.815  0.00  0.00    +0.064 C 
ATOM      8  N   LIG    1       28.374 -19.848   5.869  0.00  0.00    -0.197 NA
ENDBRANCH   6   7
ENDBRANCH   5   6
ENDBRANCH   3   5
ENDBRANCH   2   3
BRANCH   2   9
ATOM      9  C   LIG    1       26.341 -16.710   3.669  0.00  0.00    +0.053 C 
BRANCH   9  10
ATOM     10  C   LIG    1       25.757 -15.337   3.386  0.00  0.00    -0.046 A 
ATOM     11  C   LIG    1       24.560 -14.934   4.000  0.00  0.00    +0.003 A 
ATOM     12  C   LIG    1       24.030 -13.659   3.772  0.00  0.00    +0.000 A 
ATOM     13  C   LIG    1       24.688 -12.771   2.926  0.00  0.00    +0.000 A 
ATOM     14  C   LIG    1       25.874 -13.157   2.306  0.00  0.00    +0.000 A 
ATOM     15  C   LIG    1       26.409 -14.430   2.538  0.00  0.00    +0.003 A 
ENDBRANCH   9  10
ENDBRANCH   2   9
TORSDOF 6
ENDMDL
MODEL 5
REMARK VINA RESULT:      -4.4      1.722      2.496
REMARK  Name = *****
REMARK                            x       y       z     vdW  Elec       q    Type
REMARK                         _______ _______ _______ _____ _____    ______ ____
ROOT
ATOM      1  C   LIG    1       24.230 -15.836   3.989  0.00  0.00    +0.024 C 
ATOM      2  C   LIG    1       25.567 -16.557   3.788  0.00  0.00    +0.055 C 
ENDROOT
BRANCH   2   3
ATOM      3  N   LIG    1       26.492 -15.754   2.949  0.00  0.00    -0.312 NA
ATOM      4  H   LIG    1       25.950 -15.198   2.286  0.00  0.00    +0.122 HD
BRANCH   3   5
ATOM      5  C   LIG    1       27.393 -14.883   3.726  0.00  0.00    +0.096 C 
BRANCH   5   6
ATOM      6  C   LIG    1       27.346 -13.437   3.225  0.00  0.00    +0.133 C 
BRANCH   6   7
ATOM      7  C   LIG    1       26.072 -13.157   2.545  0.00  0.00    +0.064 C 
ATOM      8  N   LIG    1       25.066 -12.945   1.999  0.00  0.00    -0.197 NA
ENDBRANCH   6   7
ENDBRANCH   5   6
ENDBRANCH   3   5
ENDBRANCH   2   3
BRANCH   2   9
ATOM      9  C   LIG    1       25.329 -17.938   3.109  0.00  0.00    +0.053 C 
BRANCH   9  10
ATOM     10  C   LIG    1       24.552 -18.949   3.935  0.00  0.00    -0.046 A 
ATOM     11  C   LIG    1       25.223 -19.981   4.610  0.00  0.00    +0.003 A 
ATOM     12  C   LIG    1       24.521 -20.898   5.399  0.00  0.00    +0.000 A 
ATOM     13  C   LIG    1       23.138 -20.798   5.523  0.00  0.00    +0.000 A 
ATOM     14  C   LIG    1       22.457 -19.781   4.857  0.00  0.00    +0.000 A 
ATOM     15  C   LIG    1       23.159 -18.859   4.072  0.00  0.00    +0.003 A 
ENDBRANCH   9  10
ENDBRANCH   2   9
TORSDOF 6
ENDMDL
MODEL 6
REMARK VINA RESULT:      -4.3      1.933      2.852
REMARK  Name = *****
REMARK                            x       y       z     vdW  Elec       q    Type
REMARK                         _______ _______ _______ _____ _____    ______ ____
ROOT
ATOM      1  C   LIG    1       24.519 -15.562   3.715  0.00  0.00    +0.024 C 
ATOM      2  C   LIG    1       25.746 -16.480   3.764  0.00  0.00    +0.055 C 
ENDROOT
BRANCH   2   3
ATOM      3  N   LIG    1       26.915 -15.853   3.098  0.00  0.00    -0.312 NA
ATOM      4  H   LIG    1       27.179 -16.410   2.283  0.00  0.00    +0.122 HD
BRANCH   3   5
ATOM      5  C   LIG    1       26.692 -14.450   2.704  0.00  0.00    +0.096 C 
BRANCH   5   6
ATOM      6  C   LIG    1       27.626 -13.500   3.458  0.00  0.00    +0.133 C 
BRANCH   6   7
ATOM      7  C   LIG    1       27.280 -13.447   4.887  0.00  0.00    +0.064 C 
ATOM      8  N   LIG    1       27.016 -13.414   6.020  0.00  0.00    -0.197 NA
ENDBRANCH   6   7
ENDBRANCH   5   6
ENDBRANCH   3   5
ENDBRANCH   2   3
BRANCH   2   9
ATOM      9  C   LIG    1       25.423 -17.834   3.068  0.00  0.00    +0.053 C 
BRANCH   9  10
ATOM     10  C   LIG    1       24.606 -18.816   3.889  0.00  0.00    -0.046 A 
ATOM     11  C   LIG    1       25.232 -19.892   4.539  0.00  0.00    +0.003 A 
ATOM     12  C   LIG    1       24.495 -20.784   5.325  0.00  0.00    +0.000 A 
ATOM     13  C   LIG    1       23.120 -20.614   5.469  0.00  0.00    +0.000 A 
ATOM     14  C   LIG    1       22.484 -19.554   4.828  0.00  0.00    +0.000 A 
ATOM     15  C   LIG    1       23.222 -18.658   4.047  0.00  0.00    +0.003 A 
ENDBRANCH   9  10
ENDBRANCH   2   9
TORSDOF 6
ENDMDL
MODEL 7
REMARK VINA RESULT:      -4.2      3.552      6.510
REMARK  Name = *****
REMARK                            x       y       z     vdW  Elec       q    Type
REMARK                         _______ _______ _______ _____ _____    ______ ____
ROOT
ATOM      1  C   LIG    1       25.371 -17.172   3.363  0.00  0.00    +0.024 C 
ATOM      2  C   LIG    1       26.883 -16.921   3.378  0.00  0.00    +0.055 C 
ENDROOT
BRANCH   2   3
ATOM      3  N   LIG    1       27.592 -17.946   4.184  0.00  0.00    -0.312 NA
ATOM      4  H   LIG    1       27.867 -18.721   3.579  0.00  0.00    +0.122 HD
BRANCH   3   5
ATOM      5  C   LIG    1       28.765 -17.424   4.908  0.00  0.00    +0.096 C 
BRANCH   5   6
ATOM      6  C   LIG    1       29.475 -18.529   5.697  0.00  0.00    +0.133 C 
BRANCH   6   7
ATOM      7  C   LIG    1       28.539 -19.606   6.052  0.00  0.00    +0.064 C 
ATOM      8  N   LIG    1       27.789 -20.451   6.330  0.00  0.00    -0.197 NA
ENDBRANCH   6   7
ENDBRANCH   5   6
ENDBRANCH   3   5
ENDBRANCH   2   3
BRANCH   2   9
ATOM      9  C   LIG    1       27.181 -15.510   3.965  0.00  0.00    +0.053 C 
BRANCH   9  10
ATOM     10  C   LIG    1       26.160 -14.434   3.637  0.00  0.00    -0.046 A 
ATOM     11  C   LIG    1       26.117 -13.863   2.355  0.00  0.00    +0.003 A 
ATOM     12  C   LIG    1       25.160 -12.895   2.033  0.00  0.00    +0.000 A 
ATOM     13  C   LIG    1       24.235 -12.482   2.988  0.00  0.00    +0.000 A 
ATOM     14  C   LIG    1       24.267 -13.037   4.265  0.00  0.00    +0.000 A 
ATOM     15  C   LIG    1       25.220 -14.010   4.587  0.00  0.00    +0.003 A 
ENDBRANCH   9  10
ENDBRANCH   2   9
TORSDOF 6
ENDMDL
MODEL 8
REMARK VINA RESULT:      -4.2      2.535      6.020
REMARK  Name = *****
REMARK                            x       y       z     vdW  Elec       q    Type
REMARK                         _______ _______ _______ _____ _____    ______ ____
ROOT
ATOM      1  C   LIG    1       26.895 -19.612   4.775  0.00  0.00    +0.024 C 
ATOM      2  C   LIG    1       25.589 -18.994   4.263  0.00  0.00    +0.055 C 
ENDROOT
BRANCH   2   3
ATOM      3  N   LIG    1       24.645 -20.041   3.796  0.00  0.00    -0.312 NA
ATOM      4  H   LIG    1       25.115 -20.641   3.115  0.00  0.00    +0.122 HD
BRANCH   3   5
ATOM      5  C   LIG    1       24.077 -20.856   4.885  0.00  0.00    +0.096 C 
BRANCH   5   6
ATOM      6  C   LIG    1       22.587 -20.563   5.087  0.00  0.00    +0.133 C 
BRANCH   6   7
ATOM      7  C   LIG    1       22.269 -19.176   4.717  0.00  0.00    +0.064 C 
ATOM      8  N   LIG    1       22.007 -18.079   4.431  0.00  0.00    -0.197 NA
ENDBRANCH   6   7
ENDBRANCH   5   6
ENDBRANCH   3   5
ENDBRANCH   2   3
BRANCH   2   9
ATOM      9  C   LIG    1       25.888 -18.015   3.091  0.00  0.00    +0.053 C 
BRANCH   9  10
ATOM     10  C   LIG    1       26.017 -16.551   3.475  0.00  0.00    -0.046 A 
ATOM     11  C   LIG    1       24.871 -15.765   3.671  0.00  0.00    +0.003 A 
ATOM     12  C   LIG    1       24.977 -14.424   4.057  0.00  0.00    +0.000 A 
ATOM     13  C   LIG    1       26.231 -13.851   4.250  0.00  0.00    +0.000 A 
ATOM     14  C   LIG    1       27.378 -14.617   4.057  0.00  0.00    +0.000 A 
ATOM     15  C   LIG    1       27.273 -15.960   3.677  0.00  0.00    +0.003 A 
ENDBRANCH   9  10
ENDBRANCH   2   9
TORSDOF 6
ENDMDL
MODEL 9
REMARK VINA RESULT:      -4.1      3.048      4.383
REMARK  Name = *****
REMARK                            x       y       z     vdW  Elec       q    Type
REMARK                         _______ _______ _______ _____ _____    ______ ____
ROOT
ATOM      1  C   LIG    1       29.018 -19.015   5.858  0.00  0.00    +0.024 C 
ATOM      2  C   LIG    1       27.807 -19.731   5.249  0.00  0.00    +0.055 C 
ENDROOT
BRANCH   2   3
ATOM      3  N   LIG    1       26.949 -18.786   4.489  0.00  0.00    -0.312 NA
ATOM      4  H   LIG    1       26.092 -18.608   5.017  0.00  0.00    +0.122 HD
BRANCH   3   5
ATOM      5  C   LIG    1       27.616 -17.515   4.157  0.00  0.00    +0.096 C 
BRANCH   5   6
ATOM      6  C   LIG    1       26.652 -16.536   3.480  0.00  0.00    +0.133 C 
BRANCH   6   7
ATOM      7  C   LIG    1       27.144 -15.153   3.589  0.00  0.00    +0.064 C 
ATOM      8  N   LIG    1       27.535 -14.060   3.663  0.00  0.00    -0.197 NA
ENDBRANCH   6   7
ENDBRANCH   5   6
ENDBRANCH   3   5
ENDBRANCH   2   3
BRANCH   2   9
ATOM      9  C   LIG    1       26.963 -20.397   6.375  0.00  0.00    +0.053 C 
BRANCH   9  10
ATOM     10  C   LIG    1       25.502 -20.642   6.042  0.00  0.00    -0.046 A 
ATOM     11  C   LIG    1       24.533 -20.647   7.058  0.00  0.00    +0.003 A 
ATOM     12  C   LIG    1       23.180 -20.840   6.760  0.00  0.00    +0.000 A 
ATOM     13  C   LIG    1       22.777 -21.032   5.441  0.00  0.00    +0.000 A 
ATOM     14  C   LIG    1       23.726 -21.033   4.422  0.00  0.00    +0.000 A 
ATOM     15  C   LIG    1       25.080 -20.834   4.719  0.00  0.00    +0.003 A 
ENDBRANCH   9  10
ENDBRANCH   2   9
TORSDOF 6
ENDMDL
