MODEL 1
REMARK VINA RESULT:      -6.3      0.000      0.000
REMARK  Name = *****
REMARK                            x       y       z     vdW  Elec       q    Type
REMARK                         _______ _______ _______ _____ _____    ______ ____
ROOT
ATOM      1  O   LIG    1       29.850 -18.095   6.309  0.00  0.00    -0.276 OA
ATOM      2  C   LIG    1       30.000 -19.194   6.831  0.00  0.00    +0.216 C 
ATOM      3  N   LIG    1       29.193 -20.283   6.521  0.00  0.00    -0.298 N 
ATOM      4  C   LIG    1       29.057 -21.487   7.362  0.00  0.00    +0.127 C 
ATOM      5  C   LIG    1       27.687 -21.495   8.069  0.00  0.00    +0.127 C 
ATOM      6  N   LIG    1       26.605 -21.316   7.088  0.00  0.00    -0.298 N 
ATOM      7  C   LIG    1       25.716 -22.356   6.857  0.00  0.00    +0.216 C 
ATOM      8  O   LIG    1       25.693 -23.366   7.559  0.00  0.00    -0.276 OA
ATOM      9  C   LIG    1       26.746 -20.108   6.254  0.00  0.00    +0.127 C 
ATOM     10  C   LIG    1       28.108 -20.121   5.542  0.00  0.00    +0.127 C 
ENDROOT
BRANCH   7  11
ATOM     11  C   LIG    1       24.788 -22.203   5.667  0.00  0.00    +0.107 C 
BRANCH  11  12
ATOM     12  C   LIG    1       23.363 -21.929   6.102  0.00  0.00    +0.089 C 
ATOM     13 BR   LIG    1       22.845 -20.144   5.510  0.00  0.00    -0.091 Br
ENDBRANCH  11  12
ENDBRANCH   7  11
BRANCH   2  14
ATOM     14  C   LIG    1       31.118 -19.457   7.827  0.00  0.00    +0.107 C 
BRANCH  14  15
ATOM     15  C   LIG    1       31.624 -18.182   8.468  0.00  0.00    +0.089 C 
ATOM     16 BR   LIG    1       30.378 -17.635   9.869  0.00  0.00    -0.091 Br
ENDBRANCH  14  15
ENDBRANCH   2  14
TORSDOF 4
ENDMDL
MODEL 2
REMARK VINA RESULT:      -6.1      1.686      6.271
REMARK  Name = *****
REMARK                            x       y       z     vdW  Elec       q    Type
REMARK                         _______ _______ _______ _____ _____    ______ ____
ROOT
ATOM      1  O   LIG    1       23.050 -21.373   8.031  0.00  0.00    -0.276 OA
ATOM      2  C   LIG    1       23.585 -21.388   6.929  0.00  0.00    +0.216 C 
ATOM      3  N   LIG    1       24.938 -21.660   6.761  0.00  0.00    -0.298 N 
ATOM      4  C   LIG    1       25.714 -21.319   5.554  0.00  0.00    +0.127 C 
ATOM      5  C   LIG    1       26.652 -20.128   5.837  0.00  0.00    +0.127 C 
ATOM      6  N   LIG    1       27.471 -20.395   7.029  0.00  0.00    -0.298 N 
ATOM      7  C   LIG    1       28.844 -20.549   6.892  0.00  0.00    +0.216 C 
ATOM      8  O   LIG    1       29.427 -20.307   5.836  0.00  0.00    -0.276 OA
ATOM      9  C   LIG    1       26.688 -20.730   8.233  0.00  0.00    +0.127 C 
ATOM     10  C   LIG    1       25.772 -21.929   7.942  0.00  0.00    +0.127 C 
ENDROOT
BRANCH   7  11
ATOM     11  C   LIG    1       29.593 -21.066   8.104  0.00  0.00    +0.107 C 
BRANCH  11  12
ATOM     12  C   LIG    1       30.816 -20.224   8.407  0.00  0.00    +0.089 C 
ATOM     13 BR   LIG    1       30.255 -18.400   8.810  0.00  0.00    -0.091 Br
ENDBRANCH  11  12
ENDBRANCH   7  11
BRANCH   2  14
ATOM     14  C   LIG    1       22.792 -21.153   5.655  0.00  0.00    +0.107 C 
BRANCH  14  15
ATOM     15  C   LIG    1       22.511 -19.683   5.419  0.00  0.00    +0.089 C 
ATOM     16 BR   LIG    1       23.465 -19.101   3.817  0.00  0.00    -0.091 Br
ENDBRANCH  14  15
ENDBRANCH   2  14
TORSDOF 4
ENDMDL
MODEL 3
REMARK VINA RESULT:      -6.1      1.786      5.974
REMARK  Name = *****
REMARK                            x       y       z     vdW  Elec       q    Type
REMARK                         _______ _______ _______ _____ _____    ______ ____
ROOT
ATOM      1  O   LIG    1       25.575 -20.462   4.184  0.00  0.00    -0.276 OA
ATOM      2  C   LIG    1       25.520 -20.726   5.379  0.00  0.00    +0.216 C 
ATOM      3  N   LIG    1       26.475 -20.279   6.286  0.00  0.00    -0.298 N 
ATOM      4  C   LIG    1       26.691 -20.861   7.624  0.00  0.00    +0.127 C 
ATOM      5  C   LIG    1       27.994 -21.686   7.646  0.00  0.00    +0.127 C 
ATOM      6  N   LIG    1       29.118 -20.878   7.148  0.00  0.00    -0.298 N 
ATOM      7  C   LIG    1       30.142 -20.527   8.016  0.00  0.00    +0.216 C 
ATOM      8  O   LIG    1       30.234 -21.002   9.147  0.00  0.00    -0.276 OA
ATOM      9  C   LIG    1       28.897 -20.304   5.808  0.00  0.00    +0.127 C 
ATOM     10  C   LIG    1       27.605 -19.471   5.805  0.00  0.00    +0.127 C 
ENDROOT
BRANCH   7  11
ATOM     11  C   LIG    1       31.134 -19.495   7.513  0.00  0.00    +0.107 C 
BRANCH  11  12
ATOM     12  C   LIG    1       31.728 -18.690   8.650  0.00  0.00    +0.089 C 
ATOM     13 BR   LIG    1       30.386 -17.444   9.323  0.00  0.00    -0.091 Br
ENDBRANCH  11  12
ENDBRANCH   7  11
BRANCH   2  14
ATOM     14  C   LIG    1       24.370 -21.527   5.966  0.00  0.00    +0.107 C 
BRANCH  14  15
ATOM     15  C   LIG    1       23.262 -20.637   6.489  0.00  0.00    +0.089 C 
ATOM     16 BR   LIG    1       22.522 -19.603   5.006  0.00  0.00    -0.091 Br
ENDBRANCH  14  15
ENDBRANCH   2  14
TORSDOF 4
ENDMDL
MODEL 4
REMARK VINA RESULT:      -6.1      2.090      5.973
REMARK  Name = *****
REMARK                            x       y       z     vdW  Elec       q    Type
REMARK                         _______ _______ _______ _____ _____    ______ ____
ROOT
ATOM      1  O   LIG    1       25.355 -20.809   4.716  0.00  0.00    -0.276 OA
ATOM      2  C   LIG    1       25.423 -20.954   5.930  0.00  0.00    +0.216 C 
ATOM      3  N   LIG    1       26.448 -20.401   6.691  0.00  0.00    -0.298 N 
ATOM      4  C   LIG    1       26.809 -20.843   8.051  0.00  0.00    +0.127 C 
ATOM      5  C   LIG    1       28.131 -21.636   8.024  0.00  0.00    +0.127 C 
ATOM      6  N   LIG    1       29.178 -20.861   7.342  0.00  0.00    -0.298 N 
ATOM      7  C   LIG    1       30.271 -20.405   8.066  0.00  0.00    +0.216 C 
ATOM      8  O   LIG    1       30.484 -20.764   9.223  0.00  0.00    -0.276 OA
ATOM      9  C   LIG    1       28.812 -20.427   5.981  0.00  0.00    +0.127 C 
ATOM     10  C   LIG    1       27.502 -19.623   6.024  0.00  0.00    +0.127 C 
ENDROOT
BRANCH   7  11
ATOM     11  C   LIG    1       31.179 -19.410   7.370  0.00  0.00    +0.107 C 
BRANCH  11  12
ATOM     12  C   LIG    1       31.807 -18.443   8.353  0.00  0.00    +0.089 C 
ATOM     13 BR   LIG    1       30.402 -17.390   9.203  0.00  0.00    -0.091 Br
ENDBRANCH  11  12
ENDBRANCH   7  11
BRANCH   2  14
ATOM     14  C   LIG    1       24.359 -21.715   6.703  0.00  0.00    +0.107 C 
BRANCH  14  15
ATOM     15  C   LIG    1       24.161 -23.119   6.172  0.00  0.00    +0.089 C 
ATOM     16 BR   LIG    1       25.642 -24.242   6.774  0.00  0.00    -0.091 Br
ENDBRANCH  14  15
ENDBRANCH   2  14
TORSDOF 4
ENDMDL
MODEL 5
REMARK VINA RESULT:      -5.9      2.108      2.656
REMARK  Name = *****
REMARK                            x       y       z     vdW  Elec       q    Type
REMARK                         _______ _______ _______ _____ _____    ______ ____
ROOT
ATOM      1  O   LIG    1       29.754 -21.461   8.427  0.00  0.00    -0.276 OA
ATOM      2  C   LIG    1       29.244 -20.659   7.654  0.00  0.00    +0.216 C 
ATOM      3  N   LIG    1       27.867 -20.503   7.542  0.00  0.00    -0.298 N 
ATOM      4  C   LIG    1       27.189 -19.869   6.397  0.00  0.00    +0.127 C 
ATOM      5  C   LIG    1       26.487 -20.936   5.531  0.00  0.00    +0.127 C 
ATOM      6  N   LIG    1       25.612 -21.775   6.364  0.00  0.00    -0.298 N 
ATOM      7  C   LIG    1       24.238 -21.719   6.180  0.00  0.00    +0.216 C 
ATOM      8  O   LIG    1       23.728 -21.119   5.234  0.00  0.00    -0.276 OA
ATOM      9  C   LIG    1       26.298 -22.409   7.505  0.00  0.00    +0.127 C 
ATOM     10  C   LIG    1       26.978 -21.334   8.368  0.00  0.00    +0.127 C 
ENDROOT
BRANCH   7  11
ATOM     11  C   LIG    1       23.385 -22.410   7.226  0.00  0.00    +0.107 C 
BRANCH  11  12
ATOM     12  C   LIG    1       22.675 -23.622   6.657  0.00  0.00    +0.089 C 
ATOM     13 BR   LIG    1       23.988 -25.013   6.275  0.00  0.00    -0.091 Br
ENDBRANCH  11  12
ENDBRANCH   7  11
BRANCH   2  14
ATOM     14  C   LIG    1       30.089 -19.739   6.788  0.00  0.00    +0.107 C 
BRANCH  14  15
ATOM     15  C   LIG    1       31.215 -19.094   7.569  0.00  0.00    +0.089 C 
ATOM     16 BR   LIG    1       30.455 -17.884   8.902  0.00  0.00    -0.091 Br
ENDBRANCH  14  15
ENDBRANCH   2  14
TORSDOF 4
ENDMDL
MODEL 6
REMARK VINA RESULT:      -5.7      4.744      6.473
REMARK  Name = *****
REMARK                            x       y       z     vdW  Elec       q    Type
REMARK                         _______ _______ _______ _____ _____    ______ ____
ROOT
ATOM      1  O   LIG    1       25.538 -20.484   7.053  0.00  0.00    -0.276 OA
ATOM      2  C   LIG    1       24.483 -21.098   6.946  0.00  0.00    +0.216 C 
ATOM      3  N   LIG    1       24.366 -22.443   7.281  0.00  0.00    -0.298 N 
ATOM      4  C   LIG    1       23.276 -23.325   6.825  0.00  0.00    +0.127 C 
ATOM      5  C   LIG    1       23.793 -24.304   5.751  0.00  0.00    +0.127 C 
ATOM      6  N   LIG    1       24.983 -25.016   6.240  0.00  0.00    -0.298 N 
ATOM      7  C   LIG    1       24.915 -26.384   6.464  0.00  0.00    +0.216 C 
ATOM      8  O   LIG    1       23.947 -27.057   6.113  0.00  0.00    -0.276 OA
ATOM      9  C   LIG    1       26.070 -24.128   6.690  0.00  0.00    +0.127 C 
ATOM     10  C   LIG    1       25.547 -23.170   7.772  0.00  0.00    +0.127 C 
ENDROOT
BRANCH   7  11
ATOM     11  C   LIG    1       26.085 -27.010   7.198  0.00  0.00    +0.107 C 
BRANCH  11  12
ATOM     12  C   LIG    1       25.727 -28.368   7.767  0.00  0.00    +0.089 C 
ATOM     13 BR   LIG    1       26.573 -28.576   9.512  0.00  0.00    -0.091 Br
ENDBRANCH  11  12
ENDBRANCH   7  11
BRANCH   2  14
ATOM     14  C   LIG    1       23.208 -20.417   6.479  0.00  0.00    +0.107 C 
BRANCH  14  15
ATOM     15  C   LIG    1       23.143 -20.297   4.971  0.00  0.00    +0.089 C 
ATOM     16 BR   LIG    1       22.297 -18.599   4.502  0.00  0.00    -0.091 Br
ENDBRANCH  14  15
ENDBRANCH   2  14
TORSDOF 4
ENDMDL
MODEL 7
REMARK VINA RESULT:      -5.7      1.921      2.499
REMARK  Name = *****
REMARK                            x       y       z     vdW  Elec       q    Type
REMARK                         _______ _______ _______ _____ _____    ______ ____
ROOT
ATOM      1  O   LIG    1       30.997 -20.321   9.428  0.00  0.00    -0.276 OA
ATOM      2  C   LIG    1       30.766 -19.437   8.612  0.00  0.00    +0.216 C 
ATOM      3  N   LIG    1       29.503 -19.239   8.064  0.00  0.00    -0.298 N 
ATOM      4  C   LIG    1       29.240 -18.482   6.826  0.00  0.00    +0.127 C 
ATOM      5  C   LIG    1       28.877 -19.444   5.676  0.00  0.00    +0.127 C 
ATOM      6  N   LIG    1       27.783 -20.338   6.084  0.00  0.00    -0.298 N 
ATOM      7  C   LIG    1       26.548 -20.232   5.460  0.00  0.00    +0.216 C 
ATOM      8  O   LIG    1       26.377 -19.533   4.462  0.00  0.00    -0.276 OA
ATOM      9  C   LIG    1       28.055 -21.094   7.321  0.00  0.00    +0.127 C 
ATOM     10  C   LIG    1       28.397 -20.123   8.462  0.00  0.00    +0.127 C 
ENDROOT
BRANCH   7  11
ATOM     11  C   LIG    1       25.401 -20.999   6.090  0.00  0.00    +0.107 C 
BRANCH  11  12
ATOM     12  C   LIG    1       24.298 -21.277   5.089  0.00  0.00    +0.089 C 
ATOM     13 BR   LIG    1       22.812 -20.057   5.419  0.00  0.00    -0.091 Br
ENDBRANCH  11  12
ENDBRANCH   7  11
BRANCH   2  14
ATOM     14  C   LIG    1       31.842 -18.459   8.171  0.00  0.00    +0.107 C 
BRANCH  14  15
ATOM     15  C   LIG    1       32.234 -17.502   9.278  0.00  0.00    +0.089 C 
ATOM     16 BR   LIG    1       30.623 -16.925  10.220  0.00  0.00    -0.091 Br
ENDBRANCH  14  15
ENDBRANCH   2  14
TORSDOF 4
ENDMDL
MODEL 8
REMARK VINA RESULT:      -5.7      1.860      6.243
REMARK  Name = *****
REMARK                            x       y       z     vdW  Elec       q    Type
REMARK                         _______ _______ _______ _____ _____    ______ ____
ROOT
ATOM      1  O   LIG    1       26.411 -20.581   5.430  0.00  0.00    -0.276 OA
ATOM      2  C   LIG    1       26.735 -21.131   6.475  0.00  0.00    +0.216 C 
ATOM      3  N   LIG    1       27.651 -20.573   7.360  0.00  0.00    -0.298 N 
ATOM      4  C   LIG    1       28.367 -21.326   8.406  0.00  0.00    +0.127 C 
ATOM      5  C   LIG    1       29.845 -21.520   8.011  0.00  0.00    +0.127 C 
ATOM      6  N   LIG    1       30.456 -20.226   7.671  0.00  0.00    -0.298 N 
ATOM      7  C   LIG    1       31.460 -19.713   8.481  0.00  0.00    +0.216 C 
ATOM      8  O   LIG    1       31.976 -20.373   9.381  0.00  0.00    -0.276 OA
ATOM      9  C   LIG    1       29.738 -19.481   6.621  0.00  0.00    +0.127 C 
ATOM     10  C   LIG    1       28.271 -19.279   7.035  0.00  0.00    +0.127 C 
ENDROOT
BRANCH   7  11
ATOM     11  C   LIG    1       31.870 -18.276   8.223  0.00  0.00    +0.107 C 
BRANCH  11  12
ATOM     12  C   LIG    1       32.071 -17.511   9.516  0.00  0.00    +0.089 C 
ATOM     13 BR   LIG    1       30.364 -17.371  10.449  0.00  0.00    -0.091 Br
ENDBRANCH  11  12
ENDBRANCH   7  11
BRANCH   2  14
ATOM     14  C   LIG    1       26.118 -22.453   6.904  0.00  0.00    +0.107 C 
BRANCH  14  15
ATOM     15  C   LIG    1       24.970 -22.865   6.007  0.00  0.00    +0.089 C 
ATOM     16 BR   LIG    1       23.284 -22.522   6.933  0.00  0.00    -0.091 Br
ENDBRANCH  14  15
ENDBRANCH   2  14
TORSDOF 4
ENDMDL
MODEL 9
REMARK VINA RESULT:      -5.6      1.348      1.429
REMARK  Name = *****
REMARK                            x       y       z     vdW  Elec       q    Type
REMARK                         _______ _______ _______ _____ _____    ______ ____
ROOT
ATOM      1  O   LIG    1       30.015 -18.056   6.212  0.00  0.00    -0.276 OA
ATOM      2  C   LIG    1       30.177 -19.065   6.887  0.00  0.00    +0.216 C 
ATOM      3  N   LIG    1       29.420 -20.216   6.701  0.00  0.00    -0.298 N 
ATOM      4  C   LIG    1       29.285 -21.296   7.696  0.00  0.00    +0.127 C 
ATOM      5  C   LIG    1       27.886 -21.259   8.343  0.00  0.00    +0.127 C 
ATOM      6  N   LIG    1       26.843 -21.258   7.306  0.00  0.00    -0.298 N 
ATOM      7  C   LIG    1       25.999 -22.353   7.187  0.00  0.00    +0.216 C 
ATOM      8  O   LIG    1       25.977 -23.256   8.022  0.00  0.00    -0.276 OA
ATOM      9  C   LIG    1       26.981 -20.172   6.318  0.00  0.00    +0.127 C 
ATOM     10  C   LIG    1       28.373 -20.233   5.668  0.00  0.00    +0.127 C 
ENDROOT
BRANCH   7  11
ATOM     11  C   LIG    1       25.119 -22.401   5.953  0.00  0.00    +0.107 C 
BRANCH  11  12
ATOM     12  C   LIG    1       25.062 -23.795   5.362  0.00  0.00    +0.089 C 
ATOM     13 BR   LIG    1       23.761 -24.859   6.353  0.00  0.00    -0.091 Br
ENDBRANCH  11  12
ENDBRANCH   7  11
BRANCH   2  14
ATOM     14  C   LIG    1       31.257 -19.146   7.953  0.00  0.00    +0.107 C 
BRANCH  14  15
ATOM     15  C   LIG    1       31.538 -17.798   8.586  0.00  0.00    +0.089 C 
ATOM     16 BR   LIG    1       30.457 -17.616  10.203  0.00  0.00    -0.091 Br
ENDBRANCH  14  15
ENDBRANCH   2  14
TORSDOF 4
ENDMDL
