MODEL 1
REMARK VINA RESULT:      -7.0      0.000      0.000
REMARK  Name = *****
REMARK                            x       y       z     vdW  Elec       q    Type
REMARK                         _______ _______ _______ _____ _____    ______ ____
ROOT
ATOM      1  O   LIG    1       32.224 -21.454   9.515  0.00  0.00    -0.223 OA
ATOM      2  C   LIG    1       31.409 -21.019   8.715  0.00  0.00    +0.419 C 
ATOM      3  O   LIG    1       31.613 -19.873   7.933  0.00  0.00    -0.408 OA
ATOM      4  C   LIG    1       30.435 -19.798   7.209  0.00  0.00    +0.157 A 
ATOM      5  C   LIG    1       29.559 -20.820   7.515  0.00  0.00    +0.089 A 
ATOM      6  C   LIG    1       28.325 -20.954   6.924  0.00  0.00    +0.049 A 
ATOM      7  C   LIG    1       27.985 -19.985   5.978  0.00  0.00    +0.043 A 
ATOM      8  C   LIG    1       28.869 -18.934   5.653  0.00  0.00    +0.023 A 
ATOM      9 CL   LIG    1       26.458 -20.074   5.188  0.00  0.00    -0.084 Cl
ATOM     10  C   LIG    1       30.118 -18.834   6.278  0.00  0.00    +0.050 A 
ATOM     11  N   LIG    1       30.180 -21.582   8.461  0.00  0.00    -0.288 N 
ATOM     12  H   LIG    1       29.841 -22.412   8.919  0.00  0.00    +0.172 HD
ENDROOT
TORSDOF 0
ENDMDL
MODEL 2
REMARK VINA RESULT:      -6.6      4.885      5.899
REMARK  Name = *****
REMARK                            x       y       z     vdW  Elec       q    Type
REMARK                         _______ _______ _______ _____ _____    ______ ____
ROOT
ATOM      1  O   LIG    1       27.031 -20.030   8.756  0.00  0.00    -0.223 OA
ATOM      2  C   LIG    1       26.313 -20.904   8.294  0.00  0.00    +0.419 C 
ATOM      3  O   LIG    1       24.927 -20.774   8.132  0.00  0.00    -0.408 OA
ATOM      4  C   LIG    1       24.579 -21.999   7.587  0.00  0.00    +0.157 A 
ATOM      5  C   LIG    1       25.667 -22.833   7.421  0.00  0.00    +0.089 A 
ATOM      6  C   LIG    1       25.568 -24.101   6.898  0.00  0.00    +0.049 A 
ATOM      7  C   LIG    1       24.288 -24.520   6.534  0.00  0.00    +0.043 A 
ATOM      8  C   LIG    1       23.165 -23.681   6.697  0.00  0.00    +0.023 A 
ATOM      9 CL   LIG    1       24.071 -26.095   5.872  0.00  0.00    -0.084 Cl
ATOM     10  C   LIG    1       23.308 -22.395   7.233  0.00  0.00    +0.050 A 
ATOM     11  N   LIG    1       26.751 -22.136   7.867  0.00  0.00    -0.288 N 
ATOM     12  H   LIG    1       27.714 -22.428   7.899  0.00  0.00    +0.172 HD
ENDROOT
TORSDOF 0
ENDMDL
MODEL 3
REMARK VINA RESULT:      -6.4      6.311      7.191
REMARK  Name = *****
REMARK                            x       y       z     vdW  Elec       q    Type
REMARK                         _______ _______ _______ _____ _____    ______ ____
ROOT
ATOM      1  O   LIG    1       25.055 -27.535   5.568  0.00  0.00    -0.223 OA
ATOM      2  C   LIG    1       24.888 -26.392   5.967  0.00  0.00    +0.419 C 
ATOM      3  O   LIG    1       23.642 -25.753   6.017  0.00  0.00    -0.408 OA
ATOM      4  C   LIG    1       23.970 -24.508   6.528  0.00  0.00    +0.157 A 
ATOM      5  C   LIG    1       25.321 -24.377   6.777  0.00  0.00    +0.089 A 
ATOM      6  C   LIG    1       25.884 -23.230   7.285  0.00  0.00    +0.049 A 
ATOM      7  C   LIG    1       25.007 -22.175   7.543  0.00  0.00    +0.043 A 
ATOM      8  C   LIG    1       23.623 -22.292   7.294  0.00  0.00    +0.023 A 
ATOM      9 CL   LIG    1       25.625 -20.699   8.179  0.00  0.00    -0.084 Cl
ATOM     10  C   LIG    1       23.089 -23.478   6.777  0.00  0.00    +0.050 A 
ATOM     11  N   LIG    1       25.890 -25.566   6.422  0.00  0.00    -0.288 N 
ATOM     12  H   LIG    1       26.859 -25.835   6.467  0.00  0.00    +0.172 HD
ENDROOT
TORSDOF 0
ENDMDL
MODEL 4
REMARK VINA RESULT:      -6.4      2.972      3.966
REMARK  Name = *****
REMARK                            x       y       z     vdW  Elec       q    Type
REMARK                         _______ _______ _______ _____ _____    ______ ____
ROOT
ATOM      1  O   LIG    1       29.991 -19.887   6.550  0.00  0.00    -0.223 OA
ATOM      2  C   LIG    1       28.787 -20.084   6.632  0.00  0.00    +0.419 C 
ATOM      3  O   LIG    1       28.109 -20.299   7.839  0.00  0.00    -0.408 OA
ATOM      4  C   LIG    1       26.802 -20.467   7.416  0.00  0.00    +0.157 A 
ATOM      5  C   LIG    1       26.671 -20.367   6.046  0.00  0.00    +0.089 A 
ATOM      6  C   LIG    1       25.468 -20.499   5.393  0.00  0.00    +0.049 A 
ATOM      7  C   LIG    1       24.354 -20.748   6.198  0.00  0.00    +0.043 A 
ATOM      8  C   LIG    1       24.470 -20.854   7.600  0.00  0.00    +0.023 A 
ATOM      9 CL   LIG    1       22.807 -20.930   5.465  0.00  0.00    -0.084 Cl
ATOM     10  C   LIG    1       25.714 -20.712   8.226  0.00  0.00    +0.050 A 
ATOM     11  N   LIG    1       27.924 -20.125   5.561  0.00  0.00    -0.288 N 
ATOM     12  H   LIG    1       28.212 -19.994   4.606  0.00  0.00    +0.172 HD
ENDROOT
TORSDOF 0
ENDMDL
MODEL 5
REMARK VINA RESULT:      -6.4      6.302      6.510
REMARK  Name = *****
REMARK                            x       y       z     vdW  Elec       q    Type
REMARK                         _______ _______ _______ _____ _____    ______ ____
ROOT
ATOM      1  O   LIG    1       25.927 -25.504   5.476  0.00  0.00    -0.223 OA
ATOM      2  C   LIG    1       25.358 -24.442   5.682  0.00  0.00    +0.419 C 
ATOM      3  O   LIG    1       25.093 -23.930   6.959  0.00  0.00    -0.408 OA
ATOM      4  C   LIG    1       24.450 -22.738   6.670  0.00  0.00    +0.157 A 
ATOM      5  C   LIG    1       24.322 -22.521   5.313  0.00  0.00    +0.089 A 
ATOM      6  C   LIG    1       23.717 -21.404   4.785  0.00  0.00    +0.049 A 
ATOM      7  C   LIG    1       23.223 -20.477   5.704  0.00  0.00    +0.043 A 
ATOM      8  C   LIG    1       23.346 -20.683   7.094  0.00  0.00    +0.023 A 
ATOM      9 CL   LIG    1       22.449 -19.050   5.131  0.00  0.00    -0.084 Cl
ATOM     10  C   LIG    1       23.970 -21.834   7.592  0.00  0.00    +0.050 A 
ATOM     11  N   LIG    1       24.896 -23.596   4.700  0.00  0.00    -0.288 N 
ATOM     12  H   LIG    1       24.988 -23.780   3.715  0.00  0.00    +0.172 HD
ENDROOT
TORSDOF 0
ENDMDL
MODEL 6
REMARK VINA RESULT:      -6.1      1.687      2.391
REMARK  Name = *****
REMARK                            x       y       z     vdW  Elec       q    Type
REMARK                         _______ _______ _______ _____ _____    ______ ____
ROOT
ATOM      1  O   LIG    1       31.928 -19.158   7.861  0.00  0.00    -0.223 OA
ATOM      2  C   LIG    1       30.766 -19.418   7.583  0.00  0.00    +0.419 C 
ATOM      3  O   LIG    1       29.811 -19.837   8.519  0.00  0.00    -0.408 OA
ATOM      4  C   LIG    1       28.682 -19.999   7.734  0.00  0.00    +0.157 A 
ATOM      5  C   LIG    1       28.914 -19.706   6.405  0.00  0.00    +0.089 A 
ATOM      6  C   LIG    1       27.943 -19.795   5.436  0.00  0.00    +0.049 A 
ATOM      7  C   LIG    1       26.680 -20.208   5.864  0.00  0.00    +0.043 A 
ATOM      8  C   LIG    1       26.426 -20.512   7.218  0.00  0.00    +0.023 A 
ATOM      9 CL   LIG    1       25.404 -20.350   4.716  0.00  0.00    -0.084 Cl
ATOM     10  C   LIG    1       27.442 -20.408   8.175  0.00  0.00    +0.050 A 
ATOM     11  N   LIG    1       30.225 -19.340   6.320  0.00  0.00    -0.288 N 
ATOM     12  H   LIG    1       30.746 -19.059   5.506  0.00  0.00    +0.172 HD
ENDROOT
TORSDOF 0
ENDMDL
MODEL 7
REMARK VINA RESULT:      -6.1      5.002      5.551
REMARK  Name = *****
REMARK                            x       y       z     vdW  Elec       q    Type
REMARK                         _______ _______ _______ _____ _____    ______ ____
ROOT
ATOM      1  O   LIG    1       26.022 -22.338   8.805  0.00  0.00    -0.223 OA
ATOM      2  C   LIG    1       25.520 -21.749   7.859  0.00  0.00    +0.419 C 
ATOM      3  O   LIG    1       26.210 -21.425   6.682  0.00  0.00    -0.408 OA
ATOM      4  C   LIG    1       25.236 -20.782   5.938  0.00  0.00    +0.157 A 
ATOM      5  C   LIG    1       24.027 -20.707   6.600  0.00  0.00    +0.089 A 
ATOM      6  C   LIG    1       22.911 -20.112   6.061  0.00  0.00    +0.049 A 
ATOM      7  C   LIG    1       23.057 -19.570   4.782  0.00  0.00    +0.043 A 
ATOM      8  C   LIG    1       24.285 -19.638   4.092  0.00  0.00    +0.023 A 
ATOM      9 CL   LIG    1       21.710 -18.804   4.031  0.00  0.00    -0.084 Cl
ATOM     10  C   LIG    1       25.399 -20.254   4.676  0.00  0.00    +0.050 A 
ATOM     11  N   LIG    1       24.215 -21.318   7.805  0.00  0.00    -0.288 N 
ATOM     12  H   LIG    1       23.552 -21.452   8.550  0.00  0.00    +0.172 HD
ENDROOT
TORSDOF 0
ENDMDL
MODEL 8
REMARK VINA RESULT:      -6.1      6.244      6.815
REMARK  Name = *****
REMARK                            x       y       z     vdW  Elec       q    Type
REMARK                         _______ _______ _______ _____ _____    ______ ____
ROOT
ATOM      1  O   LIG    1       23.977 -24.749   6.739  0.00  0.00    -0.223 OA
ATOM      2  C   LIG    1       23.913 -23.635   6.242  0.00  0.00    +0.419 C 
ATOM      3  O   LIG    1       24.929 -23.065   5.463  0.00  0.00    -0.408 OA
ATOM      4  C   LIG    1       24.395 -21.829   5.143  0.00  0.00    +0.157 A 
ATOM      5  C   LIG    1       23.139 -21.638   5.682  0.00  0.00    +0.089 A 
ATOM      6  C   LIG    1       22.410 -20.486   5.501  0.00  0.00    +0.049 A 
ATOM      7  C   LIG    1       23.012 -19.490   4.729  0.00  0.00    +0.043 A 
ATOM      8  C   LIG    1       24.295 -19.668   4.170  0.00  0.00    +0.023 A 
ATOM      9 CL   LIG    1       22.172 -18.013   4.452  0.00  0.00    -0.084 Cl
ATOM     10  C   LIG    1       25.004 -20.858   4.378  0.00  0.00    +0.050 A 
ATOM     11  N   LIG    1       22.844 -22.778   6.370  0.00  0.00    -0.288 N 
ATOM     12  H   LIG    1       22.011 -22.998   6.891  0.00  0.00    +0.172 HD
ENDROOT
TORSDOF 0
ENDMDL
MODEL 9
REMARK VINA RESULT:      -6.1      6.098      6.966
REMARK  Name = *****
REMARK                            x       y       z     vdW  Elec       q    Type
REMARK                         _______ _______ _______ _____ _____    ______ ____
ROOT
ATOM      1  O   LIG    1       25.947 -17.666   2.953  0.00  0.00    -0.223 OA
ATOM      2  C   LIG    1       25.330 -18.529   3.559  0.00  0.00    +0.419 C 
ATOM      3  O   LIG    1       23.939 -18.522   3.732  0.00  0.00    -0.408 OA
ATOM      4  C   LIG    1       23.729 -19.678   4.465  0.00  0.00    +0.157 A 
ATOM      5  C   LIG    1       24.901 -20.357   4.731  0.00  0.00    +0.089 A 
ATOM      6  C   LIG    1       24.943 -21.532   5.444  0.00  0.00    +0.049 A 
ATOM      7  C   LIG    1       23.717 -22.021   5.901  0.00  0.00    +0.043 A 
ATOM      8  C   LIG    1       22.510 -21.340   5.638  0.00  0.00    +0.023 A 
ATOM      9 CL   LIG    1       23.677 -23.486   6.805  0.00  0.00    -0.084 Cl
ATOM     10  C   LIG    1       22.510 -20.145   4.907  0.00  0.00    +0.050 A 
ATOM     11  N   LIG    1       25.901 -19.629   4.157  0.00  0.00    -0.288 N 
ATOM     12  H   LIG    1       26.889 -19.819   4.147  0.00  0.00    +0.172 HD
ENDROOT
TORSDOF 0
ENDMDL
