MODEL 1
REMARK VINA RESULT:      34.9      0.000      0.000
REMARK  Name = *****
REMARK                            x       y       z     vdW  Elec       q    Type
REMARK                         _______ _______ _______ _____ _____    ______ ____
ROOT
ATOM      1  N   LIG    1       22.160 -15.730   2.722  0.00  0.00    -0.220 NA
ENDROOT
BRANCH   1   2
ATOM      2  N   LIG    1       22.725 -14.364   2.803  0.00  0.00    -0.246 N 
ATOM      3  H   LIG    1       22.868 -13.856   1.936  0.00  0.00    +0.169 HD
ATOM      4  C   LIG    1       23.027 -13.781   4.023  0.00  0.00    +0.248 C 
ATOM      5  O   LIG    1       22.776 -14.315   5.099  0.00  0.00    -0.272 OA
BRANCH   4   6
ATOM      6  C   LIG    1       23.758 -12.467   4.110  0.00  0.00    +0.169 C 
BRANCH   6   7
ATOM      7  C   LIG    1       24.546 -12.213   2.772  0.00  0.00    -0.011 C 
ATOM      8  C   LIG    1       23.596 -11.450   1.824  0.00  0.00    +0.013 C 
ATOM      9  C   LIG    1       24.978 -13.469   1.969  0.00  0.00    +0.013 C 
ATOM     10  C   LIG    1       25.860 -11.448   3.087  0.00  0.00    +0.013 C 
ENDBRANCH   6   7
BRANCH   6  11
ATOM     11  N   LIG    1       24.728 -12.436   5.302  0.00  0.00    -0.269 N 
ATOM     12  H   LIG    1       24.325 -12.555   6.216  0.00  0.00    +0.153 HD
ATOM     13  C   LIG    1       26.124 -12.510   5.374  0.00  0.00    +0.401 C 
ATOM     14  O   LIG    1       26.970 -12.427   4.516  0.00  0.00    -0.227 OA
BRANCH  13  15
ATOM     15  O   LIG    1       26.478 -12.797   6.662  0.00  0.00    -0.454 OA
ATOM     16  C   LIG    1       27.580 -13.722   6.750  0.00  0.00    +0.282 C 
ENDBRANCH  13  15
ENDBRANCH   6  11
ENDBRANCH   4   6
ENDBRANCH   1   2
BRANCH   1  17
ATOM     17  C   LIG    1       21.532 -16.054   4.066  0.00  0.00    +0.139 C 
BRANCH  17  18
ATOM     18  C   LIG    1       22.341 -15.887   5.473  0.00  0.00    +0.150 C 
BRANCH  18  19
ATOM     19  O   LIG    1       22.415 -14.532   5.912  0.00  0.00    -0.389 OA
ATOM     20  H   LIG    1       23.057 -14.072   5.355  0.00  0.00    +0.210 HD
ENDBRANCH  18  19
BRANCH  18  21
ATOM     21  C   LIG    1       23.775 -16.554   5.615  0.00  0.00    +0.107 C 
BRANCH  21  23
ATOM     22  C   LIG    1       23.534 -19.259   5.989  0.00  0.00    +0.234 C 
ATOM     23  N   LIG    1       23.913 -17.973   6.164  0.00  0.00    -0.308 N 
ATOM     24  H   LIG    1       24.795 -18.085   6.652  0.00  0.00    +0.149 HD
ATOM     25  O   LIG    1       24.317 -20.076   6.501  0.00  0.00    -0.274 OA
BRANCH  22  26
ATOM     26  C   LIG    1       22.260 -19.787   5.369  0.00  0.00    +0.167 C 
BRANCH  26  27
ATOM     27  C   LIG    1       22.423 -20.887   4.352  0.00  0.00    -0.011 C 
ATOM     28  C   LIG    1       22.881 -20.336   2.881  0.00  0.00    +0.013 C 
ATOM     29  C   LIG    1       20.737 -21.569   4.833  0.00  0.00    +0.013 C 
ATOM     30  C   LIG    1       23.825 -21.568   4.528  0.00  0.00    +0.013 C 
ENDBRANCH  26  27
BRANCH  26  32
ATOM     31  C   LIG    1       20.238 -18.962   4.164  0.00  0.00    +0.401 C 
ATOM     32  N   LIG    1       21.498 -18.793   4.581  0.00  0.00    -0.269 N 
ATOM     33  H   LIG    1       21.995 -18.414   3.776  0.00  0.00    +0.153 HD
ATOM     34  O   LIG    1       19.544 -18.020   3.822  0.00  0.00    -0.227 OA
BRANCH  31  36
ATOM     35  C   LIG    1       20.582 -20.955   3.004  0.00  0.00    +0.282 C 
ATOM     36  O   LIG    1       19.941 -20.272   4.063  0.00  0.00    -0.454 OA
ENDBRANCH  31  36
ENDBRANCH  26  32
ENDBRANCH  22  26
ENDBRANCH  21  23
BRANCH  21  37
ATOM     37  C   LIG    1       24.751 -16.475   4.349  0.00  0.00    +0.060 C 
BRANCH  37  38
ATOM     38  C   LIG    1       26.135 -15.784   4.246  0.00  0.00    -0.045 A 
ATOM     39  C   LIG    1       27.276 -16.209   4.855  0.00  0.00    +0.003 A 
ATOM     40  C   LIG    1       28.559 -15.717   4.521  0.00  0.00    +0.000 A 
ATOM     41  C   LIG    1       28.688 -14.805   3.497  0.00  0.00    +0.000 A 
ATOM     42  C   LIG    1       27.544 -14.363   2.824  0.00  0.00    +0.000 A 
ATOM     43  C   LIG    1       26.275 -14.848   3.191  0.00  0.00    +0.003 A 
ENDBRANCH  37  38
ENDBRANCH  21  37
ENDBRANCH  18  21
ENDBRANCH  17  18
ENDBRANCH   1  17
BRANCH   1  44
ATOM     44  C   LIG    1       23.197 -16.639   2.073  0.00  0.00    +0.140 C 
BRANCH  44  45
ATOM     45  C   LIG    1       24.106 -17.726   2.577  0.00  0.00    -0.032 A 
ATOM     46  C   LIG    1       24.360 -19.122   2.277  0.00  0.00    +0.005 A 
ATOM     47  C   LIG    1       25.402 -19.909   2.988  0.00  0.00    +0.010 A 
ATOM     48  C   LIG    1       26.199 -19.424   4.023  0.00  0.00    +0.000 A 
ATOM     49  C   LIG    1       26.003 -18.095   4.037  0.00  0.00    +0.010 A 
ATOM     50  C   LIG    1       25.120 -17.312   3.293  0.00  0.00    +0.005 A 
BRANCH  48  51
ATOM     51  C   LIG    1       27.225 -19.905   5.036  0.00  0.00    +0.071 A 
ATOM     52  N   LIG    1       26.680 -20.245   6.176  0.00  0.00    -0.255 NA
ATOM     53  C   LIG    1       27.458 -20.882   7.058  0.00  0.00    +0.111 A 
ATOM     54  C   LIG    1       28.809 -21.170   6.935  0.00  0.00    +0.020 A 
ATOM     55  C   LIG    1       29.465 -20.759   5.778  0.00  0.00    +0.004 A 
ATOM     56  C   LIG    1       28.642 -20.179   4.809  0.00  0.00    +0.028 A 
ENDBRANCH  48  51
ENDBRANCH  44  45
ENDBRANCH   1  44
TORSDOF 19
ENDMDL
MODEL 2
REMARK VINA RESULT:      36.0      1.947      4.285
REMARK  Name = *****
REMARK                            x       y       z     vdW  Elec       q    Type
REMARK                         _______ _______ _______ _____ _____    ______ ____
ROOT
ATOM      1  N   LIG    1       23.251 -12.897   3.707  0.00  0.00    -0.220 NA
ENDROOT
BRANCH   1   2
ATOM      2  N   LIG    1       24.698 -12.641   3.533  0.00  0.00    -0.246 N 
ATOM      3  H   LIG    1       25.132 -12.933   2.663  0.00  0.00    +0.169 HD
ATOM      4  C   LIG    1       25.440 -12.000   4.512  0.00  0.00    +0.248 C 
ATOM      5  O   LIG    1       24.938 -11.538   5.533  0.00  0.00    -0.272 OA
BRANCH   4   6
ATOM      6  C   LIG    1       26.939 -11.887   4.420  0.00  0.00    +0.169 C 
BRANCH   6   7
ATOM      7  C   LIG    1       27.418 -12.376   3.004  0.00  0.00    -0.011 C 
ATOM      8  C   LIG    1       27.719 -13.886   3.124  0.00  0.00    +0.013 C 
ATOM      9  C   LIG    1       28.732 -11.755   2.460  0.00  0.00    +0.013 C 
ATOM     10  C   LIG    1       26.330 -12.039   1.949  0.00  0.00    +0.013 C 
ENDBRANCH   6   7
BRANCH   6  11
ATOM     11  N   LIG    1       27.635 -12.706   5.519  0.00  0.00    -0.269 N 
ATOM     12  H   LIG    1       27.344 -13.663   5.624  0.00  0.00    +0.153 HD
ATOM     13  C   LIG    1       28.787 -12.464   6.279  0.00  0.00    +0.401 C 
ATOM     14  O   LIG    1       29.449 -11.465   6.421  0.00  0.00    -0.227 OA
BRANCH  13  15
ATOM     15  O   LIG    1       29.181 -13.637   6.856  0.00  0.00    -0.454 OA
ATOM     16  C   LIG    1       28.292 -14.735   6.567  0.00  0.00    +0.282 C 
ENDBRANCH  13  15
ENDBRANCH   6  11
ENDBRANCH   4   6
ENDBRANCH   1   2
BRANCH   1  17
ATOM     17  C   LIG    1       23.012 -13.245   5.165  0.00  0.00    +0.139 C 
BRANCH  17  18
ATOM     18  C   LIG    1       22.347 -14.662   5.629  0.00  0.00    +0.150 C 
BRANCH  18  19
ATOM     19  O   LIG    1       21.691 -14.579   6.892  0.00  0.00    -0.389 OA
ATOM     20  H   LIG    1       22.269 -14.096   7.498  0.00  0.00    +0.210 HD
ENDBRANCH  18  19
BRANCH  18  21
ATOM     21  C   LIG    1       23.242 -15.974   5.598  0.00  0.00    +0.107 C 
BRANCH  21  23
ATOM     22  C   LIG    1       22.828 -18.642   6.075  0.00  0.00    +0.234 C 
ATOM     23  N   LIG    1       22.684 -17.298   6.117  0.00  0.00    -0.308 N 
ATOM     24  H   LIG    1       22.233 -17.169   7.017  0.00  0.00    +0.149 HD
ATOM     25  O   LIG    1       22.341 -19.219   7.061  0.00  0.00    -0.274 OA
BRANCH  22  26
ATOM     26  C   LIG    1       23.386 -19.492   4.957  0.00  0.00    +0.167 C 
BRANCH  26  27
ATOM     27  C   LIG    1       24.027 -20.792   5.367  0.00  0.00    -0.011 C 
ATOM     28  C   LIG    1       25.373 -20.585   6.273  0.00  0.00    +0.013 C 
ATOM     29  C   LIG    1       23.939 -21.388   3.584  0.00  0.00    +0.013 C 
ATOM     30  C   LIG    1       23.282 -21.378   6.617  0.00  0.00    +0.013 C 
ENDBRANCH  26  27
BRANCH  26  32
ATOM     31  C   LIG    1       24.908 -19.271   2.992  0.00  0.00    +0.401 C 
ATOM     32  N   LIG    1       24.494 -18.867   4.198  0.00  0.00    -0.269 N 
ATOM     33  H   LIG    1       25.346 -18.715   4.735  0.00  0.00    +0.153 HD
ATOM     34  O   LIG    1       25.572 -18.549   2.267  0.00  0.00    -0.227 OA
BRANCH  31  36
ATOM     35  C   LIG    1       23.226 -20.847   2.644  0.00  0.00    +0.282 C 
ATOM     36  O   LIG    1       24.604 -20.567   2.793  0.00  0.00    -0.454 OA
ENDBRANCH  31  36
ENDBRANCH  26  32
ENDBRANCH  22  26
ENDBRANCH  21  23
BRANCH  21  37
ATOM     37  C   LIG    1       23.992 -16.319   4.226  0.00  0.00    +0.060 C 
BRANCH  37  38
ATOM     38  C   LIG    1       25.512 -16.279   3.927  0.00  0.00    -0.045 A 
ATOM     39  C   LIG    1       26.337 -15.226   4.176  0.00  0.00    +0.003 A 
ATOM     40  C   LIG    1       27.748 -15.326   4.144  0.00  0.00    +0.000 A 
ATOM     41  C   LIG    1       28.333 -16.548   3.906  0.00  0.00    +0.000 A 
ATOM     42  C   LIG    1       27.523 -17.665   3.673  0.00  0.00    +0.000 A 
ATOM     43  C   LIG    1       26.121 -17.536   3.686  0.00  0.00    +0.003 A 
ENDBRANCH  37  38
ENDBRANCH  21  37
ENDBRANCH  18  21
ENDBRANCH  17  18
ENDBRANCH   1  17
BRANCH   1  44
ATOM     44  C   LIG    1       22.785 -13.802   2.572  0.00  0.00    +0.140 C 
BRANCH  44  45
ATOM     45  C   LIG    1       21.891 -15.008   2.488  0.00  0.00    -0.032 A 
ATOM     46  C   LIG    1       20.622 -15.349   1.876  0.00  0.00    +0.005 A 
ATOM     47  C   LIG    1       20.031 -16.709   1.979  0.00  0.00    +0.010 A 
ATOM     48  C   LIG    1       20.590 -17.769   2.691  0.00  0.00    +0.000 A 
ATOM     49  C   LIG    1       21.833 -17.372   3.011  0.00  0.00    +0.010 A 
ATOM     50  C   LIG    1       22.459 -16.142   2.815  0.00  0.00    +0.005 A 
BRANCH  48  51
ATOM     51  C   LIG    1       20.265 -19.188   3.128  0.00  0.00    +0.071 A 
ATOM     52  N   LIG    1       20.303 -19.332   4.429  0.00  0.00    -0.255 NA
ATOM     53  C   LIG    1       19.826 -20.476   4.929  0.00  0.00    +0.111 A 
ATOM     54  C   LIG    1       19.351 -21.571   4.222  0.00  0.00    +0.020 A 
ATOM     55  C   LIG    1       19.363 -21.511   2.832  0.00  0.00    +0.004 A 
ATOM     56  C   LIG    1       19.769 -20.284   2.300  0.00  0.00    +0.028 A 
ENDBRANCH  48  51
ENDBRANCH  44  45
ENDBRANCH   1  44
TORSDOF 19
ENDMDL
MODEL 3
REMARK VINA RESULT:      36.2      2.049      5.263
REMARK  Name = *****
REMARK                            x       y       z     vdW  Elec       q    Type
REMARK                         _______ _______ _______ _____ _____    ______ ____
ROOT
ATOM      1  N   LIG    1       23.196 -12.892   3.600  0.00  0.00    -0.220 NA
ENDROOT
BRANCH   1   2
ATOM      2  N   LIG    1       24.658 -12.725   3.442  0.00  0.00    -0.246 N 
ATOM      3  H   LIG    1       25.094 -13.111   2.611  0.00  0.00    +0.169 HD
ATOM      4  C   LIG    1       25.411 -12.042   4.384  0.00  0.00    +0.248 C 
ATOM      5  O   LIG    1       24.913 -11.472   5.350  0.00  0.00    -0.272 OA
BRANCH   4   6
ATOM      6  C   LIG    1       26.915 -12.014   4.322  0.00  0.00    +0.169 C 
BRANCH   6   7
ATOM      7  C   LIG    1       27.403 -12.745   3.017  0.00  0.00    -0.011 C 
ATOM      8  C   LIG    1       27.983 -14.109   3.451  0.00  0.00    +0.013 C 
ATOM      9  C   LIG    1       28.550 -12.064   2.224  0.00  0.00    +0.013 C 
ATOM     10  C   LIG    1       26.218 -12.860   2.019  0.00  0.00    +0.013 C 
ENDBRANCH   6   7
BRANCH   6  11
ATOM     11  N   LIG    1       27.545 -12.678   5.558  0.00  0.00    -0.269 N 
ATOM     12  H   LIG    1       27.175 -13.573   5.829  0.00  0.00    +0.153 HD
ATOM     13  C   LIG    1       28.715 -12.399   6.276  0.00  0.00    +0.401 C 
ATOM     14  O   LIG    1       29.459 -11.449   6.244  0.00  0.00    -0.227 OA
BRANCH  13  15
ATOM     15  O   LIG    1       29.011 -13.479   7.058  0.00  0.00    -0.454 OA
ATOM     16  C   LIG    1       27.979 -14.485   7.046  0.00  0.00    +0.282 C 
ENDBRANCH  13  15
ENDBRANCH   6  11
ENDBRANCH   4   6
ENDBRANCH   1   2
BRANCH   1  17
ATOM     17  C   LIG    1       22.917 -13.197   5.060  0.00  0.00    +0.139 C 
BRANCH  17  18
ATOM     18  C   LIG    1       22.263 -14.611   5.550  0.00  0.00    +0.150 C 
BRANCH  18  19
ATOM     19  O   LIG    1       21.701 -14.538   6.858  0.00  0.00    -0.389 OA
ATOM     20  H   LIG    1       22.428 -14.528   7.495  0.00  0.00    +0.210 HD
ENDBRANCH  18  19
BRANCH  18  21
ATOM     21  C   LIG    1       23.131 -15.935   5.434  0.00  0.00    +0.107 C 
BRANCH  21  23
ATOM     22  C   LIG    1       25.765 -16.326   4.781  0.00  0.00    +0.234 C 
ATOM     23  N   LIG    1       24.656 -15.855   5.395  0.00  0.00    -0.308 N 
ATOM     24  H   LIG    1       24.977 -14.953   5.731  0.00  0.00    +0.149 HD
ATOM     25  O   LIG    1       26.742 -15.566   4.882  0.00  0.00    -0.274 OA
BRANCH  22  26
ATOM     26  C   LIG    1       25.972 -17.667   4.115  0.00  0.00    +0.167 C 
BRANCH  26  27
ATOM     27  C   LIG    1       26.934 -17.692   2.956  0.00  0.00    -0.011 C 
ATOM     28  C   LIG    1       26.532 -18.793   1.813  0.00  0.00    +0.013 C 
ATOM     29  C   LIG    1       28.373 -17.784   4.164  0.00  0.00    +0.013 C 
ATOM     30  C   LIG    1       26.587 -16.535   1.955  0.00  0.00    +0.013 C 
ENDBRANCH  26  27
BRANCH  26  32
ATOM     31  C   LIG    1       24.514 -19.545   3.358  0.00  0.00    +0.401 C 
ATOM     32  N   LIG    1       24.761 -18.236   3.480  0.00  0.00    -0.269 N 
ATOM     33  H   LIG    1       24.526 -17.835   2.573  0.00  0.00    +0.153 HD
ATOM     34  O   LIG    1       23.391 -19.969   3.146  0.00  0.00    -0.227 OA
BRANCH  31  36
ATOM     35  C   LIG    1       25.923 -20.955   4.566  0.00  0.00    +0.282 C 
ATOM     36  O   LIG    1       25.662 -20.249   3.370  0.00  0.00    -0.454 OA
ENDBRANCH  31  36
ENDBRANCH  26  32
ENDBRANCH  22  26
ENDBRANCH  21  23
BRANCH  21  37
ATOM     37  C   LIG    1       22.779 -17.134   6.435  0.00  0.00    +0.060 C 
BRANCH  37  38
ATOM     38  C   LIG    1       23.181 -18.627   6.324  0.00  0.00    -0.045 A 
ATOM     39  C   LIG    1       24.452 -19.109   6.397  0.00  0.00    +0.003 A 
ATOM     40  C   LIG    1       24.749 -20.481   6.564  0.00  0.00    +0.000 A 
ATOM     41  C   LIG    1       23.719 -21.382   6.716  0.00  0.00    +0.000 A 
ATOM     42  C   LIG    1       22.396 -20.926   6.676  0.00  0.00    +0.000 A 
ATOM     43  C   LIG    1       22.125 -19.558   6.485  0.00  0.00    +0.003 A 
ENDBRANCH  37  38
ENDBRANCH  21  37
ENDBRANCH  18  21
ENDBRANCH  17  18
ENDBRANCH   1  17
BRANCH   1  44
ATOM     44  C   LIG    1       22.692 -13.789   2.475  0.00  0.00    +0.140 C 
BRANCH  44  45
ATOM     45  C   LIG    1       21.810 -15.005   2.414  0.00  0.00    -0.032 A 
ATOM     46  C   LIG    1       20.537 -15.365   1.819  0.00  0.00    +0.005 A 
ATOM     47  C   LIG    1       19.961 -16.730   1.945  0.00  0.00    +0.010 A 
ATOM     48  C   LIG    1       20.538 -17.775   2.664  0.00  0.00    +0.000 A 
ATOM     49  C   LIG    1       21.780 -17.363   2.965  0.00  0.00    +0.010 A 
ATOM     50  C   LIG    1       22.392 -16.129   2.749  0.00  0.00    +0.005 A 
BRANCH  48  51
ATOM     51  C   LIG    1       20.231 -19.192   3.121  0.00  0.00    +0.071 A 
ATOM     52  N   LIG    1       20.280 -19.319   4.422  0.00  0.00    -0.255 NA
ATOM     53  C   LIG    1       19.819 -20.463   4.941  0.00  0.00    +0.111 A 
ATOM     54  C   LIG    1       19.350 -21.571   4.252  0.00  0.00    +0.020 A 
ATOM     55  C   LIG    1       19.350 -21.528   2.860  0.00  0.00    +0.004 A 
ATOM     56  C   LIG    1       19.739 -20.304   2.310  0.00  0.00    +0.028 A 
ENDBRANCH  48  51
ENDBRANCH  44  45
ENDBRANCH   1  44
TORSDOF 19
ENDMDL
