MODEL 1
REMARK VINA RESULT:      -6.5      0.000      0.000
REMARK  Name = *****
REMARK                            x       y       z     vdW  Elec       q    Type
REMARK                         _______ _______ _______ _____ _____    ______ ____
ROOT
ATOM      1  N   LIG    1       25.823 -31.219  11.741  0.00  0.00    -0.294 NA
ATOM      2  C   LIG    1       24.964 -30.237  12.459  0.00  0.00    +0.069 C 
ATOM      3  C   LIG    1       23.604 -29.932  11.709  0.00  0.00    +0.038 C 
ATOM      4  C   LIG    1       22.798 -28.879  12.433  0.00  0.00    -0.033 C 
ATOM      5  C   LIG    1       23.500 -27.992  13.253  0.00  0.00    +0.006 C 
ATOM      6  C   LIG    1       22.882 -26.954  13.918  0.00  0.00    +0.047 C 
ATOM      7  N   LIG    1       23.881 -26.316  14.622  0.00  0.00    -0.360 NA
ATOM      8  H   LIG    1       23.740 -25.511  15.213  0.00  0.00    +0.165 HD
ATOM      9  C   LIG    1       25.101 -26.920  14.386  0.00  0.00    +0.087 C 
ATOM     10  C   LIG    1       21.511 -26.725  13.786  0.00  0.00    +0.026 C 
ATOM     11  C   LIG    1       20.798 -27.600  12.945  0.00  0.00    +0.002 C 
ATOM     12  C   LIG    1       24.885 -27.964  13.519  0.00  0.00    -0.021 C 
ATOM     13  C   LIG    1       21.425 -28.662  12.278  0.00  0.00    +0.005 C 
ATOM     14  C   LIG    1       23.862 -29.464  10.277  0.00  0.00    +0.023 C 
ATOM     15  C   LIG    1       24.830 -30.396   9.549  0.00  0.00    +0.090 C 
ATOM     16  C   LIG    1       25.784 -28.958  12.862  0.00  0.00    +0.056 C 
ATOM     17  C   LIG    1       26.087 -30.748  10.361  0.00  0.00    +0.097 C 
ENDROOT
BRANCH  15  18
ATOM     18  C   LIG    1       25.245 -29.779   8.204  0.00  0.00    +0.227 C 
ATOM     19  N   LIG    1       24.973 -30.456   6.997  0.00  0.00    -0.226 N 
ATOM     20  C   LIG    1       24.042 -31.496   6.903  0.00  0.00    +0.308 C 
ATOM     21  N   LIG    1       23.915 -32.071   5.663  0.00  0.00    -0.299 N 
ATOM     22  H   LIG    1       24.625 -31.921   4.966  0.00  0.00    +0.150 HD
ATOM     23  O   LIG    1       23.332 -31.902   7.808  0.00  0.00    -0.252 OA
ATOM     24  O   LIG    1       25.853 -28.705   8.205  0.00  0.00    -0.275 OA
BRANCH  21  25
ATOM     25  C   LIG    1       22.987 -33.160   5.425  0.00  0.00    +0.102 C 
ATOM     26  C   LIG    1       23.321 -33.814   4.103  0.00  0.00    +0.024 C 
ENDBRANCH  21  25
BRANCH  19  27
ATOM     27  C   LIG    1       25.475 -29.764   5.784  0.00  0.00    +0.119 C 
BRANCH  27  28
ATOM     28  C   LIG    1       25.034 -28.303   5.578  0.00  0.00    +0.035 C 
BRANCH  28  29
ATOM     29  C   LIG    1       26.079 -27.418   4.880  0.00  0.00    +0.085 C 
BRANCH  29  30
ATOM     30  N   LIG    1       26.049 -26.015   5.339  0.00  0.00    -0.308 NA
ATOM     31  C   LIG    1       24.976 -25.279   4.654  0.00  0.00    +0.104 C 
ATOM     32  C   LIG    1       25.867 -25.901   6.786  0.00  0.00    +0.104 C 
ENDBRANCH  29  30
ENDBRANCH  28  29
ENDBRANCH  27  28
ENDBRANCH  19  27
ENDBRANCH  15  18
BRANCH   1  33
ATOM     33  C   LIG    1       25.243 -32.579  11.744  0.00  0.00    +0.111 C 
BRANCH  33  35
ATOM     34  C   LIG    1       26.080 -33.118  14.058  0.00  0.00    +0.005 C 
ATOM     35  C   LIG    1       25.110 -33.161  13.130  0.00  0.00    -0.019 C 
ENDBRANCH  33  35
ENDBRANCH   1  33
TORSDOF 8
ENDMDL
MODEL 2
REMARK VINA RESULT:      -6.3      3.233      8.243
REMARK  Name = *****
REMARK                            x       y       z     vdW  Elec       q    Type
REMARK                         _______ _______ _______ _____ _____    ______ ____
ROOT
ATOM      1  N   LIG    1       25.200 -30.771  11.935  0.00  0.00    -0.294 NA
ATOM      2  C   LIG    1       25.555 -30.853  10.490  0.00  0.00    +0.069 C 
ATOM      3  C   LIG    1       24.658 -29.926   9.574  0.00  0.00    +0.038 C 
ATOM      4  C   LIG    1       25.003 -30.093   8.112  0.00  0.00    -0.033 C 
ATOM      5  C   LIG    1       25.590 -31.303   7.732  0.00  0.00    +0.006 C 
ATOM      6  C   LIG    1       25.896 -31.595   6.419  0.00  0.00    +0.047 C 
ATOM      7  N   LIG    1       26.461 -32.852   6.440  0.00  0.00    -0.360 NA
ATOM      8  H   LIG    1       26.794 -33.344   5.625  0.00  0.00    +0.165 HD
ATOM      9  C   LIG    1       26.487 -33.350   7.729  0.00  0.00    +0.087 C 
ATOM     10  C   LIG    1       25.612 -30.693   5.393  0.00  0.00    +0.026 C 
ATOM     11  C   LIG    1       25.000 -29.480   5.763  0.00  0.00    +0.002 C 
ATOM     12  C   LIG    1       25.933 -32.399   8.551  0.00  0.00    -0.021 C 
ATOM     13  C   LIG    1       24.700 -29.179   7.099  0.00  0.00    +0.005 C 
ATOM     14  C   LIG    1       23.174 -30.230   9.773  0.00  0.00    +0.023 C 
ATOM     15  C   LIG    1       22.802 -30.262  11.255  0.00  0.00    +0.090 C 
ATOM     16  C   LIG    1       25.642 -32.348  10.014  0.00  0.00    +0.056 C 
ATOM     17  C   LIG    1       23.765 -31.090  12.122  0.00  0.00    +0.097 C 
ENDROOT
BRANCH  15  18
ATOM     18  C   LIG    1       21.371 -30.793  11.428  0.00  0.00    +0.227 C 
ATOM     19  N   LIG    1       20.477 -30.151  12.310  0.00  0.00    -0.226 N 
ATOM     20  C   LIG    1       20.683 -28.852  12.788  0.00  0.00    +0.308 C 
ATOM     21  N   LIG    1       19.734 -28.382  13.662  0.00  0.00    -0.299 N 
ATOM     22  H   LIG    1       19.101 -29.025  14.109  0.00  0.00    +0.150 HD
ATOM     23  O   LIG    1       21.601 -28.114  12.475  0.00  0.00    -0.252 OA
ATOM     24  O   LIG    1       21.035 -31.809  10.815  0.00  0.00    -0.275 OA
BRANCH  21  25
ATOM     25  C   LIG    1       19.825 -27.053  14.235  0.00  0.00    +0.102 C 
ATOM     26  C   LIG    1       18.559 -26.289  13.916  0.00  0.00    +0.024 C 
ENDBRANCH  21  25
BRANCH  19  27
ATOM     27  C   LIG    1       19.147 -30.803  12.412  0.00  0.00    +0.119 C 
BRANCH  27  28
ATOM     28  C   LIG    1       18.890 -31.680  13.651  0.00  0.00    +0.035 C 
BRANCH  28  29
ATOM     29  C   LIG    1       17.733 -31.199  14.540  0.00  0.00    +0.085 C 
BRANCH  29  30
ATOM     30  N   LIG    1       16.919 -30.139  13.910  0.00  0.00    -0.308 NA
ATOM     31  C   LIG    1       15.783 -30.732  13.190  0.00  0.00    +0.104 C 
ATOM     32  C   LIG    1       16.422 -29.163  14.880  0.00  0.00    +0.104 C 
ENDBRANCH  29  30
ENDBRANCH  28  29
ENDBRANCH  27  28
ENDBRANCH  19  27
ENDBRANCH  15  18
BRANCH   1  33
ATOM     33  C   LIG    1       25.541 -29.459  12.523  0.00  0.00    +0.111 C 
BRANCH  33  35
ATOM     34  C   LIG    1       27.076 -27.741  11.502  0.00  0.00    +0.005 C 
ATOM     35  C   LIG    1       26.886 -28.942  12.073  0.00  0.00    -0.019 C 
ENDBRANCH  33  35
ENDBRANCH   1  33
TORSDOF 8
ENDMDL
MODEL 3
REMARK VINA RESULT:      -5.9      3.536      7.846
REMARK  Name = *****
REMARK                            x       y       z     vdW  Elec       q    Type
REMARK                         _______ _______ _______ _____ _____    ______ ____
ROOT
ATOM      1  N   LIG    1       26.272 -29.732   9.009  0.00  0.00    -0.294 NA
ATOM      2  C   LIG    1       24.932 -30.380   9.064  0.00  0.00    +0.069 C 
ATOM      3  C   LIG    1       24.009 -29.808  10.216  0.00  0.00    +0.038 C 
ATOM      4  C   LIG    1       22.690 -30.541  10.282  0.00  0.00    -0.033 C 
ATOM      5  C   LIG    1       22.660 -31.844   9.776  0.00  0.00    +0.006 C 
ATOM      6  C   LIG    1       21.530 -32.633   9.834  0.00  0.00    +0.047 C 
ATOM      7  N   LIG    1       21.878 -33.825   9.236  0.00  0.00    -0.360 NA
ATOM      8  H   LIG    1       21.256 -34.611   9.123  0.00  0.00    +0.165 HD
ATOM      9  C   LIG    1       23.200 -33.798   8.836  0.00  0.00    +0.087 C 
ATOM     10  C   LIG    1       20.354 -32.169  10.426  0.00  0.00    +0.026 C 
ATOM     11  C   LIG    1       20.381 -30.866  10.959  0.00  0.00    +0.002 C 
ATOM     12  C   LIG    1       23.711 -32.569   9.177  0.00  0.00    -0.021 C 
ATOM     13  C   LIG    1       21.526 -30.061  10.889  0.00  0.00    +0.005 C 
ATOM     14  C   LIG    1       24.703 -29.908  11.573  0.00  0.00    +0.023 C 
ATOM     15  C   LIG    1       26.124 -29.349  11.519  0.00  0.00    +0.090 C 
ATOM     16  C   LIG    1       25.062 -31.947   9.054  0.00  0.00    +0.056 C 
ATOM     17  C   LIG    1       26.948 -29.853  10.322  0.00  0.00    +0.097 C 
ENDROOT
BRANCH  15  18
ATOM     18  C   LIG    1       26.868 -29.671  12.825  0.00  0.00    +0.227 C 
ATOM     19  N   LIG    1       27.442 -28.634  13.590  0.00  0.00    -0.226 N 
ATOM     20  C   LIG    1       27.090 -27.289  13.431  0.00  0.00    +0.308 C 
ATOM     21  N   LIG    1       27.762 -26.400  14.233  0.00  0.00    -0.299 N 
ATOM     22  H   LIG    1       28.611 -26.683  14.695  0.00  0.00    +0.150 HD
ATOM     23  O   LIG    1       26.236 -26.860  12.674  0.00  0.00    -0.252 OA
ATOM     24  O   LIG    1       26.987 -30.850  13.166  0.00  0.00    -0.275 OA
BRANCH  21  25
ATOM     25  C   LIG    1       27.498 -24.976  14.171  0.00  0.00    +0.102 C 
ATOM     26  C   LIG    1       28.256 -24.283  15.280  0.00  0.00    +0.024 C 
ENDBRANCH  21  25
BRANCH  19  27
ATOM     27  C   LIG    1       28.169 -29.099  14.797  0.00  0.00    +0.119 C 
BRANCH  27  28
ATOM     28  C   LIG    1       29.704 -28.983  14.778  0.00  0.00    +0.035 C 
BRANCH  28  29
ATOM     29  C   LIG    1       30.380 -29.711  13.605  0.00  0.00    +0.085 C 
BRANCH  29  30
ATOM     30  N   LIG    1       31.835 -29.886  13.791  0.00  0.00    -0.308 NA
ATOM     31  C   LIG    1       32.549 -29.563  12.547  0.00  0.00    +0.104 C 
ATOM     32  C   LIG    1       32.363 -29.063  14.880  0.00  0.00    +0.104 C 
ENDBRANCH  29  30
ENDBRANCH  28  29
ENDBRANCH  27  28
ENDBRANCH  19  27
ENDBRANCH  15  18
BRANCH   1  33
ATOM     33  C   LIG    1       26.196 -28.323   8.570  0.00  0.00    +0.111 C 
BRANCH  33  35
ATOM     34  C   LIG    1       25.521 -27.024   6.520  0.00  0.00    +0.005 C 
ATOM     35  C   LIG    1       25.494 -28.155   7.245  0.00  0.00    -0.019 C 
ENDBRANCH  33  35
ENDBRANCH   1  33
TORSDOF 8
ENDMDL
MODEL 4
REMARK VINA RESULT:      -5.8      3.042      7.733
REMARK  Name = *****
REMARK                            x       y       z     vdW  Elec       q    Type
REMARK                         _______ _______ _______ _____ _____    ______ ____
ROOT
ATOM      1  N   LIG    1       26.150 -31.170  11.185  0.00  0.00    -0.294 NA
ATOM      2  C   LIG    1       26.148 -30.841   9.732  0.00  0.00    +0.069 C 
ATOM      3  C   LIG    1       25.030 -29.795   9.332  0.00  0.00    +0.038 C 
ATOM      4  C   LIG    1       25.016 -29.544   7.842  0.00  0.00    -0.033 C 
ATOM      5  C   LIG    1       25.527 -30.554   7.022  0.00  0.00    +0.006 C 
ATOM      6  C   LIG    1       25.515 -30.466   5.646  0.00  0.00    +0.047 C 
ATOM      7  N   LIG    1       26.103 -31.628   5.194  0.00  0.00    -0.360 NA
ATOM      8  H   LIG    1       26.242 -31.857   4.221  0.00  0.00    +0.165 HD
ATOM      9  C   LIG    1       26.453 -32.439   6.256  0.00  0.00    +0.087 C 
ATOM     10  C   LIG    1       24.966 -29.358   4.998  0.00  0.00    +0.026 C 
ATOM     11  C   LIG    1       24.428 -28.345   5.814  0.00  0.00    +0.002 C 
ATOM     12  C   LIG    1       26.088 -31.789   7.411  0.00  0.00    -0.021 C 
ATOM     13  C   LIG    1       24.452 -28.430   7.213  0.00  0.00    +0.005 C 
ATOM     14  C   LIG    1       23.648 -30.276   9.769  0.00  0.00    +0.023 C 
ATOM     15  C   LIG    1       23.646 -30.726  11.229  0.00  0.00    +0.090 C 
ATOM     16  C   LIG    1       26.158 -32.147   8.858  0.00  0.00    +0.056 C 
ATOM     17  C   LIG    1       24.812 -31.658  11.596  0.00  0.00    +0.097 C 
ENDROOT
BRANCH  15  18
ATOM     18  C   LIG    1       22.314 -31.413  11.568  0.00  0.00    +0.227 C 
ATOM     19  N   LIG    1       21.441 -30.842  12.518  0.00  0.00    -0.226 N 
ATOM     20  C   LIG    1       21.534 -29.508  12.930  0.00  0.00    +0.308 C 
ATOM     21  N   LIG    1       20.628 -29.115  13.883  0.00  0.00    -0.299 N 
ATOM     22  H   LIG    1       20.125 -29.807  14.413  0.00  0.00    +0.150 HD
ATOM     23  O   LIG    1       22.321 -28.682  12.499  0.00  0.00    -0.252 OA
ATOM     24  O   LIG    1       22.045 -32.488  11.026  0.00  0.00    -0.275 OA
BRANCH  21  25
ATOM     25  C   LIG    1       20.613 -27.760  14.400  0.00  0.00    +0.102 C 
ATOM     26  C   LIG    1       19.593 -26.949  13.633  0.00  0.00    +0.024 C 
ENDBRANCH  21  25
BRANCH  19  27
ATOM     27  C   LIG    1       20.218 -31.641  12.778  0.00  0.00    +0.119 C 
BRANCH  27  28
ATOM     28  C   LIG    1       18.916 -31.169  12.104  0.00  0.00    +0.035 C 
BRANCH  28  29
ATOM     29  C   LIG    1       18.864 -31.411  10.587  0.00  0.00    +0.085 C 
BRANCH  29  30
ATOM     30  N   LIG    1       18.056 -32.589  10.215  0.00  0.00    -0.308 NA
ATOM     31  C   LIG    1       18.923 -33.655   9.690  0.00  0.00    +0.104 C 
ATOM     32  C   LIG    1       17.274 -33.110  11.337  0.00  0.00    +0.104 C 
ENDBRANCH  29  30
ENDBRANCH  28  29
ENDBRANCH  27  28
ENDBRANCH  19  27
ENDBRANCH  15  18
BRANCH   1  33
ATOM     33  C   LIG    1       26.587 -30.030  12.018  0.00  0.00    +0.111 C 
BRANCH  33  35
ATOM     34  C   LIG    1       27.025 -27.626  11.408  0.00  0.00    +0.005 C 
ATOM     35  C   LIG    1       27.252 -28.936  11.219  0.00  0.00    -0.019 C 
ENDBRANCH  33  35
ENDBRANCH   1  33
TORSDOF 8
ENDMDL
MODEL 5
REMARK VINA RESULT:      -5.5      2.116      4.961
REMARK  Name = *****
REMARK                            x       y       z     vdW  Elec       q    Type
REMARK                         _______ _______ _______ _____ _____    ______ ____
ROOT
ATOM      1  N   LIG    1       22.225 -31.064  11.532  0.00  0.00    -0.294 NA
ATOM      2  C   LIG    1       23.498 -30.794  12.257  0.00  0.00    +0.069 C 
ATOM      3  C   LIG    1       24.514 -29.910  11.425  0.00  0.00    +0.038 C 
ATOM      4  C   LIG    1       25.817 -29.721  12.165  0.00  0.00    -0.033 C 
ATOM      5  C   LIG    1       26.157 -30.691  13.113  0.00  0.00    +0.006 C 
ATOM      6  C   LIG    1       27.347 -30.657  13.810  0.00  0.00    +0.047 C 
ATOM      7  N   LIG    1       27.319 -31.754  14.644  0.00  0.00    -0.360 NA
ATOM      8  H   LIG    1       28.056 -32.002  15.288  0.00  0.00    +0.165 HD
ATOM      9  C   LIG    1       26.155 -32.474  14.460  0.00  0.00    +0.087 C 
ATOM     10  C   LIG    1       28.289 -29.652  13.584  0.00  0.00    +0.026 C 
ATOM     11  C   LIG    1       27.965 -28.683  12.616  0.00  0.00    +0.002 C 
ATOM     12  C   LIG    1       25.419 -31.831  13.494  0.00  0.00    -0.021 C 
ATOM     13  C   LIG    1       26.751 -28.711  11.916  0.00  0.00    +0.005 C 
ATOM     14  C   LIG    1       24.802 -30.542  10.064  0.00  0.00    +0.023 C 
ATOM     15  C   LIG    1       23.512 -30.932   9.342  0.00  0.00    +0.090 C 
ATOM     16  C   LIG    1       24.113 -32.121  12.833  0.00  0.00    +0.056 C 
ATOM     17  C   LIG    1       22.511 -31.698  10.224  0.00  0.00    +0.097 C 
ENDROOT
BRANCH  15  18
ATOM     18  C   LIG    1       23.838 -31.766   8.094  0.00  0.00    +0.227 C 
ATOM     19  N   LIG    1       23.978 -31.140   6.838  0.00  0.00    -0.226 N 
ATOM     20  C   LIG    1       24.184 -29.763   6.694  0.00  0.00    +0.308 C 
ATOM     21  N   LIG    1       24.271 -29.306   5.403  0.00  0.00    -0.299 N 
ATOM     22  H   LIG    1       23.949 -29.883   4.643  0.00  0.00    +0.150 HD
ATOM     23  O   LIG    1       24.316 -28.963   7.605  0.00  0.00    -0.252 OA
ATOM     24  O   LIG    1       23.933 -32.991   8.205  0.00  0.00    -0.275 OA
BRANCH  21  25
ATOM     25  C   LIG    1       24.481 -27.902   5.110  0.00  0.00    +0.102 C 
ATOM     26  C   LIG    1       25.966 -27.638   4.991  0.00  0.00    +0.024 C 
ENDBRANCH  21  25
BRANCH  19  27
ATOM     27  C   LIG    1       24.243 -32.075   5.716  0.00  0.00    +0.119 C 
BRANCH  27  28
ATOM     28  C   LIG    1       25.713 -32.273   5.302  0.00  0.00    +0.035 C 
BRANCH  28  29
ATOM     29  C   LIG    1       26.725 -32.078   6.442  0.00  0.00    +0.085 C 
BRANCH  29  30
ATOM     30  N   LIG    1       27.334 -33.344   6.900  0.00  0.00    -0.308 NA
ATOM     31  C   LIG    1       28.633 -33.550   6.242  0.00  0.00    +0.104 C 
ATOM     32  C   LIG    1       27.513 -33.386   8.352  0.00  0.00    +0.104 C 
ENDBRANCH  29  30
ENDBRANCH  28  29
ENDBRANCH  27  28
ENDBRANCH  19  27
ENDBRANCH  15  18
BRANCH   1  33
ATOM     33  C   LIG    1       21.401 -29.848  11.373  0.00  0.00    +0.111 C 
BRANCH  33  35
ATOM     34  C   LIG    1       21.397 -27.813  12.858  0.00  0.00    +0.005 C 
ATOM     35  C   LIG    1       21.161 -29.122  12.674  0.00  0.00    -0.019 C 
ENDBRANCH  33  35
ENDBRANCH   1  33
TORSDOF 8
ENDMDL
MODEL 6
REMARK VINA RESULT:      -5.4      2.437      3.304
REMARK  Name = *****
REMARK                            x       y       z     vdW  Elec       q    Type
REMARK                         _______ _______ _______ _____ _____    ______ ____
ROOT
ATOM      1  N   LIG    1       25.312 -29.466  11.827  0.00  0.00    -0.294 NA
ATOM      2  C   LIG    1       23.983 -29.707  12.454  0.00  0.00    +0.069 C 
ATOM      3  C   LIG    1       23.340 -31.092  12.039  0.00  0.00    +0.038 C 
ATOM      4  C   LIG    1       21.964 -31.264  12.639  0.00  0.00    -0.033 C 
ATOM      5  C   LIG    1       21.264 -30.101  12.971  0.00  0.00    +0.006 C 
ATOM      6  C   LIG    1       19.979 -30.128  13.470  0.00  0.00    +0.047 C 
ATOM      7  N   LIG    1       19.634 -28.811  13.682  0.00  0.00    -0.360 NA
ATOM      8  H   LIG    1       18.746 -28.504  14.048  0.00  0.00    +0.165 HD
ATOM      9  C   LIG    1       20.665 -27.973  13.302  0.00  0.00    +0.087 C 
ATOM     10  C   LIG    1       19.299 -31.335  13.651  0.00  0.00    +0.026 C 
ATOM     11  C   LIG    1       19.988 -32.511  13.299  0.00  0.00    +0.002 C 
ATOM     12  C   LIG    1       21.691 -28.762  12.841  0.00  0.00    -0.021 C 
ATOM     13  C   LIG    1       21.298 -32.483  12.802  0.00  0.00    +0.005 C 
ATOM     14  C   LIG    1       23.240 -31.216  10.520  0.00  0.00    +0.023 C 
ATOM     15  C   LIG    1       24.563 -30.866   9.840  0.00  0.00    +0.090 C 
ATOM     16  C   LIG    1       23.035 -28.468  12.263  0.00  0.00    +0.056 C 
ATOM     17  C   LIG    1       25.202 -29.565  10.353  0.00  0.00    +0.097 C 
ENDROOT
BRANCH  15  18
ATOM     18  C   LIG    1       24.368 -30.777   8.319  0.00  0.00    +0.227 C 
ATOM     19  N   LIG    1       25.377 -31.231   7.445  0.00  0.00    -0.226 N 
ATOM     20  C   LIG    1       26.412 -32.079   7.855  0.00  0.00    +0.308 C 
ATOM     21  N   LIG    1       27.332 -32.406   6.889  0.00  0.00    -0.299 N 
ATOM     22  H   LIG    1       27.385 -31.862   6.044  0.00  0.00    +0.150 HD
ATOM     23  O   LIG    1       26.541 -32.560   8.967  0.00  0.00    -0.252 OA
ATOM     24  O   LIG    1       23.334 -30.266   7.881  0.00  0.00    -0.275 OA
BRANCH  21  25
ATOM     25  C   LIG    1       28.455 -33.275   7.178  0.00  0.00    +0.102 C 
ATOM     26  C   LIG    1       29.005 -33.821   5.879  0.00  0.00    +0.024 C 
ENDBRANCH  21  25
BRANCH  19  27
ATOM     27  C   LIG    1       25.070 -31.036   6.006  0.00  0.00    +0.119 C 
BRANCH  27  28
ATOM     28  C   LIG    1       25.484 -29.694   5.376  0.00  0.00    +0.035 C 
BRANCH  28  29
ATOM     29  C   LIG    1       24.539 -28.525   5.696  0.00  0.00    +0.085 C 
BRANCH  29  30
ATOM     30  N   LIG    1       25.252 -27.263   5.979  0.00  0.00    -0.308 NA
ATOM     31  C   LIG    1       25.853 -27.309   7.320  0.00  0.00    +0.104 C 
ATOM     32  C   LIG    1       26.291 -26.972   4.991  0.00  0.00    +0.104 C 
ENDBRANCH  29  30
ENDBRANCH  28  29
ENDBRANCH  27  28
ENDBRANCH  19  27
ENDBRANCH  15  18
BRANCH   1  33
ATOM     33  C   LIG    1       26.353 -30.374  12.352  0.00  0.00    +0.111 C 
BRANCH  33  35
ATOM     34  C   LIG    1       27.526 -28.782  13.913  0.00  0.00    +0.005 C 
ATOM     35  C   LIG    1       26.889 -29.944  13.696  0.00  0.00    -0.019 C 
ENDBRANCH  33  35
ENDBRANCH   1  33
TORSDOF 8
ENDMDL
MODEL 7
REMARK VINA RESULT:      -5.2      3.161      6.147
REMARK  Name = *****
REMARK                            x       y       z     vdW  Elec       q    Type
REMARK                         _______ _______ _______ _____ _____    ______ ____
ROOT
ATOM      1  N   LIG    1       24.652 -26.289  14.227  0.00  0.00    -0.294 NA
ATOM      2  C   LIG    1       23.285 -26.830  14.470  0.00  0.00    +0.069 C 
ATOM      3  C   LIG    1       23.255 -28.406  14.617  0.00  0.00    +0.038 C 
ATOM      4  C   LIG    1       21.844 -28.918  14.789  0.00  0.00    -0.033 C 
ATOM      5  C   LIG    1       20.812 -28.120  14.288  0.00  0.00    +0.006 C 
ATOM      6  C   LIG    1       19.489 -28.508  14.334  0.00  0.00    +0.047 C 
ATOM      7  N   LIG    1       18.779 -27.474  13.764  0.00  0.00    -0.360 NA
ATOM      8  H   LIG    1       17.776 -27.461  13.654  0.00  0.00    +0.165 HD
ATOM      9  C   LIG    1       19.633 -26.472  13.345  0.00  0.00    +0.087 C 
ATOM     10  C   LIG    1       19.116 -29.741  14.873  0.00  0.00    +0.026 C 
ATOM     11  C   LIG    1       20.151 -30.562  15.361  0.00  0.00    +0.002 C 
ATOM     12  C   LIG    1       20.913 -26.864  13.653  0.00  0.00    -0.021 C 
ATOM     13  C   LIG    1       21.493 -30.161  15.324  0.00  0.00    +0.005 C 
ATOM     14  C   LIG    1       23.884 -29.081  13.400  0.00  0.00    +0.023 C 
ATOM     15  C   LIG    1       25.243 -28.470  13.059  0.00  0.00    +0.090 C 
ATOM     16  C   LIG    1       22.257 -26.256  13.429  0.00  0.00    +0.056 C 
ATOM     17  C   LIG    1       25.246 -26.932  13.032  0.00  0.00    +0.097 C 
ENDROOT
BRANCH  15  18
ATOM     18  C   LIG    1       25.740 -29.007  11.708  0.00  0.00    +0.227 C 
ATOM     19  N   LIG    1       27.114 -29.248  11.501  0.00  0.00    -0.226 N 
ATOM     20  C   LIG    1       28.032 -29.361  12.550  0.00  0.00    +0.308 C 
ATOM     21  N   LIG    1       29.338 -29.566  12.180  0.00  0.00    -0.299 N 
ATOM     22  H   LIG    1       29.625 -29.384  11.232  0.00  0.00    +0.150 HD
ATOM     23  O   LIG    1       27.765 -29.319  13.739  0.00  0.00    -0.252 OA
ATOM     24  O   LIG    1       24.922 -29.184  10.802  0.00  0.00    -0.275 OA
BRANCH  21  25
ATOM     25  C   LIG    1       30.393 -29.700  13.165  0.00  0.00    +0.102 C 
ATOM     26  C   LIG    1       31.727 -29.445  12.500  0.00  0.00    +0.024 C 
ENDBRANCH  21  25
BRANCH  19  27
ATOM     27  C   LIG    1       27.451 -29.718  10.134  0.00  0.00    +0.119 C 
BRANCH  27  28
ATOM     28  C   LIG    1       26.988 -31.135   9.747  0.00  0.00    +0.035 C 
BRANCH  28  29
ATOM     29  C   LIG    1       26.314 -31.228   8.368  0.00  0.00    +0.085 C 
BRANCH  29  30
ATOM     30  N   LIG    1       25.415 -32.392   8.240  0.00  0.00    -0.308 NA
ATOM     31  C   LIG    1       25.332 -33.114   9.518  0.00  0.00    +0.104 C 
ATOM     32  C   LIG    1       24.068 -32.015   7.808  0.00  0.00    +0.104 C 
ENDBRANCH  29  30
ENDBRANCH  28  29
ENDBRANCH  27  28
ENDBRANCH  19  27
ENDBRANCH  15  18
BRANCH   1  33
ATOM     33  C   LIG    1       25.529 -26.431  15.408  0.00  0.00    +0.111 C 
BRANCH  33  35
ATOM     34  C   LIG    1       27.134 -24.530  15.011  0.00  0.00    +0.005 C 
ATOM     35  C   LIG    1       26.901 -25.839  15.199  0.00  0.00    -0.019 C 
ENDBRANCH  33  35
ENDBRANCH   1  33
TORSDOF 8
ENDMDL
MODEL 8
REMARK VINA RESULT:      -5.1      3.224      4.039
REMARK  Name = *****
REMARK                            x       y       z     vdW  Elec       q    Type
REMARK                         _______ _______ _______ _____ _____    ______ ____
ROOT
ATOM      1  N   LIG    1       23.800 -32.146  12.436  0.00  0.00    -0.294 NA
ATOM      2  C   LIG    1       22.311 -32.185  12.474  0.00  0.00    +0.069 C 
ATOM      3  C   LIG    1       21.666 -32.711  11.127  0.00  0.00    +0.038 C 
ATOM      4  C   LIG    1       20.157 -32.665  11.183  0.00  0.00    -0.033 C 
ATOM      5  C   LIG    1       19.580 -31.749  12.066  0.00  0.00    +0.006 C 
ATOM      6  C   LIG    1       18.215 -31.576  12.163  0.00  0.00    +0.047 C 
ATOM      7  N   LIG    1       18.031 -30.612  13.131  0.00  0.00    -0.360 NA
ATOM      8  H   LIG    1       17.132 -30.267  13.432  0.00  0.00    +0.165 HD
ATOM      9  C   LIG    1       19.248 -30.171  13.613  0.00  0.00    +0.087 C 
ATOM     10  C   LIG    1       17.335 -32.301  11.358  0.00  0.00    +0.026 C 
ATOM     11  C   LIG    1       17.908 -33.211  10.449  0.00  0.00    +0.002 C 
ATOM     12  C   LIG    1       20.232 -30.862  12.949  0.00  0.00    -0.021 C 
ATOM     13  C   LIG    1       19.295 -33.395  10.360  0.00  0.00    +0.005 C 
ATOM     14  C   LIG    1       22.146 -31.888   9.933  0.00  0.00    +0.023 C 
ATOM     15  C   LIG    1       23.667 -31.738   9.929  0.00  0.00    +0.090 C 
ATOM     16  C   LIG    1       21.724 -30.819  12.984  0.00  0.00    +0.056 C 
ATOM     17  C   LIG    1       24.257 -31.327  11.289  0.00  0.00    +0.097 C 
ENDROOT
BRANCH  15  18
ATOM     18  C   LIG    1       24.094 -30.723   8.858  0.00  0.00    +0.227 C 
ATOM     19  N   LIG    1       25.277 -30.926   8.118  0.00  0.00    -0.226 N 
ATOM     20  C   LIG    1       25.922 -32.166   8.042  0.00  0.00    +0.308 C 
ATOM     21  N   LIG    1       27.080 -32.191   7.304  0.00  0.00    -0.299 N 
ATOM     22  H   LIG    1       27.543 -31.329   7.069  0.00  0.00    +0.150 HD
ATOM     23  O   LIG    1       25.530 -33.205   8.545  0.00  0.00    -0.252 OA
ATOM     24  O   LIG    1       23.407 -29.712   8.688  0.00  0.00    -0.275 OA
BRANCH  21  25
ATOM     25  C   LIG    1       27.849 -33.410   7.144  0.00  0.00    +0.102 C 
ATOM     26  C   LIG    1       28.080 -33.658   5.670  0.00  0.00    +0.024 C 
ENDBRANCH  21  25
BRANCH  19  27
ATOM     27  C   LIG    1       25.588 -29.841   7.154  0.00  0.00    +0.119 C 
BRANCH  27  28
ATOM     28  C   LIG    1       24.946 -29.938   5.758  0.00  0.00    +0.035 C 
BRANCH  28  29
ATOM     29  C   LIG    1       24.475 -28.593   5.181  0.00  0.00    +0.085 C 
BRANCH  29  30
ATOM     30  N   LIG    1       25.159 -27.432   5.785  0.00  0.00    -0.308 NA
ATOM     31  C   LIG    1       26.303 -27.027   4.955  0.00  0.00    +0.104 C 
ATOM     32  C   LIG    1       24.264 -26.288   5.968  0.00  0.00    +0.104 C 
ENDBRANCH  29  30
ENDBRANCH  28  29
ENDBRANCH  27  28
ENDBRANCH  19  27
ENDBRANCH  15  18
BRANCH   1  33
ATOM     33  C   LIG    1       24.395 -33.498  12.404  0.00  0.00    +0.111 C 
BRANCH  33  35
ATOM     34  C   LIG    1       25.449 -32.938  14.622  0.00  0.00    +0.005 C 
ATOM     35  C   LIG    1       25.200 -33.819  13.640  0.00  0.00    -0.019 C 
ENDBRANCH  33  35
ENDBRANCH   1  33
TORSDOF 8
ENDMDL
MODEL 9
REMARK VINA RESULT:      -5.1      4.249      9.261
REMARK  Name = *****
REMARK                            x       y       z     vdW  Elec       q    Type
REMARK                         _______ _______ _______ _____ _____    ______ ____
ROOT
ATOM      1  N   LIG    1       26.693 -22.328   7.293  0.00  0.00    -0.294 NA
ATOM      2  C   LIG    1       25.911 -21.297   6.556  0.00  0.00    +0.069 C 
ATOM      3  C   LIG    1       24.414 -21.730   6.277  0.00  0.00    +0.038 C 
ATOM      4  C   LIG    1       23.679 -20.689   5.466  0.00  0.00    -0.033 C 
ATOM      5  C   LIG    1       24.452 -19.845   4.664  0.00  0.00    +0.006 C 
ATOM      6  C   LIG    1       23.892 -18.896   3.836  0.00  0.00    +0.047 C 
ATOM      7  N   LIG    1       24.953 -18.263   3.224  0.00  0.00    -0.360 NA
ATOM      8  H   LIG    1       24.863 -17.512   2.557  0.00  0.00    +0.165 HD
ATOM      9  C   LIG    1       26.149 -18.817   3.636  0.00  0.00    +0.087 C 
ATOM     10  C   LIG    1       22.507 -18.745   3.743  0.00  0.00    +0.026 C 
ATOM     11  C   LIG    1       21.719 -19.605   4.530  0.00  0.00    +0.002 C 
ATOM     12  C   LIG    1       25.856 -19.819   4.529  0.00  0.00    -0.021 C 
ATOM     13  C   LIG    1       22.290 -20.562   5.380  0.00  0.00    +0.005 C 
ATOM     14  C   LIG    1       24.360 -23.067   5.539  0.00  0.00    +0.023 C 
ATOM     15  C   LIG    1       25.243 -24.117   6.213  0.00  0.00    +0.090 C 
ATOM     16  C   LIG    1       26.690 -20.800   5.284  0.00  0.00    +0.056 C 
ATOM     17  C   LIG    1       26.655 -23.615   6.559  0.00  0.00    +0.097 C 
ENDROOT
BRANCH  15  18
ATOM     18  C   LIG    1       25.347 -25.367   5.326  0.00  0.00    +0.227 C 
ATOM     19  N   LIG    1       25.833 -26.578   5.860  0.00  0.00    -0.226 N 
ATOM     20  C   LIG    1       25.908 -26.826   7.234  0.00  0.00    +0.308 C 
ATOM     21  N   LIG    1       26.432 -28.044   7.592  0.00  0.00    -0.299 N 
ATOM     22  H   LIG    1       26.952 -28.583   6.919  0.00  0.00    +0.150 HD
ATOM     23  O   LIG    1       25.529 -26.075   8.117  0.00  0.00    -0.252 OA
ATOM     24  O   LIG    1       25.037 -25.279   4.135  0.00  0.00    -0.275 OA
BRANCH  21  25
ATOM     25  C   LIG    1       26.569 -28.431   8.983  0.00  0.00    +0.102 C 
ATOM     26  C   LIG    1       25.511 -29.459   9.316  0.00  0.00    +0.024 C 
ENDBRANCH  21  25
BRANCH  19  27
ATOM     27  C   LIG    1       25.924 -27.685   4.875  0.00  0.00    +0.119 C 
BRANCH  27  28
ATOM     28  C   LIG    1       24.868 -28.802   4.977  0.00  0.00    +0.035 C 
BRANCH  28  29
ATOM     29  C   LIG    1       25.450 -30.225   4.990  0.00  0.00    +0.085 C 
BRANCH  29  30
ATOM     30  N   LIG    1       25.332 -30.888   6.304  0.00  0.00    -0.308 NA
ATOM     31  C   LIG    1       23.988 -31.465   6.463  0.00  0.00    +0.104 C 
ATOM     32  C   LIG    1       26.335 -31.936   6.495  0.00  0.00    +0.104 C 
ENDBRANCH  29  30
ENDBRANCH  28  29
ENDBRANCH  27  28
ENDBRANCH  19  27
ENDBRANCH  15  18
BRANCH   1  33
ATOM     33  C   LIG    1       26.233 -22.489   8.688  0.00  0.00    +0.111 C 
BRANCH  33  35
ATOM     34  C   LIG    1       26.189 -20.024   9.206  0.00  0.00    +0.005 C 
ATOM     35  C   LIG    1       25.611 -21.236   9.254  0.00  0.00    -0.019 C 
ENDBRANCH  33  35
ENDBRANCH   1  33
TORSDOF 8
ENDMDL
