MODEL 1
REMARK VINA RESULT:      -5.1      0.000      0.000
REMARK  Name = *****
REMARK                            x       y       z     vdW  Elec       q    Type
REMARK                         _______ _______ _______ _____ _____    ______ ____
ROOT
ATOM      1  C   LIG    1       25.499 -19.885   4.810  0.00  0.00    +0.161 C 
ENDROOT
BRANCH   1   2
ATOM      2  C   LIG    1       26.825 -20.059   5.537  0.00  0.00    -0.018 A 
ATOM      3  C   LIG    1       27.054 -21.104   6.440  0.00  0.00    +0.006 A 
ATOM      4  C   LIG    1       28.296 -21.260   7.062  0.00  0.00    +0.000 A 
ATOM      5  C   LIG    1       29.336 -20.375   6.778  0.00  0.00    +0.000 A 
ATOM      6  C   LIG    1       29.134 -19.343   5.869  0.00  0.00    +0.000 A 
ATOM      7  C   LIG    1       27.893 -19.189   5.245  0.00  0.00    +0.006 A 
ENDBRANCH   1   2
BRANCH   1   9
ATOM      8  C   LIG    1       24.219 -21.568   3.387  0.00  0.00    +0.027 C 
ATOM      9  C   LIG    1       24.488 -21.097   4.832  0.00  0.00    +0.086 C 
BRANCH   9  10
ATOM     10  N   LIG    1       23.245 -20.863   5.616  0.00  0.00    -0.303 NA
ATOM     11  C   LIG    1       22.521 -19.666   5.185  0.00  0.00    +0.105 C 
ATOM     12  C   LIG    1       23.454 -20.830   7.062  0.00  0.00    +0.105 C 
ENDBRANCH   9  10
ENDBRANCH   1   9
BRANCH   1  13
ATOM     13  O   LIG    1       25.801 -19.562   3.442  0.00  0.00    -0.386 OA
ATOM     14  H   LIG    1       26.512 -18.897   3.452  0.00  0.00    +0.210 HD
ENDBRANCH   1  13
TORSDOF 4
ENDMDL
MODEL 2
REMARK VINA RESULT:      -4.2      1.632      2.640
REMARK  Name = *****
REMARK                            x       y       z     vdW  Elec       q    Type
REMARK                         _______ _______ _______ _____ _____    ______ ____
ROOT
ATOM      1  C   LIG    1       24.193 -20.196   4.276  0.00  0.00    +0.161 C 
ENDROOT
BRANCH   1   2
ATOM      2  C   LIG    1       25.445 -20.411   5.114  0.00  0.00    -0.018 A 
ATOM      3  C   LIG    1       26.652 -19.757   4.842  0.00  0.00    +0.006 A 
ATOM      4  C   LIG    1       27.774 -19.946   5.654  0.00  0.00    +0.000 A 
ATOM      5  C   LIG    1       27.700 -20.788   6.763  0.00  0.00    +0.000 A 
ATOM      6  C   LIG    1       26.504 -21.432   7.062  0.00  0.00    +0.000 A 
ATOM      7  C   LIG    1       25.382 -21.240   6.251  0.00  0.00    +0.006 A 
ENDBRANCH   1   2
BRANCH   1   9
ATOM      8  C   LIG    1       21.866 -21.021   4.911  0.00  0.00    +0.027 C 
ATOM      9  C   LIG    1       22.855 -19.843   5.037  0.00  0.00    +0.086 C 
BRANCH   9  10
ATOM     10  N   LIG    1       22.256 -18.530   4.675  0.00  0.00    -0.303 NA
ATOM     11  C   LIG    1       21.096 -18.661   3.792  0.00  0.00    +0.105 C 
ATOM     12  C   LIG    1       23.211 -17.578   4.112  0.00  0.00    +0.105 C 
ENDBRANCH   9  10
ENDBRANCH   1   9
BRANCH   1  13
ATOM     13  O   LIG    1       23.983 -21.391   3.506  0.00  0.00    -0.386 OA
ATOM     14  H   LIG    1       24.319 -22.138   4.033  0.00  0.00    +0.210 HD
ENDBRANCH   1  13
TORSDOF 4
ENDMDL
MODEL 3
REMARK VINA RESULT:      -4.0      1.591      4.693
REMARK  Name = *****
REMARK                            x       y       z     vdW  Elec       q    Type
REMARK                         _______ _______ _______ _____ _____    ______ ____
ROOT
ATOM      1  C   LIG    1       26.167 -19.707   4.194  0.00  0.00    +0.161 C 
ENDROOT
BRANCH   1   2
ATOM      2  C   LIG    1       24.674 -19.873   4.432  0.00  0.00    -0.018 A 
ATOM      3  C   LIG    1       24.129 -21.027   5.008  0.00  0.00    +0.006 A 
ATOM      4  C   LIG    1       22.756 -21.132   5.250  0.00  0.00    +0.000 A 
ATOM      5  C   LIG    1       21.906 -20.075   4.927  0.00  0.00    +0.000 A 
ATOM      6  C   LIG    1       22.430 -18.913   4.373  0.00  0.00    +0.000 A 
ATOM      7  C   LIG    1       23.803 -18.806   4.133  0.00  0.00    +0.006 A 
ENDBRANCH   1   2
BRANCH   1   9
ATOM      8  C   LIG    1       28.262 -18.604   5.138  0.00  0.00    +0.027 C 
ATOM      9  C   LIG    1       27.099 -19.566   5.461  0.00  0.00    +0.086 C 
BRANCH   9  10
ATOM     10  N   LIG    1       27.547 -20.853   6.057  0.00  0.00    -0.303 NA
ATOM     11  C   LIG    1       26.614 -21.367   7.062  0.00  0.00    +0.105 C 
ATOM     12  C   LIG    1       28.902 -20.813   6.604  0.00  0.00    +0.105 C 
ENDBRANCH   9  10
ENDBRANCH   1   9
BRANCH   1  13
ATOM     13  O   LIG    1       26.342 -18.548   3.363  0.00  0.00    -0.386 OA
ATOM     14  H   LIG    1       27.001 -18.776   2.683  0.00  0.00    +0.210 HD
ENDBRANCH   1  13
TORSDOF 4
ENDMDL
MODEL 4
REMARK VINA RESULT:      -3.7      3.880      5.119
REMARK  Name = *****
REMARK                            x       y       z     vdW  Elec       q    Type
REMARK                         _______ _______ _______ _____ _____    ______ ____
ROOT
ATOM      1  C   LIG    1       25.743 -17.529   3.307  0.00  0.00    +0.161 C 
ENDROOT
BRANCH   1   2
ATOM      2  C   LIG    1       25.378 -16.069   3.538  0.00  0.00    -0.018 A 
ATOM      3  C   LIG    1       24.122 -15.676   4.015  0.00  0.00    +0.006 A 
ATOM      4  C   LIG    1       23.831 -14.330   4.254  0.00  0.00    +0.000 A 
ATOM      5  C   LIG    1       24.802 -13.354   4.029  0.00  0.00    +0.000 A 
ATOM      6  C   LIG    1       26.061 -13.727   3.575  0.00  0.00    +0.000 A 
ATOM      7  C   LIG    1       26.353 -15.073   3.338  0.00  0.00    +0.006 A 
ENDBRANCH   1   2
BRANCH   1   9
ATOM      8  C   LIG    1       25.979 -19.701   4.619  0.00  0.00    +0.027 C 
ATOM      9  C   LIG    1       24.981 -18.617   4.159  0.00  0.00    +0.086 C 
BRANCH   9  10
ATOM     10  N   LIG    1       23.760 -19.175   3.518  0.00  0.00    -0.303 NA
ATOM     11  C   LIG    1       22.542 -18.902   4.284  0.00  0.00    +0.105 C 
ATOM     12  C   LIG    1       23.850 -20.601   3.211  0.00  0.00    +0.105 C 
ENDBRANCH   9  10
ENDBRANCH   1   9
BRANCH   1  13
ATOM     13  O   LIG    1       27.154 -17.660   3.548  0.00  0.00    -0.386 OA
ATOM     14  H   LIG    1       27.326 -17.325   4.446  0.00  0.00    +0.210 HD
ENDBRANCH   1  13
TORSDOF 4
ENDMDL
MODEL 5
REMARK VINA RESULT:      -3.6      1.712      2.383
REMARK  Name = *****
REMARK                            x       y       z     vdW  Elec       q    Type
REMARK                         _______ _______ _______ _____ _____    ______ ____
ROOT
ATOM      1  C   LIG    1       25.031 -20.988   5.839  0.00  0.00    +0.161 C 
ENDROOT
BRANCH   1   2
ATOM      2  C   LIG    1       26.499 -20.671   6.081  0.00  0.00    -0.018 A 
ATOM      3  C   LIG    1       27.316 -21.470   6.891  0.00  0.00    +0.006 A 
ATOM      4  C   LIG    1       28.671 -21.174   7.062  0.00  0.00    +0.000 A 
ATOM      5  C   LIG    1       29.234 -20.075   6.413  0.00  0.00    +0.000 A 
ATOM      6  C   LIG    1       28.444 -19.281   5.590  0.00  0.00    +0.000 A 
ATOM      7  C   LIG    1       27.090 -19.579   5.416  0.00  0.00    +0.006 A 
ENDBRANCH   1   2
BRANCH   1   9
ATOM      8  C   LIG    1       22.787 -19.829   6.184  0.00  0.00    +0.027 C 
ATOM      9  C   LIG    1       24.095 -19.808   5.365  0.00  0.00    +0.086 C 
BRANCH   9  10
ATOM     10  N   LIG    1       23.870 -19.737   3.897  0.00  0.00    -0.303 NA
ATOM     11  C   LIG    1       24.814 -20.560   3.138  0.00  0.00    +0.105 C 
ATOM     12  C   LIG    1       23.851 -18.376   3.365  0.00  0.00    +0.105 C 
ENDBRANCH   9  10
ENDBRANCH   1   9
BRANCH   1  13
ATOM     13  O   LIG    1       24.503 -21.531   7.061  0.00  0.00    -0.386 OA
ATOM     14  H   LIG    1       23.563 -21.730   6.907  0.00  0.00    +0.210 HD
ENDBRANCH   1  13
TORSDOF 4
ENDMDL
MODEL 6
REMARK VINA RESULT:      -3.4      4.780      6.612
REMARK  Name = *****
REMARK                            x       y       z     vdW  Elec       q    Type
REMARK                         _______ _______ _______ _____ _____    ______ ____
ROOT
ATOM      1  C   LIG    1       23.769 -15.299   3.954  0.00  0.00    +0.161 C 
ENDROOT
BRANCH   1   2
ATOM      2  C   LIG    1       23.604 -16.806   4.078  0.00  0.00    -0.018 A 
ATOM      3  C   LIG    1       22.425 -17.396   4.549  0.00  0.00    +0.006 A 
ATOM      4  C   LIG    1       22.291 -18.786   4.614  0.00  0.00    +0.000 A 
ATOM      5  C   LIG    1       23.335 -19.610   4.196  0.00  0.00    +0.000 A 
ATOM      6  C   LIG    1       24.506 -19.044   3.707  0.00  0.00    +0.000 A 
ATOM      7  C   LIG    1       24.640 -17.654   3.639  0.00  0.00    +0.006 A 
ENDBRANCH   1   2
BRANCH   1   9
ATOM      8  C   LIG    1       25.430 -13.667   4.992  0.00  0.00    +0.027 C 
ATOM      9  C   LIG    1       25.239 -14.727   3.886  0.00  0.00    +0.086 C 
BRANCH   9  10
ATOM     10  N   LIG    1       25.668 -14.258   2.541  0.00  0.00    -0.303 NA
ATOM     11  C   LIG    1       27.112 -14.029   2.455  0.00  0.00    +0.105 C 
ATOM     12  C   LIG    1       24.944 -13.081   2.065  0.00  0.00    +0.105 C 
ENDBRANCH   9  10
ENDBRANCH   1   9
BRANCH   1  13
ATOM     13  O   LIG    1       23.095 -14.701   5.074  0.00  0.00    -0.386 OA
ATOM     14  H   LIG    1       22.304 -14.250   4.728  0.00  0.00    +0.210 HD
ENDBRANCH   1  13
TORSDOF 4
ENDMDL
MODEL 7
REMARK VINA RESULT:      -3.3      4.839      6.703
REMARK  Name = *****
REMARK                            x       y       z     vdW  Elec       q    Type
REMARK                         _______ _______ _______ _____ _____    ______ ____
ROOT
ATOM      1  C   LIG    1       23.622 -15.263   4.018  0.00  0.00    +0.161 C 
ENDROOT
BRANCH   1   2
ATOM      2  C   LIG    1       23.536 -16.782   4.048  0.00  0.00    -0.018 A 
ATOM      3  C   LIG    1       24.600 -17.602   3.654  0.00  0.00    +0.006 A 
ATOM      4  C   LIG    1       24.503 -18.995   3.731  0.00  0.00    +0.000 A 
ATOM      5  C   LIG    1       23.339 -19.589   4.216  0.00  0.00    +0.000 A 
ATOM      6  C   LIG    1       22.279 -18.792   4.631  0.00  0.00    +0.000 A 
ATOM      7  C   LIG    1       22.376 -17.399   4.557  0.00  0.00    +0.006 A 
ENDBRANCH   1   2
BRANCH   1   9
ATOM      8  C   LIG    1       25.192 -13.533   5.038  0.00  0.00    +0.027 C 
ATOM      9  C   LIG    1       25.059 -14.613   3.944  0.00  0.00    +0.086 C 
BRANCH   9  10
ATOM     10  N   LIG    1       25.462 -14.136   2.594  0.00  0.00    -0.303 NA
ATOM     11  C   LIG    1       26.914 -14.018   2.445  0.00  0.00    +0.105 C 
ATOM     12  C   LIG    1       24.813 -12.892   2.187  0.00  0.00    +0.105 C 
ENDBRANCH   9  10
ENDBRANCH   1   9
BRANCH   1  13
ATOM     13  O   LIG    1       22.957 -14.774   5.195  0.00  0.00    -0.386 OA
ATOM     14  H   LIG    1       22.003 -14.759   5.002  0.00  0.00    +0.210 HD
ENDBRANCH   1  13
TORSDOF 4
ENDMDL
MODEL 8
REMARK VINA RESULT:      -3.3      2.802      4.140
REMARK  Name = *****
REMARK                            x       y       z     vdW  Elec       q    Type
REMARK                         _______ _______ _______ _____ _____    ______ ____
ROOT
ATOM      1  C   LIG    1       24.610 -19.119   3.718  0.00  0.00    +0.161 C 
ENDROOT
BRANCH   1   2
ATOM      2  C   LIG    1       24.784 -17.608   3.695  0.00  0.00    -0.018 A 
ATOM      3  C   LIG    1       23.770 -16.730   4.096  0.00  0.00    +0.006 A 
ATOM      4  C   LIG    1       23.974 -15.347   4.101  0.00  0.00    +0.000 A 
ATOM      5  C   LIG    1       25.206 -14.821   3.714  0.00  0.00    +0.000 A 
ATOM      6  C   LIG    1       26.232 -15.677   3.332  0.00  0.00    +0.000 A 
ATOM      7  C   LIG    1       26.029 -17.060   3.329  0.00  0.00    +0.006 A 
ENDBRANCH   1   2
BRANCH   1   9
ATOM      8  C   LIG    1       26.001 -20.440   5.397  0.00  0.00    +0.027 C 
ATOM      9  C   LIG    1       24.607 -19.835   5.125  0.00  0.00    +0.086 C 
BRANCH   9  10
ATOM     10  N   LIG    1       23.495 -20.800   5.336  0.00  0.00    -0.303 NA
ATOM     11  C   LIG    1       22.215 -20.312   4.817  0.00  0.00    +0.105 C 
ATOM     12  C   LIG    1       23.341 -21.233   6.723  0.00  0.00    +0.105 C 
ENDBRANCH   9  10
ENDBRANCH   1   9
BRANCH   1  13
ATOM     13  O   LIG    1       25.663 -19.683   2.918  0.00  0.00    -0.386 OA
ATOM     14  H   LIG    1       25.776 -19.107   2.141  0.00  0.00    +0.210 HD
ENDBRANCH   1  13
TORSDOF 4
ENDMDL
MODEL 9
REMARK VINA RESULT:      -3.1      4.887      6.751
REMARK  Name = *****
REMARK                            x       y       z     vdW  Elec       q    Type
REMARK                         _______ _______ _______ _____ _____    ______ ____
ROOT
ATOM      1  C   LIG    1       24.706 -15.054   3.731  0.00  0.00    +0.161 C 
ENDROOT
BRANCH   1   2
ATOM      2  C   LIG    1       24.424 -16.550   3.752  0.00  0.00    -0.018 A 
ATOM      3  C   LIG    1       25.394 -17.500   3.413  0.00  0.00    +0.006 A 
ATOM      4  C   LIG    1       25.116 -18.869   3.479  0.00  0.00    +0.000 A 
ATOM      5  C   LIG    1       23.861 -19.308   3.900  0.00  0.00    +0.000 A 
ATOM      6  C   LIG    1       22.891 -18.379   4.259  0.00  0.00    +0.000 A 
ATOM      7  C   LIG    1       23.169 -17.011   4.195  0.00  0.00    +0.006 A 
ENDBRANCH   1   2
BRANCH   1   9
ATOM      8  C   LIG    1       26.106 -13.690   5.367  0.00  0.00    +0.027 C 
ATOM      9  C   LIG    1       26.164 -14.579   4.106  0.00  0.00    +0.086 C 
BRANCH   9  10
ATOM     10  N   LIG    1       26.930 -13.966   2.988  0.00  0.00    -0.303 NA
ATOM     11  C   LIG    1       28.191 -13.365   3.428  0.00  0.00    +0.105 C 
ATOM     12  C   LIG    1       26.163 -13.003   2.201  0.00  0.00    +0.105 C 
ENDBRANCH   9  10
ENDBRANCH   1   9
BRANCH   1  13
ATOM     13  O   LIG    1       23.773 -14.431   4.631  0.00  0.00    -0.386 OA
ATOM     14  H   LIG    1       23.151 -15.120   4.924  0.00  0.00    +0.210 HD
ENDBRANCH   1  13
TORSDOF 4
ENDMDL
