MODEL 1
REMARK VINA RESULT:      -9.3      0.000      0.000
REMARK  Name = *****
REMARK                            x       y       z     vdW  Elec       q    Type
REMARK                         _______ _______ _______ _____ _____    ______ ____
ROOT
ATOM      1  C   LIG    1       26.701 -20.298   6.117  0.00  0.00    +0.126 A 
ATOM      2  C   LIG    1       25.384 -20.686   6.295  0.00  0.00    +0.081 A 
ATOM      3  S   LIG    1       24.508 -20.502   4.823  0.00  0.00    -0.092 S 
ATOM      4  C   LIG    1       25.829 -19.791   4.017  0.00  0.00    +0.048 A 
ATOM      5  C   LIG    1       26.946 -19.735   4.820  0.00  0.00    +0.037 A 
ENDROOT
BRANCH   1   6
ATOM      6  S   LIG    1       27.966 -20.437   7.301  0.00  0.00    +0.076 S 
ATOM      7  O   LIG    1       27.387 -19.901   8.517  0.00  0.00    -0.150 OA
ATOM      8  O   LIG    1       28.364 -21.813   7.205  0.00  0.00    -0.150 OA
BRANCH   6   9
ATOM      9  N   LIG    1       29.244 -19.425   6.800  0.00  0.00    -0.182 N 
ATOM     10  H   LIG    1       28.782 -18.537   6.570  0.00  0.00    +0.177 HD
BRANCH   9  15
ATOM     11  C   LIG    1       32.364 -17.628  10.278  0.00  0.00    +0.071 C 
ATOM     12  C   LIG    1       31.576 -18.503   9.378  0.00  0.00    +0.101 A 
ATOM     13  C   LIG    1       30.451 -18.165   8.592  0.00  0.00    +0.126 A 
ATOM     14 CL   LIG    1       29.653 -16.667   8.556  0.00  0.00    -0.076 Cl
ATOM     15  C   LIG    1       30.195 -19.298   7.855  0.00  0.00    +0.255 A 
ATOM     16  O   LIG    1       31.035 -20.288   8.258  0.00  0.00    -0.336 OA
ATOM     17  N   LIG    1       31.922 -19.788   9.202  0.00  0.00    -0.080 NA
ENDBRANCH   9  15
ENDBRANCH   6   9
ENDBRANCH   1   6
BRANCH   2  18
ATOM     18  C   LIG    1       24.733 -21.176   7.519  0.00  0.00    +0.176 C 
ATOM     19  O   LIG    1       23.791 -20.564   8.031  0.00  0.00    -0.291 OA
BRANCH  18  20
ATOM     20  C   LIG    1       25.207 -22.510   8.103  0.00  0.00    +0.115 C 
BRANCH  20  21
ATOM     21  C   LIG    1       25.051 -23.706   7.178  0.00  0.00    -0.033 A 
ATOM     22  C   LIG    1       23.804 -24.081   6.596  0.00  0.00    -0.043 A 
ATOM     23  C   LIG    1       22.501 -23.399   6.917  0.00  0.00    +0.044 C 
ATOM     24  C   LIG    1       23.742 -25.197   5.738  0.00  0.00    +0.053 A 
ATOM     25  C   LIG    1       24.893 -25.912   5.492  0.00  0.00    +0.167 A 
ATOM     26  O   LIG    1       24.992 -27.013   4.701  0.00  0.00    -0.453 OA
ATOM     27  C   LIG    1       26.382 -27.350   4.886  0.00  0.00    +0.466 C 
ATOM     28  O   LIG    1       27.096 -26.407   5.712  0.00  0.00    -0.453 OA
ATOM     29  C   LIG    1       26.089 -25.565   6.065  0.00  0.00    +0.167 A 
ATOM     30  C   LIG    1       26.202 -24.476   6.903  0.00  0.00    +0.053 A 
ENDBRANCH  20  21
ENDBRANCH  18  20
ENDBRANCH   2  18
TORSDOF 6
ENDMDL
MODEL 2
REMARK VINA RESULT:      -8.9      2.081      2.888
REMARK  Name = *****
REMARK                            x       y       z     vdW  Elec       q    Type
REMARK                         _______ _______ _______ _____ _____    ______ ____
ROOT
ATOM      1  C   LIG    1       29.533 -19.333   7.005  0.00  0.00    +0.126 A 
ATOM      2  C   LIG    1       28.355 -20.051   6.882  0.00  0.00    +0.081 A 
ATOM      3  S   LIG    1       27.558 -19.636   5.412  0.00  0.00    -0.092 S 
ATOM      4  C   LIG    1       28.696 -18.428   5.028  0.00  0.00    +0.048 A 
ATOM      5  C   LIG    1       29.704 -18.362   5.963  0.00  0.00    +0.037 A 
ENDROOT
BRANCH   1   6
ATOM      6  S   LIG    1       30.710 -19.528   8.269  0.00  0.00    +0.076 S 
ATOM      7  O   LIG    1       29.925 -19.766   9.464  0.00  0.00    -0.150 OA
ATOM      8  O   LIG    1       31.599 -20.527   7.746  0.00  0.00    -0.150 OA
BRANCH   6   9
ATOM      9  N   LIG    1       31.532 -18.043   8.430  0.00  0.00    -0.182 N 
ATOM     10  H   LIG    1       31.013 -17.404   7.817  0.00  0.00    +0.177 HD
BRANCH   9  15
ATOM     11  C   LIG    1       32.556 -15.840  12.807  0.00  0.00    +0.071 C 
ATOM     12  C   LIG    1       31.979 -16.671  11.724  0.00  0.00    +0.101 A 
ATOM     13  C   LIG    1       32.159 -16.540  10.329  0.00  0.00    +0.126 A 
ATOM     14 CL   LIG    1       33.025 -15.319   9.529  0.00  0.00    -0.076 Cl
ATOM     15  C   LIG    1       31.518 -17.634   9.796  0.00  0.00    +0.255 A 
ATOM     16  O   LIG    1       30.893 -18.311  10.796  0.00  0.00    -0.336 OA
ATOM     17  N   LIG    1       31.196 -17.722  12.015  0.00  0.00    -0.080 NA
ENDBRANCH   9  15
ENDBRANCH   6   9
ENDBRANCH   1   6
BRANCH   2  18
ATOM     18  C   LIG    1       27.778 -21.026   7.819  0.00  0.00    +0.176 C 
ATOM     19  O   LIG    1       28.492 -21.830   8.426  0.00  0.00    -0.291 OA
BRANCH  18  20
ATOM     20  C   LIG    1       26.270 -20.968   8.081  0.00  0.00    +0.115 C 
BRANCH  20  21
ATOM     21  C   LIG    1       25.477 -22.140   7.524  0.00  0.00    -0.033 A 
ATOM     22  C   LIG    1       24.112 -22.035   7.125  0.00  0.00    -0.043 A 
ATOM     23  C   LIG    1       23.288 -20.788   7.309  0.00  0.00    +0.044 C 
ATOM     24  C   LIG    1       23.447 -23.165   6.607  0.00  0.00    +0.053 A 
ATOM     25  C   LIG    1       24.134 -24.354   6.511  0.00  0.00    +0.167 A 
ATOM     26  O   LIG    1       23.631 -25.528   6.045  0.00  0.00    -0.453 OA
ATOM     27  C   LIG    1       24.760 -26.402   6.250  0.00  0.00    +0.466 C 
ATOM     28  O   LIG    1       25.928 -25.722   6.754  0.00  0.00    -0.453 OA
ATOM     29  C   LIG    1       25.441 -24.462   6.911  0.00  0.00    +0.167 A 
ATOM     30  C   LIG    1       26.136 -23.384   7.416  0.00  0.00    +0.053 A 
ENDBRANCH  20  21
ENDBRANCH  18  20
ENDBRANCH   2  18
TORSDOF 6
ENDMDL
MODEL 3
REMARK VINA RESULT:      -8.7      3.302      7.150
REMARK  Name = *****
REMARK                            x       y       z     vdW  Elec       q    Type
REMARK                         _______ _______ _______ _____ _____    ______ ____
ROOT
ATOM      1  C   LIG    1       23.711 -21.362   5.785  0.00  0.00    +0.126 A 
ATOM      2  C   LIG    1       24.762 -20.475   5.619  0.00  0.00    +0.081 A 
ATOM      3  S   LIG    1       24.437 -19.413   4.302  0.00  0.00    -0.092 S 
ATOM      4  C   LIG    1       22.994 -20.217   3.888  0.00  0.00    +0.048 A 
ATOM      5  C   LIG    1       22.717 -21.247   4.758  0.00  0.00    +0.037 A 
ENDROOT
BRANCH   1   6
ATOM      6  S   LIG    1       23.561 -22.524   7.069  0.00  0.00    +0.076 S 
ATOM      7  O   LIG    1       23.329 -21.725   8.258  0.00  0.00    -0.150 OA
ATOM      8  O   LIG    1       22.571 -23.439   6.578  0.00  0.00    -0.150 OA
BRANCH   6   9
ATOM      9  N   LIG    1       25.064 -23.315   7.216  0.00  0.00    -0.182 N 
ATOM     10  H   LIG    1       25.051 -23.699   8.169  0.00  0.00    +0.177 HD
BRANCH   9  15
ATOM     11  C   LIG    1       26.209 -27.475   4.678  0.00  0.00    +0.071 C 
ATOM     12  C   LIG    1       25.689 -26.152   5.096  0.00  0.00    +0.101 A 
ATOM     13  C   LIG    1       25.598 -25.620   6.401  0.00  0.00    +0.126 A 
ATOM     14 CL   LIG    1       25.984 -26.415   7.850  0.00  0.00    -0.076 Cl
ATOM     15  C   LIG    1       25.174 -24.325   6.214  0.00  0.00    +0.255 A 
ATOM     16  O   LIG    1       24.913 -24.130   4.894  0.00  0.00    -0.336 OA
ATOM     17  N   LIG    1       25.256 -25.271   4.181  0.00  0.00    -0.080 NA
ENDBRANCH   9  15
ENDBRANCH   6   9
ENDBRANCH   1   6
BRANCH   2  18
ATOM     18  C   LIG    1       26.013 -20.387   6.386  0.00  0.00    +0.176 C 
ATOM     19  O   LIG    1       26.004 -20.321   7.619  0.00  0.00    -0.291 OA
BRANCH  18  20
ATOM     20  C   LIG    1       27.335 -20.456   5.616  0.00  0.00    +0.115 C 
BRANCH  20  21
ATOM     21  C   LIG    1       28.582 -20.281   6.467  0.00  0.00    -0.033 A 
ATOM     22  C   LIG    1       29.463 -19.167   6.337  0.00  0.00    -0.043 A 
ATOM     23  C   LIG    1       29.308 -18.107   5.279  0.00  0.00    +0.044 C 
ATOM     24  C   LIG    1       30.595 -19.070   7.171  0.00  0.00    +0.053 A 
ATOM     25  C   LIG    1       30.831 -20.068   8.089  0.00  0.00    +0.167 A 
ATOM     26  O   LIG    1       31.880 -20.124   8.953  0.00  0.00    -0.453 OA
ATOM     27  C   LIG    1       31.636 -21.395   9.588  0.00  0.00    +0.466 C 
ATOM     28  O   LIG    1       30.416 -22.030   9.152  0.00  0.00    -0.453 OA
ATOM     29  C   LIG    1       29.996 -21.150   8.204  0.00  0.00    +0.167 A 
ATOM     30  C   LIG    1       28.873 -21.285   7.416  0.00  0.00    +0.053 A 
ENDBRANCH  20  21
ENDBRANCH  18  20
ENDBRANCH   2  18
TORSDOF 6
ENDMDL
MODEL 4
REMARK VINA RESULT:      -8.5      2.178      2.747
REMARK  Name = *****
REMARK                            x       y       z     vdW  Elec       q    Type
REMARK                         _______ _______ _______ _____ _____    ______ ____
ROOT
ATOM      1  C   LIG    1       25.848 -21.401   6.561  0.00  0.00    +0.126 A 
ATOM      2  C   LIG    1       25.097 -22.451   6.059  0.00  0.00    +0.081 A 
ATOM      3  S   LIG    1       24.354 -21.992   4.574  0.00  0.00    -0.092 S 
ATOM      4  C   LIG    1       24.916 -20.387   4.682  0.00  0.00    +0.048 A 
ATOM      5  C   LIG    1       25.704 -20.197   5.794  0.00  0.00    +0.037 A 
ENDROOT
BRANCH   1   6
ATOM      6  S   LIG    1       26.863 -21.467   7.969  0.00  0.00    +0.076 S 
ATOM      7  O   LIG    1       26.933 -20.095   8.432  0.00  0.00    -0.150 OA
ATOM      8  O   LIG    1       26.261 -22.496   8.768  0.00  0.00    -0.150 OA
BRANCH   6   9
ATOM      9  N   LIG    1       28.413 -21.959   7.456  0.00  0.00    -0.182 N 
ATOM     10  H   LIG    1       28.373 -21.878   6.433  0.00  0.00    +0.177 HD
BRANCH   9  15
ATOM     11  C   LIG    1       31.862 -18.419   8.247  0.00  0.00    +0.071 C 
ATOM     12  C   LIG    1       30.928 -19.561   8.382  0.00  0.00    +0.101 A 
ATOM     13  C   LIG    1       29.844 -19.909   7.545  0.00  0.00    +0.126 A 
ATOM     14 CL   LIG    1       29.275 -19.034   6.207  0.00  0.00    -0.076 Cl
ATOM     15  C   LIG    1       29.402 -21.114   8.040  0.00  0.00    +0.255 A 
ATOM     16  O   LIG    1       30.098 -21.411   9.170  0.00  0.00    -0.336 OA
ATOM     17  N   LIG    1       31.075 -20.447   9.379  0.00  0.00    -0.080 NA
ENDBRANCH   9  15
ENDBRANCH   6   9
ENDBRANCH   1   6
BRANCH   2  18
ATOM     18  C   LIG    1       24.887 -23.785   6.640  0.00  0.00    +0.176 C 
ATOM     19  O   LIG    1       23.772 -24.145   7.030  0.00  0.00    -0.291 OA
BRANCH  18  20
ATOM     20  C   LIG    1       26.078 -24.748   6.681  0.00  0.00    +0.115 C 
BRANCH  20  21
ATOM     21  C   LIG    1       25.728 -26.209   6.453  0.00  0.00    -0.033 A 
ATOM     22  C   LIG    1       25.343 -26.726   5.180  0.00  0.00    -0.043 A 
ATOM     23  C   LIG    1       25.144 -25.865   3.961  0.00  0.00    +0.044 C 
ATOM     24  C   LIG    1       25.044 -28.097   5.045  0.00  0.00    +0.053 A 
ATOM     25  C   LIG    1       25.119 -28.906   6.156  0.00  0.00    +0.167 A 
ATOM     26  O   LIG    1       24.852 -30.239   6.190  0.00  0.00    -0.453 OA
ATOM     27  C   LIG    1       25.025 -30.511   7.595  0.00  0.00    +0.466 C 
ATOM     28  O   LIG    1       25.464 -29.363   8.352  0.00  0.00    -0.453 OA
ATOM     29  C   LIG    1       25.470 -28.408   7.384  0.00  0.00    +0.167 A 
ATOM     30  C   LIG    1       25.780 -27.077   7.565  0.00  0.00    +0.053 A 
ENDBRANCH  20  21
ENDBRANCH  18  20
ENDBRANCH   2  18
TORSDOF 6
ENDMDL
MODEL 5
REMARK VINA RESULT:      -8.4      3.233      8.003
REMARK  Name = *****
REMARK                            x       y       z     vdW  Elec       q    Type
REMARK                         _______ _______ _______ _____ _____    ______ ____
ROOT
ATOM      1  C   LIG    1       25.316 -21.394   6.115  0.00  0.00    +0.126 A 
ATOM      2  C   LIG    1       26.519 -20.711   6.195  0.00  0.00    +0.081 A 
ATOM      3  S   LIG    1       26.648 -19.584   4.899  0.00  0.00    -0.092 S 
ATOM      4  C   LIG    1       25.193 -20.103   4.180  0.00  0.00    +0.048 A 
ATOM      5  C   LIG    1       24.576 -21.080   4.926  0.00  0.00    +0.037 A 
ENDROOT
BRANCH   1   6
ATOM      6  S   LIG    1       24.719 -22.532   7.284  0.00  0.00    +0.076 S 
ATOM      7  O   LIG    1       24.681 -21.789   8.529  0.00  0.00    -0.150 OA
ATOM      8  O   LIG    1       23.519 -23.036   6.678  0.00  0.00    -0.150 OA
BRANCH   6   9
ATOM      9  N   LIG    1       25.874 -23.779   7.416  0.00  0.00    -0.182 N 
ATOM     10  H   LIG    1       25.749 -24.133   8.372  0.00  0.00    +0.177 HD
BRANCH   9  15
ATOM     11  C   LIG    1       25.750 -28.036   4.785  0.00  0.00    +0.071 C 
ATOM     12  C   LIG    1       25.580 -26.643   5.260  0.00  0.00    +0.101 A 
ATOM     13  C   LIG    1       25.796 -26.128   6.558  0.00  0.00    +0.126 A 
ATOM     14 CL   LIG    1       26.222 -27.014   7.942  0.00  0.00    -0.076 Cl
ATOM     15  C   LIG    1       25.623 -24.770   6.421  0.00  0.00    +0.255 A 
ATOM     16  O   LIG    1       25.214 -24.502   5.153  0.00  0.00    -0.336 OA
ATOM     17  N   LIG    1       25.205 -25.674   4.410  0.00  0.00    -0.080 NA
ENDBRANCH   9  15
ENDBRANCH   6   9
ENDBRANCH   1   6
BRANCH   2  18
ATOM     18  C   LIG    1       27.593 -20.868   7.186  0.00  0.00    +0.176 C 
ATOM     19  O   LIG    1       27.344 -21.167   8.358  0.00  0.00    -0.291 OA
BRANCH  18  20
ATOM     20  C   LIG    1       29.041 -20.725   6.707  0.00  0.00    +0.115 C 
BRANCH  20  21
ATOM     21  C   LIG    1       29.973 -20.024   7.682  0.00  0.00    -0.033 A 
ATOM     22  C   LIG    1       30.805 -20.726   8.603  0.00  0.00    -0.043 A 
ATOM     23  C   LIG    1       30.772 -22.221   8.778  0.00  0.00    +0.044 C 
ATOM     24  C   LIG    1       31.651 -20.004   9.469  0.00  0.00    +0.053 A 
ATOM     25  C   LIG    1       31.643 -18.629   9.413  0.00  0.00    +0.167 A 
ATOM     26  O   LIG    1       32.390 -17.797  10.186  0.00  0.00    -0.453 OA
ATOM     27  C   LIG    1       31.912 -16.513   9.735  0.00  0.00    +0.466 C 
ATOM     28  O   LIG    1       30.957 -16.602   8.657  0.00  0.00    -0.453 OA
ATOM     29  C   LIG    1       30.831 -17.951   8.541  0.00  0.00    +0.167 A 
ATOM     30  C   LIG    1       29.992 -18.612   7.669  0.00  0.00    +0.053 A 
ENDBRANCH  20  21
ENDBRANCH  18  20
ENDBRANCH   2  18
TORSDOF 6
ENDMDL
MODEL 6
REMARK VINA RESULT:      -8.2      3.590      7.232
REMARK  Name = *****
REMARK                            x       y       z     vdW  Elec       q    Type
REMARK                         _______ _______ _______ _____ _____    ______ ____
ROOT
ATOM      1  C   LIG    1       24.305 -22.936   6.986  0.00  0.00    +0.126 A 
ATOM      2  C   LIG    1       25.644 -23.223   7.191  0.00  0.00    +0.081 A 
ATOM      3  S   LIG    1       25.978 -24.851   6.736  0.00  0.00    -0.092 S 
ATOM      4  C   LIG    1       24.342 -25.193   6.407  0.00  0.00    +0.048 A 
ATOM      5  C   LIG    1       23.544 -24.085   6.582  0.00  0.00    +0.037 A 
ENDROOT
BRANCH   1   6
ATOM      6  S   LIG    1       23.560 -21.380   7.192  0.00  0.00    +0.076 S 
ATOM      7  O   LIG    1       22.794 -21.501   8.417  0.00  0.00    -0.150 OA
ATOM      8  O   LIG    1       24.662 -20.465   7.086  0.00  0.00    -0.150 OA
BRANCH   6   9
ATOM      9  N   LIG    1       22.488 -21.153   5.885  0.00  0.00    -0.182 N 
ATOM     10  H   LIG    1       21.580 -20.983   6.336  0.00  0.00    +0.177 HD
BRANCH   9  15
ATOM     11  C   LIG    1       25.195 -18.035   3.055  0.00  0.00    +0.071 C 
ATOM     12  C   LIG    1       24.125 -18.677   3.855  0.00  0.00    +0.101 A 
ATOM     13  C   LIG    1       24.035 -20.022   4.277  0.00  0.00    +0.126 A 
ATOM     14 CL   LIG    1       25.105 -21.281   3.887  0.00  0.00    -0.076 Cl
ATOM     15  C   LIG    1       22.926 -20.053   5.091  0.00  0.00    +0.255 A 
ATOM     16  O   LIG    1       22.323 -18.835   5.063  0.00  0.00    -0.336 OA
ATOM     17  N   LIG    1       23.084 -17.957   4.303  0.00  0.00    -0.080 NA
ENDBRANCH   9  15
ENDBRANCH   6   9
ENDBRANCH   1   6
BRANCH   2  18
ATOM     18  C   LIG    1       26.694 -22.346   7.729  0.00  0.00    +0.176 C 
ATOM     19  O   LIG    1       26.542 -21.749   8.800  0.00  0.00    -0.291 OA
BRANCH  18  20
ATOM     20  C   LIG    1       28.016 -22.252   6.963  0.00  0.00    +0.115 C 
BRANCH  20  21
ATOM     21  C   LIG    1       28.821 -20.990   7.226  0.00  0.00    -0.033 A 
ATOM     22  C   LIG    1       28.614 -19.772   6.513  0.00  0.00    -0.043 A 
ATOM     23  C   LIG    1       27.653 -19.639   5.361  0.00  0.00    +0.044 C 
ATOM     24  C   LIG    1       29.393 -18.640   6.823  0.00  0.00    +0.053 A 
ATOM     25  C   LIG    1       30.353 -18.742   7.805  0.00  0.00    +0.167 A 
ATOM     26  O   LIG    1       31.188 -17.748   8.208  0.00  0.00    -0.453 OA
ATOM     27  C   LIG    1       31.991 -18.451   9.178  0.00  0.00    +0.466 C 
ATOM     28  O   LIG    1       31.571 -19.815   9.390  0.00  0.00    -0.453 OA
ATOM     29  C   LIG    1       30.568 -19.916   8.478  0.00  0.00    +0.167 A 
ATOM     30  C   LIG    1       29.825 -21.048   8.217  0.00  0.00    +0.053 A 
ENDBRANCH  20  21
ENDBRANCH  18  20
ENDBRANCH   2  18
TORSDOF 6
ENDMDL
MODEL 7
REMARK VINA RESULT:      -8.0      2.847      5.631
REMARK  Name = *****
REMARK                            x       y       z     vdW  Elec       q    Type
REMARK                         _______ _______ _______ _____ _____    ______ ____
ROOT
ATOM      1  C   LIG    1       25.471 -22.790   7.071  0.00  0.00    +0.126 A 
ATOM      2  C   LIG    1       24.111 -22.675   6.839  0.00  0.00    +0.081 A 
ATOM      3  S   LIG    1       23.430 -24.226   6.526  0.00  0.00    -0.092 S 
ATOM      4  C   LIG    1       24.946 -25.002   6.563  0.00  0.00    +0.048 A 
ATOM      5  C   LIG    1       25.962 -24.122   6.862  0.00  0.00    +0.037 A 
ENDROOT
BRANCH   1   6
ATOM      6  S   LIG    1       26.529 -21.497   7.549  0.00  0.00    +0.076 S 
ATOM      7  O   LIG    1       26.046 -20.341   6.819  0.00  0.00    -0.150 OA
ATOM      8  O   LIG    1       26.489 -21.545   8.984  0.00  0.00    -0.150 OA
BRANCH   6   9
ATOM      9  N   LIG    1       28.094 -21.889   6.997  0.00  0.00    -0.182 N 
ATOM     10  H   LIG    1       28.069 -21.658   5.996  0.00  0.00    +0.177 HD
BRANCH   9  15
ATOM     11  C   LIG    1       31.577 -18.547   8.320  0.00  0.00    +0.071 C 
ATOM     12  C   LIG    1       30.602 -19.662   8.293  0.00  0.00    +0.101 A 
ATOM     13  C   LIG    1       29.574 -19.905   7.355  0.00  0.00    +0.126 A 
ATOM     14 CL   LIG    1       29.133 -18.908   6.054  0.00  0.00    -0.076 Cl
ATOM     15  C   LIG    1       29.061 -21.129   7.718  0.00  0.00    +0.255 A 
ATOM     16  O   LIG    1       29.661 -21.538   8.867  0.00  0.00    -0.336 OA
ATOM     17  N   LIG    1       30.648 -20.629   9.223  0.00  0.00    -0.080 NA
ENDBRANCH   9  15
ENDBRANCH   6   9
ENDBRANCH   1   6
BRANCH   2  18
ATOM     18  C   LIG    1       23.286 -21.458   6.823  0.00  0.00    +0.176 C 
ATOM     19  O   LIG    1       23.170 -20.751   7.829  0.00  0.00    -0.291 OA
BRANCH  18  20
ATOM     20  C   LIG    1       22.635 -21.047   5.499  0.00  0.00    +0.115 C 
BRANCH  20  21
ATOM     21  C   LIG    1       23.111 -19.718   4.936  0.00  0.00    -0.033 A 
ATOM     22  C   LIG    1       24.259 -19.595   4.099  0.00  0.00    -0.043 A 
ATOM     23  C   LIG    1       25.174 -20.745   3.771  0.00  0.00    +0.044 C 
ATOM     24  C   LIG    1       24.631 -18.327   3.606  0.00  0.00    +0.053 A 
ATOM     25  C   LIG    1       23.879 -17.230   3.960  0.00  0.00    +0.167 A 
ATOM     26  O   LIG    1       24.115 -15.947   3.577  0.00  0.00    -0.453 OA
ATOM     27  C   LIG    1       23.072 -15.258   4.297  0.00  0.00    +0.466 C 
ATOM     28  O   LIG    1       22.196 -16.143   5.024  0.00  0.00    -0.453 OA
ATOM     29  C   LIG    1       22.786 -17.343   4.780  0.00  0.00    +0.167 A 
ATOM     30  C   LIG    1       22.378 -18.561   5.280  0.00  0.00    +0.053 A 
ENDBRANCH  20  21
ENDBRANCH  18  20
ENDBRANCH   2  18
TORSDOF 6
ENDMDL
MODEL 8
REMARK VINA RESULT:      -7.9      1.615      1.927
REMARK  Name = *****
REMARK                            x       y       z     vdW  Elec       q    Type
REMARK                         _______ _______ _______ _____ _____    ______ ____
ROOT
ATOM      1  C   LIG    1       27.745 -19.775   6.005  0.00  0.00    +0.126 A 
ATOM      2  C   LIG    1       26.750 -20.664   6.377  0.00  0.00    +0.081 A 
ATOM      3  S   LIG    1       25.495 -20.676   5.197  0.00  0.00    -0.092 S 
ATOM      4  C   LIG    1       26.207 -19.422   4.291  0.00  0.00    +0.048 A 
ATOM      5  C   LIG    1       27.409 -19.023   4.830  0.00  0.00    +0.037 A 
ENDROOT
BRANCH   1   6
ATOM      6  S   LIG    1       29.253 -19.539   6.836  0.00  0.00    +0.076 S 
ATOM      7  O   LIG    1       29.886 -20.843   6.821  0.00  0.00    -0.150 OA
ATOM      8  O   LIG    1       29.836 -18.416   6.158  0.00  0.00    -0.150 OA
BRANCH   6   9
ATOM      9  N   LIG    1       28.884 -19.118   8.447  0.00  0.00    -0.182 N 
ATOM     10  H   LIG    1       28.897 -20.016   8.946  0.00  0.00    +0.177 HD
BRANCH   9  15
ATOM     11  C   LIG    1       32.918 -17.058  10.577  0.00  0.00    +0.071 C 
ATOM     12  C   LIG    1       31.630 -17.294   9.885  0.00  0.00    +0.101 A 
ATOM     13  C   LIG    1       31.141 -18.499   9.332  0.00  0.00    +0.126 A 
ATOM     14 CL   LIG    1       31.964 -19.980   9.239  0.00  0.00    -0.076 Cl
ATOM     15  C   LIG    1       29.858 -18.198   8.936  0.00  0.00    +0.255 A 
ATOM     16  O   LIG    1       29.634 -16.871   9.130  0.00  0.00    -0.336 OA
ATOM     17  N   LIG    1       30.738 -16.300   9.747  0.00  0.00    -0.080 NA
ENDBRANCH   9  15
ENDBRANCH   6   9
ENDBRANCH   1   6
BRANCH   2  18
ATOM     18  C   LIG    1       26.676 -21.499   7.584  0.00  0.00    +0.176 C 
ATOM     19  O   LIG    1       27.633 -21.589   8.359  0.00  0.00    -0.291 OA
BRANCH  18  20
ATOM     20  C   LIG    1       25.349 -22.197   7.897  0.00  0.00    +0.115 C 
BRANCH  20  21
ATOM     21  C   LIG    1       25.099 -23.478   7.118  0.00  0.00    -0.033 A 
ATOM     22  C   LIG    1       23.809 -23.860   6.646  0.00  0.00    -0.043 A 
ATOM     23  C   LIG    1       22.550 -23.094   6.956  0.00  0.00    +0.044 C 
ATOM     24  C   LIG    1       23.658 -25.059   5.920  0.00  0.00    +0.053 A 
ATOM     25  C   LIG    1       24.767 -25.843   5.695  0.00  0.00    +0.167 A 
ATOM     26  O   LIG    1       24.783 -27.026   5.025  0.00  0.00    -0.453 OA
ATOM     27  C   LIG    1       26.167 -27.400   5.175  0.00  0.00    +0.466 C 
ATOM     28  O   LIG    1       26.960 -26.404   5.855  0.00  0.00    -0.453 OA
ATOM     29  C   LIG    1       26.005 -25.487   6.164  0.00  0.00    +0.167 A 
ATOM     30  C   LIG    1       26.203 -24.321   6.872  0.00  0.00    +0.053 A 
ENDBRANCH  20  21
ENDBRANCH  18  20
ENDBRANCH   2  18
TORSDOF 6
ENDMDL
MODEL 9
REMARK VINA RESULT:      -7.8      2.811      5.495
REMARK  Name = *****
REMARK                            x       y       z     vdW  Elec       q    Type
REMARK                         _______ _______ _______ _____ _____    ______ ____
ROOT
ATOM      1  C   LIG    1       25.814 -22.753   6.855  0.00  0.00    +0.126 A 
ATOM      2  C   LIG    1       24.568 -22.616   6.266  0.00  0.00    +0.081 A 
ATOM      3  S   LIG    1       23.863 -24.166   6.003  0.00  0.00    -0.092 S 
ATOM      4  C   LIG    1       25.254 -24.992   6.538  0.00  0.00    +0.048 A 
ATOM      5  C   LIG    1       26.230 -24.122   6.966  0.00  0.00    +0.037 A 
ENDROOT
BRANCH   1   6
ATOM      6  S   LIG    1       26.820 -21.449   7.409  0.00  0.00    +0.076 S 
ATOM      7  O   LIG    1       26.356 -20.291   6.669  0.00  0.00    -0.150 OA
ATOM      8  O   LIG    1       26.704 -21.520   8.838  0.00  0.00    -0.150 OA
BRANCH   6   9
ATOM      9  N   LIG    1       28.419 -21.806   6.936  0.00  0.00    -0.182 N 
ATOM     10  H   LIG    1       28.445 -21.557   5.940  0.00  0.00    +0.177 HD
BRANCH   9  15
ATOM     11  C   LIG    1       31.733 -18.401   8.514  0.00  0.00    +0.071 C 
ATOM     12  C   LIG    1       30.800 -19.547   8.409  0.00  0.00    +0.101 A 
ATOM     13  C   LIG    1       29.816 -19.788   7.424  0.00  0.00    +0.126 A 
ATOM     14 CL   LIG    1       29.388 -18.757   6.145  0.00  0.00    -0.076 Cl
ATOM     15  C   LIG    1       29.332 -21.041   7.721  0.00  0.00    +0.255 A 
ATOM     16  O   LIG    1       29.903 -21.474   8.877  0.00  0.00    -0.336 OA
ATOM     17  N   LIG    1       30.845 -20.547   9.304  0.00  0.00    -0.080 NA
ENDBRANCH   9  15
ENDBRANCH   6   9
ENDBRANCH   1   6
BRANCH   2  18
ATOM     18  C   LIG    1       23.876 -21.381   5.869  0.00  0.00    +0.176 C 
ATOM     19  O   LIG    1       23.321 -20.662   6.706  0.00  0.00    -0.291 OA
BRANCH  18  20
ATOM     20  C   LIG    1       23.926 -20.969   4.395  0.00  0.00    +0.115 C 
BRANCH  20  21
ATOM     21  C   LIG    1       24.121 -19.481   4.152  0.00  0.00    -0.033 A 
ATOM     22  C   LIG    1       23.051 -18.539   4.203  0.00  0.00    -0.043 A 
ATOM     23  C   LIG    1       21.610 -18.930   4.399  0.00  0.00    +0.044 C 
ATOM     24  C   LIG    1       23.313 -17.173   3.977  0.00  0.00    +0.053 A 
ATOM     25  C   LIG    1       24.602 -16.780   3.697  0.00  0.00    +0.167 A 
ATOM     26  O   LIG    1       25.010 -15.508   3.446  0.00  0.00    -0.453 OA
ATOM     27  C   LIG    1       26.406 -15.727   3.159  0.00  0.00    +0.466 C 
ATOM     28  O   LIG    1       26.817 -17.101   3.320  0.00  0.00    -0.453 OA
ATOM     29  C   LIG    1       25.629 -17.686   3.629  0.00  0.00    +0.167 A 
ATOM     30  C   LIG    1       25.424 -19.031   3.850  0.00  0.00    +0.053 A 
ENDBRANCH  20  21
ENDBRANCH  18  20
ENDBRANCH   2  18
TORSDOF 6
ENDMDL
