MODEL 1
REMARK VINA RESULT:      -7.6      0.000      0.000
REMARK  Name = *****
REMARK                            x       y       z     vdW  Elec       q    Type
REMARK                         _______ _______ _______ _____ _____    ______ ____
ROOT
ATOM      1  C   LIG    1       26.911 -21.032   7.125  0.00  0.00    +0.234 C 
ATOM      2  N   LIG    1       28.222 -21.081   6.633  0.00  0.00    -0.284 N 
ATOM      3  H   LIG    1       28.302 -21.502   5.719  0.00  0.00    +0.155 HD
ATOM      4  O   LIG    1       26.509 -20.239   7.958  0.00  0.00    -0.274 OA
ENDROOT
BRANCH   2   5
ATOM      5  C   LIG    1       29.278 -20.277   7.124  0.00  0.00    +0.039 A 
ATOM      6  C   LIG    1       29.570 -19.048   6.484  0.00  0.00    -0.029 A 
ATOM      7  C   LIG    1       28.813 -18.489   5.310  0.00  0.00    +0.045 C 
ATOM      8  C   LIG    1       30.636 -18.263   6.962  0.00  0.00    +0.005 A 
ATOM      9  C   LIG    1       31.407 -18.677   8.041  0.00  0.00    +0.001 A 
ATOM     10  C   LIG    1       31.141 -19.899   8.645  0.00  0.00    +0.005 A 
ATOM     11  C   LIG    1       30.098 -20.723   8.186  0.00  0.00    -0.029 A 
ATOM     12  C   LIG    1       30.000 -22.102   8.789  0.00  0.00    +0.045 C 
ENDBRANCH   2   5
BRANCH   1  14
ATOM     13  N   LIG    1       24.953 -22.590   7.299  0.00  0.00    -0.291 NA
ATOM     14  C   LIG    1       25.932 -21.972   6.365  0.00  0.00    +0.143 C 
ATOM     15  C   LIG    1       25.279 -21.311   5.137  0.00  0.00    +0.028 C 
ATOM     16  C   LIG    1       24.152 -20.342   5.481  0.00  0.00    +0.003 C 
ATOM     17  C   LIG    1       23.196 -20.920   6.517  0.00  0.00    +0.015 C 
ATOM     18  C   LIG    1       23.928 -21.590   7.685  0.00  0.00    +0.085 C 
BRANCH  13  19
ATOM     19  C   LIG    1       24.339 -23.840   6.799  0.00  0.00    +0.085 C 
BRANCH  19  20
ATOM     20  C   LIG    1       25.342 -24.967   6.460  0.00  0.00    +0.015 C 
BRANCH  20  22
ATOM     21  C   LIG    1       25.853 -26.837   4.822  0.00  0.00    +0.004 C 
ATOM     22  C   LIG    1       25.225 -25.459   5.010  0.00  0.00    -0.002 C 
ENDBRANCH  20  22
ENDBRANCH  19  20
ENDBRANCH  13  19
ENDBRANCH   1  14
TORSDOF 5
ENDMDL
MODEL 2
REMARK VINA RESULT:      -7.4      0.135      1.914
REMARK  Name = *****
REMARK                            x       y       z     vdW  Elec       q    Type
REMARK                         _______ _______ _______ _____ _____    ______ ____
ROOT
ATOM      1  C   LIG    1       26.892 -21.021   7.004  0.00  0.00    +0.234 C 
ATOM      2  N   LIG    1       28.189 -21.109   6.482  0.00  0.00    -0.284 N 
ATOM      3  H   LIG    1       28.238 -21.544   5.573  0.00  0.00    +0.155 HD
ATOM      4  O   LIG    1       26.529 -20.207   7.834  0.00  0.00    -0.274 OA
ENDROOT
BRANCH   2   5
ATOM      5  C   LIG    1       29.275 -20.323   6.935  0.00  0.00    +0.039 A 
ATOM      6  C   LIG    1       30.018 -20.750   8.062  0.00  0.00    -0.029 A 
ATOM      7  C   LIG    1       29.767 -22.021   8.827  0.00  0.00    +0.045 C 
ATOM      8  C   LIG    1       31.083 -19.952   8.523  0.00  0.00    +0.005 A 
ATOM      9  C   LIG    1       31.410 -18.756   7.896  0.00  0.00    +0.001 A 
ATOM     10  C   LIG    1       30.657 -18.322   6.814  0.00  0.00    +0.005 A 
ATOM     11  C   LIG    1       29.573 -19.078   6.333  0.00  0.00    -0.029 A 
ATOM     12  C   LIG    1       28.712 -18.443   5.271  0.00  0.00    +0.045 C 
ENDBRANCH   2   5
BRANCH   1  14
ATOM     13  N   LIG    1       24.913 -22.542   7.249  0.00  0.00    -0.291 NA
ATOM     14  C   LIG    1       25.873 -21.948   6.281  0.00  0.00    +0.143 C 
ATOM     15  C   LIG    1       25.194 -21.283   5.069  0.00  0.00    +0.028 C 
ATOM     16  C   LIG    1       24.096 -20.293   5.441  0.00  0.00    +0.003 C 
ATOM     17  C   LIG    1       23.163 -20.846   6.510  0.00  0.00    +0.015 C 
ATOM     18  C   LIG    1       23.918 -21.521   7.660  0.00  0.00    +0.085 C 
BRANCH  13  19
ATOM     19  C   LIG    1       24.262 -23.784   6.777  0.00  0.00    +0.085 C 
BRANCH  19  20
ATOM     20  C   LIG    1       25.231 -24.944   6.450  0.00  0.00    +0.015 C 
BRANCH  20  22
ATOM     21  C   LIG    1       25.802 -26.764   4.776  0.00  0.00    +0.004 C 
ATOM     22  C   LIG    1       25.148 -25.400   4.986  0.00  0.00    -0.002 C 
ENDBRANCH  20  22
ENDBRANCH  19  20
ENDBRANCH  13  19
ENDBRANCH   1  14
TORSDOF 5
ENDMDL
MODEL 3
REMARK VINA RESULT:      -7.3      1.633      3.467
REMARK  Name = *****
REMARK                            x       y       z     vdW  Elec       q    Type
REMARK                         _______ _______ _______ _____ _____    ______ ____
ROOT
ATOM      1  C   LIG    1       26.081 -20.348   7.033  0.00  0.00    +0.234 C 
ATOM      2  N   LIG    1       27.216 -20.215   6.223  0.00  0.00    -0.284 N 
ATOM      3  H   LIG    1       27.013 -19.937   5.274  0.00  0.00    +0.155 HD
ATOM      4  O   LIG    1       26.077 -20.258   8.248  0.00  0.00    -0.274 OA
ENDROOT
BRANCH   2   5
ATOM      5  C   LIG    1       28.529 -20.062   6.726  0.00  0.00    +0.039 A 
ATOM      6  C   LIG    1       29.360 -19.043   6.200  0.00  0.00    -0.029 A 
ATOM      7  C   LIG    1       28.947 -18.058   5.141  0.00  0.00    +0.045 C 
ATOM      8  C   LIG    1       30.674 -18.910   6.689  0.00  0.00    +0.005 A 
ATOM      9  C   LIG    1       31.167 -19.763   7.669  0.00  0.00    +0.001 A 
ATOM     10  C   LIG    1       30.362 -20.783   8.157  0.00  0.00    +0.005 A 
ATOM     11  C   LIG    1       29.051 -20.963   7.683  0.00  0.00    -0.029 A 
ATOM     12  C   LIG    1       28.320 -22.199   8.144  0.00  0.00    +0.045 C 
ENDBRANCH   2   5
BRANCH   1  14
ATOM     13  N   LIG    1       24.903 -21.332   5.049  0.00  0.00    -0.291 NA
ATOM     14  C   LIG    1       24.754 -20.434   6.225  0.00  0.00    +0.143 C 
ATOM     15  C   LIG    1       23.528 -20.760   7.097  0.00  0.00    +0.028 C 
ATOM     16  C   LIG    1       23.428 -22.227   7.502  0.00  0.00    +0.003 C 
ATOM     17  C   LIG    1       23.682 -23.164   6.328  0.00  0.00    +0.015 C 
ATOM     18  C   LIG    1       24.897 -22.747   5.493  0.00  0.00    +0.085 C 
BRANCH  13  19
ATOM     19  C   LIG    1       23.919 -21.091   3.970  0.00  0.00    +0.085 C 
BRANCH  19  20
ATOM     20  C   LIG    1       23.625 -19.602   3.676  0.00  0.00    +0.015 C 
BRANCH  20  22
ATOM     21  C   LIG    1       22.249 -17.673   4.584  0.00  0.00    +0.004 C 
ATOM     22  C   LIG    1       22.251 -19.148   4.190  0.00  0.00    -0.002 C 
ENDBRANCH  20  22
ENDBRANCH  19  20
ENDBRANCH  13  19
ENDBRANCH   1  14
TORSDOF 5
ENDMDL
MODEL 4
REMARK VINA RESULT:      -7.2      1.627      3.918
REMARK  Name = *****
REMARK                            x       y       z     vdW  Elec       q    Type
REMARK                         _______ _______ _______ _____ _____    ______ ____
ROOT
ATOM      1  C   LIG    1       26.092 -20.359   6.966  0.00  0.00    +0.234 C 
ATOM      2  N   LIG    1       27.225 -20.338   6.143  0.00  0.00    -0.284 N 
ATOM      3  H   LIG    1       27.027 -20.125   5.176  0.00  0.00    +0.155 HD
ATOM      4  O   LIG    1       26.103 -20.177   8.171  0.00  0.00    -0.274 OA
ENDROOT
BRANCH   2   5
ATOM      5  C   LIG    1       28.548 -20.204   6.627  0.00  0.00    +0.039 A 
ATOM      6  C   LIG    1       28.998 -21.058   7.664  0.00  0.00    -0.029 A 
ATOM      7  C   LIG    1       28.178 -22.149   8.295  0.00  0.00    +0.045 C 
ATOM      8  C   LIG    1       30.308 -20.905   8.157  0.00  0.00    +0.005 A 
ATOM      9  C   LIG    1       31.159 -19.930   7.650  0.00  0.00    +0.001 A 
ATOM     10  C   LIG    1       30.703 -19.071   6.659  0.00  0.00    +0.005 A 
ATOM     11  C   LIG    1       29.396 -19.177   6.151  0.00  0.00    -0.029 A 
ATOM     12  C   LIG    1       28.939 -18.094   5.207  0.00  0.00    +0.045 C 
ENDBRANCH   2   5
BRANCH   1  14
ATOM     13  N   LIG    1       24.884 -21.373   5.016  0.00  0.00    -0.291 NA
ATOM     14  C   LIG    1       24.757 -20.449   6.174  0.00  0.00    +0.143 C 
ATOM     15  C   LIG    1       23.536 -20.745   7.065  0.00  0.00    +0.028 C 
ATOM     16  C   LIG    1       23.426 -22.202   7.502  0.00  0.00    +0.003 C 
ATOM     17  C   LIG    1       23.658 -23.165   6.345  0.00  0.00    +0.015 C 
ATOM     18  C   LIG    1       24.869 -22.778   5.490  0.00  0.00    +0.085 C 
BRANCH  13  19
ATOM     19  C   LIG    1       23.892 -21.146   3.942  0.00  0.00    +0.085 C 
BRANCH  19  20
ATOM     20  C   LIG    1       23.594 -19.659   3.634  0.00  0.00    +0.015 C 
BRANCH  20  22
ATOM     21  C   LIG    1       22.239 -17.728   4.569  0.00  0.00    +0.004 C 
ATOM     22  C   LIG    1       22.227 -19.199   4.160  0.00  0.00    -0.002 C 
ENDBRANCH  20  22
ENDBRANCH  19  20
ENDBRANCH  13  19
ENDBRANCH   1  14
TORSDOF 5
ENDMDL
MODEL 5
REMARK VINA RESULT:      -6.8      1.921      7.110
REMARK  Name = *****
REMARK                            x       y       z     vdW  Elec       q    Type
REMARK                         _______ _______ _______ _____ _____    ______ ____
ROOT
ATOM      1  C   LIG    1       28.149 -20.251   7.323  0.00  0.00    +0.234 C 
ATOM      2  N   LIG    1       26.786 -20.048   7.068  0.00  0.00    -0.284 N 
ATOM      3  H   LIG    1       26.543 -19.088   6.872  0.00  0.00    +0.155 HD
ATOM      4  O   LIG    1       28.736 -21.308   7.171  0.00  0.00    -0.274 OA
ENDROOT
BRANCH   2   5
ATOM      5  C   LIG    1       25.892 -21.081   6.699  0.00  0.00    +0.039 A 
ATOM      6  C   LIG    1       25.315 -21.071   5.405  0.00  0.00    -0.029 A 
ATOM      7  C   LIG    1       25.602 -20.044   4.344  0.00  0.00    +0.045 C 
ATOM      8  C   LIG    1       24.408 -22.088   5.052  0.00  0.00    +0.005 A 
ATOM      9  C   LIG    1       24.067 -23.092   5.950  0.00  0.00    +0.001 A 
ATOM     10  C   LIG    1       24.605 -23.079   7.230  0.00  0.00    +0.005 A 
ATOM     11  C   LIG    1       25.500 -22.070   7.630  0.00  0.00    -0.029 A 
ATOM     12  C   LIG    1       25.893 -22.043   9.086  0.00  0.00    +0.045 C 
ENDBRANCH   2   5
BRANCH   1  14
ATOM     13  N   LIG    1       29.612 -19.033   8.955  0.00  0.00    -0.291 NA
ATOM     14  C   LIG    1       28.918 -18.938   7.643  0.00  0.00    +0.143 C 
ATOM     15  C   LIG    1       29.832 -18.469   6.496  0.00  0.00    +0.028 C 
ATOM     16  C   LIG    1       31.133 -19.255   6.380  0.00  0.00    +0.003 C 
ATOM     17  C   LIG    1       31.806 -19.452   7.732  0.00  0.00    +0.015 C 
ATOM     18  C   LIG    1       30.820 -19.883   8.823  0.00  0.00    +0.085 C 
BRANCH  13  19
ATOM     19  C   LIG    1       29.926 -17.726   9.575  0.00  0.00    +0.085 C 
BRANCH  19  20
ATOM     20  C   LIG    1       30.677 -17.808  10.924  0.00  0.00    +0.015 C 
BRANCH  20  22
ATOM     21  C   LIG    1       32.227 -16.295   9.603  0.00  0.00    +0.004 C 
ATOM     22  C   LIG    1       31.995 -17.021  10.926  0.00  0.00    -0.002 C 
ENDBRANCH  20  22
ENDBRANCH  19  20
ENDBRANCH  13  19
ENDBRANCH   1  14
TORSDOF 5
ENDMDL
MODEL 6
REMARK VINA RESULT:      -6.8      3.072      6.134
REMARK  Name = *****
REMARK                            x       y       z     vdW  Elec       q    Type
REMARK                         _______ _______ _______ _____ _____    ______ ____
ROOT
ATOM      1  C   LIG    1       25.635 -25.146   6.009  0.00  0.00    +0.234 C 
ATOM      2  N   LIG    1       25.559 -24.274   7.103  0.00  0.00    -0.284 N 
ATOM      3  H   LIG    1       26.181 -24.512   7.861  0.00  0.00    +0.155 HD
ATOM      4  O   LIG    1       25.327 -24.858   4.865  0.00  0.00    -0.274 OA
ENDROOT
BRANCH   2   5
ATOM      5  C   LIG    1       25.012 -22.971   7.035  0.00  0.00    +0.039 A 
ATOM      6  C   LIG    1       25.853 -21.853   7.253  0.00  0.00    -0.029 A 
ATOM      7  C   LIG    1       27.330 -21.928   7.529  0.00  0.00    +0.045 C 
ATOM      8  C   LIG    1       25.298 -20.560   7.207  0.00  0.00    +0.005 A 
ATOM      9  C   LIG    1       23.945 -20.365   6.959  0.00  0.00    +0.001 A 
ATOM     10  C   LIG    1       23.116 -21.465   6.782  0.00  0.00    +0.005 A 
ATOM     11  C   LIG    1       23.625 -22.774   6.839  0.00  0.00    -0.029 A 
ATOM     12  C   LIG    1       22.623 -23.900   6.809  0.00  0.00    +0.045 C 
ENDBRANCH   2   5
BRANCH   1  14
ATOM     13  N   LIG    1       25.560 -27.274   7.335  0.00  0.00    -0.291 NA
ATOM     14  C   LIG    1       26.342 -26.491   6.340  0.00  0.00    +0.143 C 
ATOM     15  C   LIG    1       26.733 -27.301   5.090  0.00  0.00    +0.028 C 
ATOM     16  C   LIG    1       25.564 -28.027   4.431  0.00  0.00    +0.003 C 
ATOM     17  C   LIG    1       24.691 -28.749   5.449  0.00  0.00    +0.015 C 
ATOM     18  C   LIG    1       24.379 -27.885   6.677  0.00  0.00    +0.085 C 
BRANCH  13  19
ATOM     19  C   LIG    1       26.352 -28.276   8.081  0.00  0.00    +0.085 C 
BRANCH  19  20
ATOM     20  C   LIG    1       25.517 -29.302   8.882  0.00  0.00    +0.015 C 
BRANCH  20  22
ATOM     21  C   LIG    1       26.813 -28.183  10.755  0.00  0.00    +0.004 C 
ATOM     22  C   LIG    1       25.847 -29.304  10.382  0.00  0.00    -0.002 C 
ENDBRANCH  20  22
ENDBRANCH  19  20
ENDBRANCH  13  19
ENDBRANCH   1  14
TORSDOF 5
ENDMDL
MODEL 7
REMARK VINA RESULT:      -6.8      3.057      6.088
REMARK  Name = *****
REMARK                            x       y       z     vdW  Elec       q    Type
REMARK                         _______ _______ _______ _____ _____    ______ ____
ROOT
ATOM      1  C   LIG    1       25.657 -25.109   6.094  0.00  0.00    +0.234 C 
ATOM      2  N   LIG    1       25.567 -24.293   7.230  0.00  0.00    -0.284 N 
ATOM      3  H   LIG    1       26.169 -24.578   7.989  0.00  0.00    +0.155 HD
ATOM      4  O   LIG    1       25.379 -24.758   4.961  0.00  0.00    -0.274 OA
ENDROOT
BRANCH   2   5
ATOM      5  C   LIG    1       25.038 -22.981   7.217  0.00  0.00    +0.039 A 
ATOM      6  C   LIG    1       23.654 -22.793   6.984  0.00  0.00    -0.029 A 
ATOM      7  C   LIG    1       22.659 -23.902   6.772  0.00  0.00    +0.045 C 
ATOM      8  C   LIG    1       23.137 -21.484   6.950  0.00  0.00    +0.005 A 
ATOM      9  C   LIG    1       23.960 -20.380   7.133  0.00  0.00    +0.001 A 
ATOM     10  C   LIG    1       25.322 -20.566   7.326  0.00  0.00    +0.005 A 
ATOM     11  C   LIG    1       25.883 -21.855   7.348  0.00  0.00    -0.029 A 
ATOM     12  C   LIG    1       27.388 -21.946   7.388  0.00  0.00    +0.045 C 
ENDBRANCH   2   5
BRANCH   1  14
ATOM     13  N   LIG    1       25.528 -27.299   7.309  0.00  0.00    -0.291 NA
ATOM     14  C   LIG    1       26.340 -26.479   6.372  0.00  0.00    +0.143 C 
ATOM     15  C   LIG    1       26.747 -27.229   5.090  0.00  0.00    +0.028 C 
ATOM     16  C   LIG    1       25.583 -27.905   4.372  0.00  0.00    +0.003 C 
ATOM     17  C   LIG    1       24.680 -28.666   5.335  0.00  0.00    +0.015 C 
ATOM     18  C   LIG    1       24.354 -27.861   6.598  0.00  0.00    +0.085 C 
BRANCH  13  19
ATOM     19  C   LIG    1       26.292 -28.348   8.020  0.00  0.00    +0.085 C 
BRANCH  19  20
ATOM     20  C   LIG    1       25.433 -29.336   8.843  0.00  0.00    +0.015 C 
BRANCH  20  22
ATOM     21  C   LIG    1       26.806 -28.255  10.683  0.00  0.00    +0.004 C 
ATOM     22  C   LIG    1       25.787 -29.337  10.337  0.00  0.00    -0.002 C 
ENDBRANCH  20  22
ENDBRANCH  19  20
ENDBRANCH  13  19
ENDBRANCH   1  14
TORSDOF 5
ENDMDL
MODEL 8
REMARK VINA RESULT:      -6.3      1.745      7.200
REMARK  Name = *****
REMARK                            x       y       z     vdW  Elec       q    Type
REMARK                         _______ _______ _______ _____ _____    ______ ____
ROOT
ATOM      1  C   LIG    1       26.500 -20.534   7.794  0.00  0.00    +0.234 C 
ATOM      2  N   LIG    1       25.902 -21.086   6.654  0.00  0.00    -0.284 N 
ATOM      3  H   LIG    1       26.488 -21.065   5.832  0.00  0.00    +0.155 HD
ATOM      4  O   LIG    1       26.195 -20.807   8.942  0.00  0.00    -0.274 OA
ENDROOT
BRANCH   2   5
ATOM      5  C   LIG    1       24.788 -21.958   6.692  0.00  0.00    +0.039 A 
ATOM      6  C   LIG    1       25.003 -23.355   6.777  0.00  0.00    -0.029 A 
ATOM      7  C   LIG    1       26.353 -24.014   6.863  0.00  0.00    +0.045 C 
ATOM      8  C   LIG    1       23.892 -24.219   6.792  0.00  0.00    +0.005 A 
ATOM      9  C   LIG    1       22.595 -23.726   6.717  0.00  0.00    +0.001 A 
ATOM     10  C   LIG    1       22.388 -22.358   6.598  0.00  0.00    +0.005 A 
ATOM     11  C   LIG    1       23.471 -21.461   6.560  0.00  0.00    -0.029 A 
ATOM     12  C   LIG    1       23.154 -20.019   6.254  0.00  0.00    +0.045 C 
ENDBRANCH   2   5
BRANCH   1  14
ATOM     13  N   LIG    1       28.639 -19.552   8.661  0.00  0.00    -0.291 NA
ATOM     14  C   LIG    1       27.749 -19.663   7.475  0.00  0.00    +0.143 C 
ATOM     15  C   LIG    1       28.484 -20.094   6.192  0.00  0.00    +0.028 C 
ATOM     16  C   LIG    1       29.343 -21.343   6.361  0.00  0.00    +0.003 C 
ATOM     17  C   LIG    1       30.186 -21.291   7.629  0.00  0.00    +0.015 C 
ATOM     18  C   LIG    1       29.387 -20.818   8.848  0.00  0.00    +0.085 C 
BRANCH  13  19
ATOM     19  C   LIG    1       29.541 -18.379   8.637  0.00  0.00    +0.085 C 
BRANCH  19  20
ATOM     20  C   LIG    1       30.683 -18.414   9.681  0.00  0.00    +0.015 C 
BRANCH  20  22
ATOM     21  C   LIG    1       31.336 -16.423  11.112  0.00  0.00    +0.004 C 
ATOM     22  C   LIG    1       30.370 -17.593  10.940  0.00  0.00    -0.002 C 
ENDBRANCH  20  22
ENDBRANCH  19  20
ENDBRANCH  13  19
ENDBRANCH   1  14
TORSDOF 5
ENDMDL
MODEL 9
REMARK VINA RESULT:      -6.1      2.044      7.216
REMARK  Name = *****
REMARK                            x       y       z     vdW  Elec       q    Type
REMARK                         _______ _______ _______ _____ _____    ______ ____
ROOT
ATOM      1  C   LIG    1       28.116 -20.450   7.617  0.00  0.00    +0.234 C 
ATOM      2  N   LIG    1       26.789 -20.048   7.420  0.00  0.00    -0.284 N 
ATOM      3  H   LIG    1       26.661 -19.047   7.403  0.00  0.00    +0.155 HD
ATOM      4  O   LIG    1       28.578 -21.523   7.270  0.00  0.00    -0.274 OA
ENDROOT
BRANCH   2   5
ATOM      5  C   LIG    1       25.783 -20.887   6.883  0.00  0.00    +0.039 A 
ATOM      6  C   LIG    1       25.239 -21.920   7.684  0.00  0.00    -0.029 A 
ATOM      7  C   LIG    1       25.626 -22.195   9.112  0.00  0.00    +0.045 C 
ATOM      8  C   LIG    1       24.256 -22.765   7.136  0.00  0.00    +0.005 A 
ATOM      9  C   LIG    1       23.818 -22.607   5.827  0.00  0.00    +0.001 A 
ATOM     10  C   LIG    1       24.379 -21.616   5.032  0.00  0.00    +0.005 A 
ATOM     11  C   LIG    1       25.378 -20.762   5.534  0.00  0.00    -0.029 A 
ATOM     12  C   LIG    1       26.046 -19.838   4.547  0.00  0.00    +0.045 C 
ENDBRANCH   2   5
BRANCH   1  14
ATOM     13  N   LIG    1       30.167 -19.871   8.940  0.00  0.00    -0.291 NA
ATOM     14  C   LIG    1       29.030 -19.314   8.158  0.00  0.00    +0.143 C 
ATOM     15  C   LIG    1       29.462 -18.308   7.075  0.00  0.00    +0.028 C 
ATOM     16  C   LIG    1       30.568 -18.821   6.159  0.00  0.00    +0.003 C 
ATOM     17  C   LIG    1       31.694 -19.490   6.938  0.00  0.00    +0.015 C 
ATOM     18  C   LIG    1       31.176 -20.446   8.018  0.00  0.00    +0.085 C 
BRANCH  13  19
ATOM     19  C   LIG    1       30.775 -18.918   9.894  0.00  0.00    +0.085 C 
BRANCH  19  20
ATOM     20  C   LIG    1       30.002 -17.590  10.071  0.00  0.00    +0.015 C 
BRANCH  20  22
ATOM     21  C   LIG    1       32.181 -16.516   9.335  0.00  0.00    +0.004 C 
ATOM     22  C   LIG    1       30.926 -16.370  10.193  0.00  0.00    -0.002 C 
ENDBRANCH  20  22
ENDBRANCH  19  20
ENDBRANCH  13  19
ENDBRANCH   1  14
TORSDOF 5
ENDMDL
