MODEL 1
REMARK VINA RESULT:      -8.2      0.000      0.000
REMARK  Name = *****
REMARK                            x       y       z     vdW  Elec       q    Type
REMARK                         _______ _______ _______ _____ _____    ______ ____
ROOT
ATOM      1  C   LIG    1       25.681 -21.918   7.032  0.00  0.00    +0.101 C 
ENDROOT
BRANCH   1   2
ATOM      2  C   LIG    1       25.350 -23.426   6.808  0.00  0.00    -0.028 A 
ATOM      3  C   LIG    1       26.343 -24.423   6.690  0.00  0.00    +0.005 A 
ATOM      4  C   LIG    1       26.009 -25.760   6.428  0.00  0.00    +0.000 A 
ATOM      5  C   LIG    1       24.683 -26.128   6.243  0.00  0.00    +0.000 A 
ATOM      6  C   LIG    1       23.684 -25.169   6.363  0.00  0.00    +0.000 A 
ATOM      7  C   LIG    1       24.012 -23.843   6.673  0.00  0.00    +0.005 A 
ENDBRANCH   1   2
BRANCH   1   8
ATOM      8  C   LIG    1       24.782 -20.998   6.105  0.00  0.00    -0.028 A 
ATOM      9  C   LIG    1       23.489 -20.575   6.494  0.00  0.00    +0.005 A 
ATOM     10  C   LIG    1       22.691 -19.757   5.682  0.00  0.00    +0.000 A 
ATOM     11  C   LIG    1       23.147 -19.351   4.439  0.00  0.00    +0.000 A 
ATOM     12  C   LIG    1       24.409 -19.756   4.014  0.00  0.00    +0.000 A 
ATOM     13  C   LIG    1       25.224 -20.552   4.841  0.00  0.00    +0.005 A 
ENDBRANCH   1   8
BRANCH   1  14
ATOM     14  C   LIG    1       25.593 -21.517   8.563  0.00  0.00    +0.226 C 
ATOM     15  O   LIG    1       25.555 -22.325   9.460  0.00  0.00    -0.275 OA
ATOM     16  N   LIG    1       25.575 -20.195   8.912  0.00  0.00    -0.328 N 
ATOM     17  H   LIG    1       25.459 -19.985   9.899  0.00  0.00    +0.145 HD
ATOM     18  H   LIG    1       25.425 -19.415   8.270  0.00  0.00    +0.145 HD
ENDBRANCH   1  14
BRANCH   1  19
ATOM     19  C   LIG    1       27.233 -21.696   6.667  0.00  0.00    +0.076 C 
BRANCH  19  20
ATOM     20  C   LIG    1       28.245 -21.513   7.822  0.00  0.00    +0.135 C 
BRANCH  20  21
ATOM     21  N   LIG    1       29.302 -20.287   7.624  0.00  0.00    +0.245 N 
ATOM     22  C   LIG    1       28.764 -19.101   8.450  0.00  0.00    +0.193 C 
BRANCH  21  24
ATOM     23  C   LIG    1       28.131 -19.134   5.566  0.00  0.00    +0.063 C 
ATOM     24  C   LIG    1       29.380 -19.855   6.092  0.00  0.00    +0.060 C 
ATOM     25  C   LIG    1       30.616 -19.019   5.745  0.00  0.00    +0.063 C 
ENDBRANCH  21  24
BRANCH  21  26
ATOM     26  C   LIG    1       30.708 -20.791   8.233  0.00  0.00    +0.060 C 
ATOM     27  C   LIG    1       30.553 -22.017   9.155  0.00  0.00    +0.063 C 
ATOM     28  C   LIG    1       31.464 -19.743   9.058  0.00  0.00    +0.063 C 
ENDBRANCH  21  26
ENDBRANCH  20  21
ENDBRANCH  19  20
ENDBRANCH   1  19
TORSDOF 8
ENDMDL
MODEL 2
REMARK VINA RESULT:      -7.6      0.859      2.496
REMARK  Name = *****
REMARK                            x       y       z     vdW  Elec       q    Type
REMARK                         _______ _______ _______ _____ _____    ______ ____
ROOT
ATOM      1  C   LIG    1       25.340 -21.686   6.886  0.00  0.00    +0.101 C 
ENDROOT
BRANCH   1   2
ATOM      2  C   LIG    1       25.085 -23.204   6.634  0.00  0.00    -0.028 A 
ATOM      3  C   LIG    1       23.793 -23.758   6.508  0.00  0.00    +0.005 A 
ATOM      4  C   LIG    1       23.601 -25.137   6.342  0.00  0.00    +0.000 A 
ATOM      5  C   LIG    1       24.689 -26.001   6.333  0.00  0.00    +0.000 A 
ATOM      6  C   LIG    1       25.973 -25.481   6.446  0.00  0.00    +0.000 A 
ATOM      7  C   LIG    1       26.169 -24.100   6.562  0.00  0.00    +0.005 A 
ENDBRANCH   1   2
BRANCH   1   8
ATOM      8  C   LIG    1       24.678 -20.805   5.746  0.00  0.00    -0.028 A 
ATOM      9  C   LIG    1       25.386 -20.431   4.579  0.00  0.00    +0.005 A 
ATOM     10  C   LIG    1       24.806 -19.659   3.564  0.00  0.00    +0.000 A 
ATOM     11  C   LIG    1       23.501 -19.211   3.689  0.00  0.00    +0.000 A 
ATOM     12  C   LIG    1       22.774 -19.548   4.826  0.00  0.00    +0.000 A 
ATOM     13  C   LIG    1       23.345 -20.349   5.833  0.00  0.00    +0.005 A 
ENDBRANCH   1   8
BRANCH   1  14
ATOM     14  C   LIG    1       24.886 -21.247   8.341  0.00  0.00    +0.226 C 
ATOM     15  O   LIG    1       25.469 -21.574   9.346  0.00  0.00    -0.275 OA
ATOM     16  N   LIG    1       23.790 -20.442   8.487  0.00  0.00    -0.328 N 
ATOM     17  H   LIG    1       23.501 -20.234   9.439  0.00  0.00    +0.145 HD
ATOM     18  H   LIG    1       23.105 -20.234   7.759  0.00  0.00    +0.145 HD
ENDBRANCH   1  14
BRANCH   1  19
ATOM     19  C   LIG    1       26.932 -21.449   6.894  0.00  0.00    +0.076 C 
BRANCH  19  20
ATOM     20  C   LIG    1       27.479 -20.132   7.493  0.00  0.00    +0.135 C 
BRANCH  20  21
ATOM     21  N   LIG    1       29.092 -19.932   7.355  0.00  0.00    +0.245 N 
ATOM     22  C   LIG    1       29.663 -21.272   6.851  0.00  0.00    +0.193 C 
BRANCH  21  24
ATOM     23  C   LIG    1       31.080 -20.293   9.044  0.00  0.00    +0.063 C 
ATOM     24  C   LIG    1       29.739 -19.595   8.771  0.00  0.00    +0.060 C 
ATOM     25  C   LIG    1       29.900 -18.095   9.040  0.00  0.00    +0.063 C 
ENDBRANCH  21  24
BRANCH  21  26
ATOM     26  C   LIG    1       29.319 -18.784   6.245  0.00  0.00    +0.060 C 
ATOM     27  C   LIG    1       28.234 -18.791   5.149  0.00  0.00    +0.063 C 
ATOM     28  C   LIG    1       30.658 -18.862   5.503  0.00  0.00    +0.063 C 
ENDBRANCH  21  26
ENDBRANCH  20  21
ENDBRANCH  19  20
ENDBRANCH   1  19
TORSDOF 8
ENDMDL
MODEL 3
REMARK VINA RESULT:      -7.1      0.738      1.356
REMARK  Name = *****
REMARK                            x       y       z     vdW  Elec       q    Type
REMARK                         _______ _______ _______ _____ _____    ______ ____
ROOT
ATOM      1  C   LIG    1       25.620 -21.713   6.945  0.00  0.00    +0.101 C 
ENDROOT
BRANCH   1   2
ATOM      2  C   LIG    1       25.286 -23.225   6.756  0.00  0.00    -0.028 A 
ATOM      3  C   LIG    1       26.277 -24.224   6.638  0.00  0.00    +0.005 A 
ATOM      4  C   LIG    1       25.940 -25.566   6.407  0.00  0.00    +0.000 A 
ATOM      5  C   LIG    1       24.611 -25.939   6.255  0.00  0.00    +0.000 A 
ATOM      6  C   LIG    1       23.614 -24.977   6.376  0.00  0.00    +0.000 A 
ATOM      7  C   LIG    1       23.946 -23.646   6.654  0.00  0.00    +0.005 A 
ENDBRANCH   1   2
BRANCH   1   8
ATOM      8  C   LIG    1       24.775 -20.819   5.945  0.00  0.00    -0.028 A 
ATOM      9  C   LIG    1       25.329 -20.299   4.751  0.00  0.00    +0.005 A 
ATOM     10  C   LIG    1       24.586 -19.514   3.859  0.00  0.00    +0.000 A 
ATOM     11  C   LIG    1       23.267 -19.197   4.141  0.00  0.00    +0.000 A 
ATOM     12  C   LIG    1       22.689 -19.679   5.311  0.00  0.00    +0.000 A 
ATOM     13  C   LIG    1       23.424 -20.494   6.193  0.00  0.00    +0.005 A 
ENDBRANCH   1   8
BRANCH   1  14
ATOM     14  C   LIG    1       25.461 -21.261   8.457  0.00  0.00    +0.226 C 
ATOM     15  O   LIG    1       25.320 -20.110   8.794  0.00  0.00    -0.275 OA
ATOM     16  N   LIG    1       25.464 -22.206   9.444  0.00  0.00    -0.328 N 
ATOM     17  H   LIG    1       25.418 -21.867  10.401  0.00  0.00    +0.145 HD
ATOM     18  H   LIG    1       25.746 -23.181   9.332  0.00  0.00    +0.145 HD
ENDBRANCH   1  14
BRANCH   1  19
ATOM     19  C   LIG    1       27.190 -21.516   6.649  0.00  0.00    +0.076 C 
BRANCH  19  20
ATOM     20  C   LIG    1       28.180 -21.586   7.836  0.00  0.00    +0.135 C 
BRANCH  20  21
ATOM     21  N   LIG    1       29.228 -20.340   7.932  0.00  0.00    +0.245 N 
ATOM     22  C   LIG    1       28.441 -19.141   8.497  0.00  0.00    +0.193 C 
BRANCH  21  24
ATOM     23  C   LIG    1       28.797 -19.167   5.614  0.00  0.00    +0.063 C 
ATOM     24  C   LIG    1       29.781 -19.959   6.487  0.00  0.00    +0.060 C 
ATOM     25  C   LIG    1       31.124 -19.223   6.510  0.00  0.00    +0.063 C 
ENDBRANCH  21  24
BRANCH  21  26
ATOM     26  C   LIG    1       30.377 -20.786   8.973  0.00  0.00    +0.060 C 
ATOM     27  C   LIG    1       31.408 -19.671   9.235  0.00  0.00    +0.063 C 
ATOM     28  C   LIG    1       31.190 -22.013   8.547  0.00  0.00    +0.063 C 
ENDBRANCH  21  26
ENDBRANCH  20  21
ENDBRANCH  19  20
ENDBRANCH   1  19
TORSDOF 8
ENDMDL
MODEL 4
REMARK VINA RESULT:      -6.8      2.512      5.998
REMARK  Name = *****
REMARK                            x       y       z     vdW  Elec       q    Type
REMARK                         _______ _______ _______ _____ _____    ______ ____
ROOT
ATOM      1  C   LIG    1       24.593 -22.801   6.395  0.00  0.00    +0.101 C 
ENDROOT
BRANCH   1   2
ATOM      2  C   LIG    1       25.689 -22.022   7.186  0.00  0.00    -0.028 A 
ATOM      3  C   LIG    1       25.390 -21.002   8.116  0.00  0.00    +0.005 A 
ATOM      4  C   LIG    1       26.404 -20.282   8.764  0.00  0.00    +0.000 A 
ATOM      5  C   LIG    1       27.739 -20.536   8.475  0.00  0.00    +0.000 A 
ATOM      6  C   LIG    1       28.062 -21.541   7.571  0.00  0.00    +0.000 A 
ATOM      7  C   LIG    1       27.052 -22.295   6.960  0.00  0.00    +0.005 A 
ENDBRANCH   1   2
BRANCH   1   8
ATOM      8  C   LIG    1       25.072 -24.277   6.072  0.00  0.00    -0.028 A 
ATOM      9  C   LIG    1       25.604 -25.130   7.068  0.00  0.00    +0.005 A 
ATOM     10  C   LIG    1       26.023 -26.438   6.792  0.00  0.00    +0.000 A 
ATOM     11  C   LIG    1       25.948 -26.935   5.500  0.00  0.00    +0.000 A 
ATOM     12  C   LIG    1       25.442 -26.125   4.490  0.00  0.00    +0.000 A 
ATOM     13  C   LIG    1       24.992 -24.821   4.772  0.00  0.00    +0.005 A 
ENDBRANCH   1   8
BRANCH   1  14
ATOM     14  C   LIG    1       23.192 -22.758   7.135  0.00  0.00    +0.226 C 
ATOM     15  O   LIG    1       22.931 -21.980   8.020  0.00  0.00    -0.275 OA
ATOM     16  N   LIG    1       22.206 -23.627   6.756  0.00  0.00    -0.328 N 
ATOM     17  H   LIG    1       21.345 -23.604   7.295  0.00  0.00    +0.145 HD
ATOM     18  H   LIG    1       22.333 -24.444   6.157  0.00  0.00    +0.145 HD
ENDBRANCH   1  14
BRANCH   1  19
ATOM     19  C   LIG    1       24.325 -22.009   5.019  0.00  0.00    +0.076 C 
BRANCH  19  20
ATOM     20  C   LIG    1       23.562 -20.664   5.079  0.00  0.00    +0.135 C 
BRANCH  20  21
ATOM     21  N   LIG    1       23.938 -19.608   3.895  0.00  0.00    +0.245 N 
ATOM     22  C   LIG    1       24.195 -20.441   2.623  0.00  0.00    +0.193 C 
BRANCH  21  24
ATOM     23  C   LIG    1       26.461 -19.682   4.644  0.00  0.00    +0.063 C 
ATOM     24  C   LIG    1       25.263 -18.802   4.260  0.00  0.00    +0.060 C 
ATOM     25  C   LIG    1       25.704 -17.810   3.179  0.00  0.00    +0.063 C 
ENDBRANCH  21  24
BRANCH  21  26
ATOM     26  C   LIG    1       22.641 -18.671   3.687  0.00  0.00    +0.060 C 
ATOM     27  C   LIG    1       22.620 -17.461   4.643  0.00  0.00    +0.063 C 
ATOM     28  C   LIG    1       21.297 -19.380   3.886  0.00  0.00    +0.063 C 
ENDBRANCH  21  26
ENDBRANCH  20  21
ENDBRANCH  19  20
ENDBRANCH   1  19
TORSDOF 8
ENDMDL
MODEL 5
REMARK VINA RESULT:      -6.4      7.104     10.590
REMARK  Name = *****
REMARK                            x       y       z     vdW  Elec       q    Type
REMARK                         _______ _______ _______ _____ _____    ______ ____
ROOT
ATOM      1  C   LIG    1       25.425 -30.282   9.132  0.00  0.00    +0.101 C 
ENDROOT
BRANCH   1   2
ATOM      2  C   LIG    1       25.260 -29.160   8.061  0.00  0.00    -0.028 A 
ATOM      3  C   LIG    1       24.344 -29.246   6.990  0.00  0.00    +0.005 A 
ATOM      4  C   LIG    1       24.266 -28.245   6.011  0.00  0.00    +0.000 A 
ATOM      5  C   LIG    1       25.122 -27.151   6.057  0.00  0.00    +0.000 A 
ATOM      6  C   LIG    1       26.027 -27.036   7.106  0.00  0.00    +0.000 A 
ATOM      7  C   LIG    1       26.073 -28.011   8.110  0.00  0.00    +0.005 A 
ENDBRANCH   1   2
BRANCH   1   8
ATOM      8  C   LIG    1       24.029 -30.957   9.463  0.00  0.00    -0.028 A 
ATOM      9  C   LIG    1       22.980 -30.244  10.090  0.00  0.00    +0.005 A 
ATOM     10  C   LIG    1       21.741 -30.832  10.380  0.00  0.00    +0.000 A 
ATOM     11  C   LIG    1       21.513 -32.164  10.073  0.00  0.00    +0.000 A 
ATOM     12  C   LIG    1       22.523 -32.903   9.466  0.00  0.00    +0.000 A 
ATOM     13  C   LIG    1       23.757 -32.305   9.147  0.00  0.00    +0.005 A 
ENDBRANCH   1   8
BRANCH   1  14
ATOM     14  C   LIG    1       26.532 -31.337   8.713  0.00  0.00    +0.226 C 
ATOM     15  O   LIG    1       27.199 -31.953   9.509  0.00  0.00    -0.275 OA
ATOM     16  N   LIG    1       26.748 -31.592   7.387  0.00  0.00    -0.328 N 
ATOM     17  H   LIG    1       27.505 -32.231   7.162  0.00  0.00    +0.145 HD
ATOM     18  H   LIG    1       26.394 -31.033   6.609  0.00  0.00    +0.145 HD
ENDBRANCH   1  14
BRANCH   1  19
ATOM     19  C   LIG    1       26.026 -29.606  10.464  0.00  0.00    +0.076 C 
BRANCH  19  20
ATOM     20  C   LIG    1       26.061 -30.442  11.765  0.00  0.00    +0.135 C 
BRANCH  20  21
ATOM     21  N   LIG    1       25.427 -29.705  13.074  0.00  0.00    +0.245 N 
ATOM     22  C   LIG    1       26.580 -29.523  14.081  0.00  0.00    +0.193 C 
BRANCH  21  24
ATOM     23  C   LIG    1       24.140 -32.002  13.105  0.00  0.00    +0.063 C 
ATOM     24  C   LIG    1       24.300 -30.612  13.740  0.00  0.00    +0.060 C 
ATOM     25  C   LIG    1       24.449 -30.776  15.256  0.00  0.00    +0.063 C 
ENDBRANCH  21  24
BRANCH  21  26
ATOM     26  C   LIG    1       24.896 -28.265  12.577  0.00  0.00    +0.060 C 
ATOM     27  C   LIG    1       25.730 -27.096  13.140  0.00  0.00    +0.063 C 
ATOM     28  C   LIG    1       23.442 -27.953  12.946  0.00  0.00    +0.063 C 
ENDBRANCH  21  26
ENDBRANCH  20  21
ENDBRANCH  19  20
ENDBRANCH   1  19
TORSDOF 8
ENDMDL
MODEL 6
REMARK VINA RESULT:      -6.4      7.106      9.940
REMARK  Name = *****
REMARK                            x       y       z     vdW  Elec       q    Type
REMARK                         _______ _______ _______ _____ _____    ______ ____
ROOT
ATOM      1  C   LIG    1       25.507 -30.027   9.299  0.00  0.00    +0.101 C 
ENDROOT
BRANCH   1   2
ATOM      2  C   LIG    1       25.246 -29.226   7.986  0.00  0.00    -0.028 A 
ATOM      3  C   LIG    1       25.802 -27.952   7.737  0.00  0.00    +0.005 A 
ATOM      4  C   LIG    1       25.496 -27.235   6.571  0.00  0.00    +0.000 A 
ATOM      5  C   LIG    1       24.604 -27.754   5.643  0.00  0.00    +0.000 A 
ATOM      6  C   LIG    1       24.048 -29.011   5.858  0.00  0.00    +0.000 A 
ATOM      7  C   LIG    1       24.390 -29.749   6.997  0.00  0.00    +0.005 A 
ENDBRANCH   1   2
BRANCH   1   8
ATOM      8  C   LIG    1       24.199 -30.795   9.761  0.00  0.00    -0.028 A 
ATOM      9  C   LIG    1       22.984 -30.120  10.024  0.00  0.00    +0.005 A 
ATOM     10  C   LIG    1       21.822 -30.793  10.427  0.00  0.00    +0.000 A 
ATOM     11  C   LIG    1       21.839 -32.167  10.604  0.00  0.00    +0.000 A 
ATOM     12  C   LIG    1       23.018 -32.867  10.366  0.00  0.00    +0.000 A 
ATOM     13  C   LIG    1       24.177 -32.196   9.932  0.00  0.00    +0.005 A 
ENDBRANCH   1   8
BRANCH   1  14
ATOM     14  C   LIG    1       26.765 -30.983   9.166  0.00  0.00    +0.226 C 
ATOM     15  O   LIG    1       27.536 -31.196  10.069  0.00  0.00    -0.275 OA
ATOM     16  N   LIG    1       26.998 -31.623   7.980  0.00  0.00    -0.328 N 
ATOM     17  H   LIG    1       27.846 -32.179   7.921  0.00  0.00    +0.145 HD
ATOM     18  H   LIG    1       26.544 -31.409   7.091  0.00  0.00    +0.145 HD
ENDBRANCH   1  14
BRANCH   1  19
ATOM     19  C   LIG    1       25.943 -28.975  10.437  0.00  0.00    +0.076 C 
BRANCH  19  20
ATOM     20  C   LIG    1       25.547 -29.268  11.904  0.00  0.00    +0.135 C 
BRANCH  20  21
ATOM     21  N   LIG    1       26.036 -28.149  12.985  0.00  0.00    +0.245 N 
ATOM     22  C   LIG    1       26.742 -27.037  12.183  0.00  0.00    +0.193 C 
BRANCH  21  24
ATOM     23  C   LIG    1       28.165 -29.649  13.373  0.00  0.00    +0.063 C 
ATOM     24  C   LIG    1       27.074 -28.779  14.016  0.00  0.00    +0.060 C 
ATOM     25  C   LIG    1       27.740 -27.750  14.934  0.00  0.00    +0.063 C 
ENDBRANCH  21  24
BRANCH  21  26
ATOM     26  C   LIG    1       24.701 -27.566  13.677  0.00  0.00    +0.060 C 
ATOM     27  C   LIG    1       23.410 -28.092  13.020  0.00  0.00    +0.063 C 
ATOM     28  C   LIG    1       24.582 -26.038  13.661  0.00  0.00    +0.063 C 
ENDBRANCH  21  26
ENDBRANCH  20  21
ENDBRANCH  19  20
ENDBRANCH   1  19
TORSDOF 8
ENDMDL
MODEL 7
REMARK VINA RESULT:      -6.3      6.885     10.742
REMARK  Name = *****
REMARK                            x       y       z     vdW  Elec       q    Type
REMARK                         _______ _______ _______ _____ _____    ______ ____
ROOT
ATOM      1  C   LIG    1       25.314 -29.984   8.610  0.00  0.00    +0.101 C 
ENDROOT
BRANCH   1   2
ATOM      2  C   LIG    1       25.922 -29.554   9.981  0.00  0.00    -0.028 A 
ATOM      3  C   LIG    1       25.154 -28.981  11.019  0.00  0.00    +0.005 A 
ATOM      4  C   LIG    1       25.746 -28.550  12.215  0.00  0.00    +0.000 A 
ATOM      5  C   LIG    1       27.120 -28.647  12.392  0.00  0.00    +0.000 A 
ATOM      6  C   LIG    1       27.899 -29.216  11.391  0.00  0.00    +0.000 A 
ATOM      7  C   LIG    1       27.304 -29.691  10.217  0.00  0.00    +0.005 A 
ENDBRANCH   1   2
BRANCH   1   8
ATOM      8  C   LIG    1       25.262 -28.758   7.606  0.00  0.00    -0.028 A 
ATOM      9  C   LIG    1       24.328 -28.695   6.546  0.00  0.00    +0.005 A 
ATOM     10  C   LIG    1       24.271 -27.611   5.658  0.00  0.00    +0.000 A 
ATOM     11  C   LIG    1       25.165 -26.560   5.785  0.00  0.00    +0.000 A 
ATOM     12  C   LIG    1       26.107 -26.590   6.808  0.00  0.00    +0.000 A 
ATOM     13  C   LIG    1       26.145 -27.663   7.719  0.00  0.00    +0.005 A 
ENDBRANCH   1   8
BRANCH   1  14
ATOM     14  C   LIG    1       26.064 -31.242   8.004  0.00  0.00    +0.226 C 
ATOM     15  O   LIG    1       26.477 -32.157   8.674  0.00  0.00    -0.275 OA
ATOM     16  N   LIG    1       26.249 -31.326   6.651  0.00  0.00    -0.328 N 
ATOM     17  H   LIG    1       26.785 -32.119   6.312  0.00  0.00    +0.145 HD
ATOM     18  H   LIG    1       26.116 -30.562   5.986  0.00  0.00    +0.145 HD
ENDBRANCH   1  14
BRANCH   1  19
ATOM     19  C   LIG    1       23.822 -30.522   8.882  0.00  0.00    +0.076 C 
BRANCH  19  20
ATOM     20  C   LIG    1       23.646 -31.902   9.558  0.00  0.00    +0.135 C 
BRANCH  20  21
ATOM     21  N   LIG    1       22.565 -31.938  10.778  0.00  0.00    +0.245 N 
ATOM     22  C   LIG    1       21.704 -33.200  10.570  0.00  0.00    +0.193 C 
BRANCH  21  24
ATOM     23  C   LIG    1       20.131 -30.966  10.518  0.00  0.00    +0.063 C 
ATOM     24  C   LIG    1       21.620 -30.656  10.731  0.00  0.00    +0.060 C 
ATOM     25  C   LIG    1       21.764 -29.733  11.945  0.00  0.00    +0.063 C 
ENDBRANCH  21  24
BRANCH  21  26
ATOM     26  C   LIG    1       23.417 -32.070  12.142  0.00  0.00    +0.060 C 
ATOM     27  C   LIG    1       24.857 -32.563  11.899  0.00  0.00    +0.063 C 
ATOM     28  C   LIG    1       22.821 -33.025  13.182  0.00  0.00    +0.063 C 
ENDBRANCH  21  26
ENDBRANCH  20  21
ENDBRANCH  19  20
ENDBRANCH   1  19
TORSDOF 8
ENDMDL
MODEL 8
REMARK VINA RESULT:      -6.2      1.578      5.757
REMARK  Name = *****
REMARK                            x       y       z     vdW  Elec       q    Type
REMARK                         _______ _______ _______ _____ _____    ______ ____
ROOT
ATOM      1  C   LIG    1       26.566 -21.089   7.124  0.00  0.00    +0.101 C 
ENDROOT
BRANCH   1   2
ATOM      2  C   LIG    1       25.400 -20.692   6.166  0.00  0.00    -0.028 A 
ATOM      3  C   LIG    1       25.596 -20.377   4.804  0.00  0.00    +0.005 A 
ATOM      4  C   LIG    1       24.532 -19.965   3.988  0.00  0.00    +0.000 A 
ATOM      5  C   LIG    1       23.256 -19.825   4.518  0.00  0.00    +0.000 A 
ATOM      6  C   LIG    1       23.033 -20.138   5.854  0.00  0.00    +0.000 A 
ATOM      7  C   LIG    1       24.084 -20.596   6.657  0.00  0.00    +0.005 A 
ENDBRANCH   1   2
BRANCH   1   8
ATOM      8  C   LIG    1       27.867 -20.237   6.813  0.00  0.00    -0.028 A 
ATOM      9  C   LIG    1       27.940 -19.353   5.710  0.00  0.00    +0.005 A 
ATOM     10  C   LIG    1       29.084 -18.592   5.433  0.00  0.00    +0.000 A 
ATOM     11  C   LIG    1       30.208 -18.705   6.236  0.00  0.00    +0.000 A 
ATOM     12  C   LIG    1       30.180 -19.572   7.324  0.00  0.00    +0.000 A 
ATOM     13  C   LIG    1       29.021 -20.314   7.622  0.00  0.00    +0.005 A 
ENDBRANCH   1   8
BRANCH   1  14
ATOM     14  C   LIG    1       26.130 -21.009   8.646  0.00  0.00    +0.226 C 
ATOM     15  O   LIG    1       26.422 -20.091   9.374  0.00  0.00    -0.275 OA
ATOM     16  N   LIG    1       25.369 -22.012   9.180  0.00  0.00    -0.328 N 
ATOM     17  H   LIG    1       25.162 -21.948  10.173  0.00  0.00    +0.145 HD
ATOM     18  H   LIG    1       25.197 -22.920   8.747  0.00  0.00    +0.145 HD
ENDBRANCH   1  14
BRANCH   1  19
ATOM     19  C   LIG    1       26.879 -22.651   6.896  0.00  0.00    +0.076 C 
BRANCH  19  20
ATOM     20  C   LIG    1       25.852 -23.691   7.404  0.00  0.00    +0.135 C 
BRANCH  20  21
ATOM     21  N   LIG    1       25.386 -24.794   6.297  0.00  0.00    +0.245 N 
ATOM     22  C   LIG    1       25.421 -24.089   4.926  0.00  0.00    +0.193 C 
BRANCH  21  24
ATOM     23  C   LIG    1       22.854 -24.162   6.651  0.00  0.00    +0.063 C 
ATOM     24  C   LIG    1       23.898 -25.286   6.585  0.00  0.00    +0.060 C 
ATOM     25  C   LIG    1       23.401 -26.364   5.616  0.00  0.00    +0.063 C 
ENDBRANCH  21  24
BRANCH  21  26
ATOM     26  C   LIG    1       26.483 -25.976   6.337  0.00  0.00    +0.060 C 
ATOM     27  C   LIG    1       26.539 -26.782   5.024  0.00  0.00    +0.063 C 
ATOM     28  C   LIG    1       26.275 -27.010   7.449  0.00  0.00    +0.063 C 
ENDBRANCH  21  26
ENDBRANCH  20  21
ENDBRANCH  19  20
ENDBRANCH   1  19
TORSDOF 8
ENDMDL
MODEL 9
REMARK VINA RESULT:      -6.2      1.418      5.861
REMARK  Name = *****
REMARK                            x       y       z     vdW  Elec       q    Type
REMARK                         _______ _______ _______ _____ _____    ______ ____
ROOT
ATOM      1  C   LIG    1       26.466 -21.177   7.006  0.00  0.00    +0.101 C 
ENDROOT
BRANCH   1   2
ATOM      2  C   LIG    1       25.353 -20.562   6.103  0.00  0.00    -0.028 A 
ATOM      3  C   LIG    1       24.053 -20.272   6.573  0.00  0.00    +0.005 A 
ATOM      4  C   LIG    1       23.060 -19.776   5.716  0.00  0.00    +0.000 A 
ATOM      5  C   LIG    1       23.327 -19.590   4.366  0.00  0.00    +0.000 A 
ATOM      6  C   LIG    1       24.601 -19.858   3.879  0.00  0.00    +0.000 A 
ATOM      7  C   LIG    1       25.608 -20.307   4.742  0.00  0.00    +0.005 A 
ENDBRANCH   1   2
BRANCH   1   8
ATOM      8  C   LIG    1       27.853 -20.446   6.770  0.00  0.00    -0.028 A 
ATOM      9  C   LIG    1       28.991 -20.718   7.566  0.00  0.00    +0.005 A 
ATOM     10  C   LIG    1       30.222 -20.080   7.358  0.00  0.00    +0.000 A 
ATOM     11  C   LIG    1       30.354 -19.127   6.361  0.00  0.00    +0.000 A 
ATOM     12  C   LIG    1       29.255 -18.823   5.564  0.00  0.00    +0.000 A 
ATOM     13  C   LIG    1       28.026 -19.485   5.751  0.00  0.00    +0.005 A 
ENDBRANCH   1   8
BRANCH   1  14
ATOM     14  C   LIG    1       26.039 -21.202   8.533  0.00  0.00    +0.226 C 
ATOM     15  O   LIG    1       26.077 -22.195   9.218  0.00  0.00    -0.275 OA
ATOM     16  N   LIG    1       25.617 -20.046   9.131  0.00  0.00    -0.328 N 
ATOM     17  H   LIG    1       25.298 -20.120  10.092  0.00  0.00    +0.145 HD
ATOM     18  H   LIG    1       25.367 -19.184   8.645  0.00  0.00    +0.145 HD
ENDBRANCH   1  14
BRANCH   1  19
ATOM     19  C   LIG    1       26.606 -22.734   6.622  0.00  0.00    +0.076 C 
BRANCH  19  20
ATOM     20  C   LIG    1       25.653 -23.749   7.296  0.00  0.00    +0.135 C 
BRANCH  20  21
ATOM     21  N   LIG    1       24.476 -24.333   6.329  0.00  0.00    +0.245 N 
ATOM     22  C   LIG    1       24.805 -23.864   4.898  0.00  0.00    +0.193 C 
BRANCH  21  24
ATOM     23  C   LIG    1       23.103 -22.733   7.907  0.00  0.00    +0.063 C 
ATOM     24  C   LIG    1       23.057 -23.744   6.752  0.00  0.00    +0.060 C 
ATOM     25  C   LIG    1       22.268 -23.131   5.590  0.00  0.00    +0.063 C 
ENDBRANCH  21  24
BRANCH  21  26
ATOM     26  C   LIG    1       24.566 -25.941   6.417  0.00  0.00    +0.060 C 
ATOM     27  C   LIG    1       25.931 -26.434   6.939  0.00  0.00    +0.063 C 
ATOM     28  C   LIG    1       24.341 -26.672   5.089  0.00  0.00    +0.063 C 
ENDBRANCH  21  26
ENDBRANCH  20  21
ENDBRANCH  19  20
ENDBRANCH   1  19
TORSDOF 8
ENDMDL
