MODEL 1
REMARK VINA RESULT:       4.1      0.000      0.000
REMARK  Name = *****
REMARK                            x       y       z     vdW  Elec       q    Type
REMARK                         _______ _______ _______ _____ _____    ______ ____
ROOT
ATOM      1  C   LIG    1       24.464 -14.474   3.993  0.00  0.00    +0.021 C 
ATOM      2  C   LIG    1       24.096 -13.606   5.253  0.00  0.00    +0.016 C 
ATOM      3  C   LIG    1       24.402 -12.109   5.185  0.00  0.00    +0.001 C 
ATOM      4  C   LIG    1       23.819 -11.466   3.939  0.00  0.00    +0.000 C 
ATOM      5  C   LIG    1       24.304 -12.175   2.690  0.00  0.00    +0.001 C 
ATOM      6  C   LIG    1       23.980 -13.678   2.716  0.00  0.00    +0.016 C 
ENDROOT
BRANCH   1   9
ATOM      7  C   LIG    1       27.914 -16.292   4.138  0.00  0.00    +0.122 A 
ATOM      8  C   LIG    1       26.539 -16.039   3.944  0.00  0.00    +0.050 A 
ATOM      9  C   LIG    1       26.004 -14.728   4.004  0.00  0.00    -0.033 A 
ATOM     10  C   LIG    1       26.924 -13.676   4.129  0.00  0.00    +0.005 A 
ATOM     11  C   LIG    1       28.281 -13.917   4.323  0.00  0.00    +0.004 A 
ATOM     12  C   LIG    1       28.772 -15.218   4.338  0.00  0.00    +0.045 A 
BRANCH   7  13
ATOM     13  O   LIG    1       28.298 -17.604   4.099  0.00  0.00    -0.475 OA
BRANCH  13  14
ATOM     14  C   LIG    1       28.277 -18.482   5.252  0.00  0.00    +0.203 C 
ATOM     15  C   LIG    1       28.194 -17.767   6.622  0.00  0.00    +0.068 C 
BRANCH  14  17
ATOM     16  C   LIG    1       29.454 -20.563   6.403  0.00  0.00    +0.008 C 
ATOM     17  C   LIG    1       29.443 -19.511   5.294  0.00  0.00    +0.056 C 
ENDBRANCH  14  17
BRANCH  14  18
ATOM     18  C   LIG    1       26.923 -19.155   5.113  0.00  0.00    +0.349 C 
ATOM     19  O   LIG    1       26.217 -19.544   6.086  0.00  0.00    -0.246 OA
BRANCH  18  20
ATOM     20  O   LIG    1       26.458 -19.287   3.864  0.00  0.00    -0.478 OA
ATOM     21  H   LIG    1       26.456 -20.244   3.595  0.00  0.00    +0.295 HD
ENDBRANCH  18  20
ENDBRANCH  14  18
ENDBRANCH  13  14
ENDBRANCH   7  13
ENDBRANCH   1   9
BRANCH   1  22
ATOM     22  C   LIG    1       23.692 -15.841   3.998  0.00  0.00    -0.037 A 
ATOM     23  C   LIG    1       24.177 -17.010   3.382  0.00  0.00    +0.008 A 
ATOM     24  C   LIG    1       23.482 -18.227   3.465  0.00  0.00    +0.046 A 
ATOM     25  C   LIG    1       22.297 -18.329   4.195  0.00  0.00    +0.122 A 
ATOM     26  C   LIG    1       21.772 -17.178   4.764  0.00  0.00    +0.046 A 
ATOM     27  C   LIG    1       22.455 -15.953   4.661  0.00  0.00    +0.008 A 
BRANCH  25  28
ATOM     28  O   LIG    1       21.759 -19.578   4.259  0.00  0.00    -0.475 OA
BRANCH  28  29
ATOM     29  C   LIG    1       22.400 -20.683   4.902  0.00  0.00    +0.203 C 
ATOM     30  C   LIG    1       21.213 -21.560   5.359  0.00  0.00    +0.068 C 
BRANCH  29  31
ATOM     31  C   LIG    1       23.176 -20.442   6.247  0.00  0.00    +0.349 C 
ATOM     32  O   LIG    1       23.086 -19.395   6.877  0.00  0.00    -0.246 OA
BRANCH  31  33
ATOM     33  O   LIG    1       24.028 -21.404   6.678  0.00  0.00    -0.478 OA
ATOM     34  H   LIG    1       24.369 -22.056   6.030  0.00  0.00    +0.295 HD
ENDBRANCH  31  33
ENDBRANCH  29  31
BRANCH  29  35
ATOM     35  C   LIG    1       23.274 -21.562   3.925  0.00  0.00    +0.056 C 
ATOM     36  C   LIG    1       24.458 -20.905   3.196  0.00  0.00    +0.008 C 
ENDBRANCH  29  35
ENDBRANCH  28  29
ENDBRANCH  25  28
ENDBRANCH   1  22
TORSDOF 12
ENDMDL
MODEL 2
REMARK VINA RESULT:       5.4      1.072      1.737
REMARK  Name = *****
REMARK                            x       y       z     vdW  Elec       q    Type
REMARK                         _______ _______ _______ _____ _____    ______ ____
ROOT
ATOM      1  C   LIG    1       24.491 -14.267   3.693  0.00  0.00    +0.021 C 
ATOM      2  C   LIG    1       23.913 -13.179   4.674  0.00  0.00    +0.016 C 
ATOM      3  C   LIG    1       24.053 -11.715   4.254  0.00  0.00    +0.001 C 
ATOM      4  C   LIG    1       23.519 -11.471   2.854  0.00  0.00    +0.000 C 
ATOM      5  C   LIG    1       24.194 -12.387   1.853  0.00  0.00    +0.001 C 
ATOM      6  C   LIG    1       24.040 -13.870   2.232  0.00  0.00    +0.016 C 
ENDROOT
BRANCH   1   9
ATOM      7  C   LIG    1       28.068 -15.379   4.789  0.00  0.00    +0.122 A 
ATOM      8  C   LIG    1       26.695 -15.410   4.464  0.00  0.00    +0.050 A 
ATOM      9  C   LIG    1       26.042 -14.305   3.863  0.00  0.00    -0.033 A 
ATOM     10  C   LIG    1       26.853 -13.227   3.478  0.00  0.00    +0.005 A 
ATOM     11  C   LIG    1       28.208 -13.187   3.796  0.00  0.00    +0.004 A 
ATOM     12  C   LIG    1       28.810 -14.252   4.457  0.00  0.00    +0.045 A 
BRANCH   7  13
ATOM     13  O   LIG    1       28.569 -16.492   5.406  0.00  0.00    -0.475 OA
BRANCH  13  14
ATOM     14  C   LIG    1       28.431 -17.834   4.875  0.00  0.00    +0.203 C 
ATOM     15  C   LIG    1       29.473 -18.228   3.802  0.00  0.00    +0.068 C 
BRANCH  14  17
ATOM     16  C   LIG    1       26.537 -19.619   4.355  0.00  0.00    +0.008 C 
ATOM     17  C   LIG    1       27.009 -18.165   4.337  0.00  0.00    +0.056 C 
ENDBRANCH  14  17
BRANCH  14  18
ATOM     18  C   LIG    1       28.804 -18.688   6.073  0.00  0.00    +0.349 C 
ATOM     19  O   LIG    1       28.574 -19.928   6.164  0.00  0.00    -0.246 OA
BRANCH  18  20
ATOM     20  O   LIG    1       29.457 -18.062   7.061  0.00  0.00    -0.478 OA
ATOM     21  H   LIG    1       29.421 -17.078   6.930  0.00  0.00    +0.295 HD
ENDBRANCH  18  20
ENDBRANCH  14  18
ENDBRANCH  13  14
ENDBRANCH   7  13
ENDBRANCH   1   9
BRANCH   1  22
ATOM     22  C   LIG    1       23.881 -15.682   3.991  0.00  0.00    -0.037 A 
ATOM     23  C   LIG    1       22.795 -15.894   4.861  0.00  0.00    +0.008 A 
ATOM     24  C   LIG    1       22.242 -17.171   5.050  0.00  0.00    +0.046 A 
ATOM     25  C   LIG    1       22.730 -18.275   4.351  0.00  0.00    +0.122 A 
ATOM     26  C   LIG    1       23.836 -18.100   3.531  0.00  0.00    +0.046 A 
ATOM     27  C   LIG    1       24.405 -16.826   3.359  0.00  0.00    +0.008 A 
BRANCH  25  28
ATOM     28  O   LIG    1       22.063 -19.442   4.568  0.00  0.00    -0.475 OA
BRANCH  28  29
ATOM     29  C   LIG    1       22.711 -20.680   4.869  0.00  0.00    +0.203 C 
ATOM     30  C   LIG    1       21.561 -21.556   5.414  0.00  0.00    +0.068 C 
BRANCH  29  31
ATOM     31  C   LIG    1       23.757 -20.732   6.040  0.00  0.00    +0.349 C 
ATOM     32  O   LIG    1       23.633 -20.065   7.060  0.00  0.00    -0.246 OA
BRANCH  31  33
ATOM     33  O   LIG    1       24.868 -21.490   5.876  0.00  0.00    -0.478 OA
ATOM     34  H   LIG    1       25.279 -21.537   4.987  0.00  0.00    +0.295 HD
ENDBRANCH  31  33
ENDBRANCH  29  31
BRANCH  29  35
ATOM     35  C   LIG    1       23.289 -21.416   3.597  0.00  0.00    +0.056 C 
ATOM     36  C   LIG    1       24.323 -20.686   2.725  0.00  0.00    +0.008 C 
ENDBRANCH  29  35
ENDBRANCH  28  29
ENDBRANCH  25  28
ENDBRANCH   1  22
TORSDOF 12
ENDMDL
MODEL 3
REMARK VINA RESULT:       5.4      2.002      6.346
REMARK  Name = *****
REMARK                            x       y       z     vdW  Elec       q    Type
REMARK                         _______ _______ _______ _____ _____    ______ ____
ROOT
ATOM      1  C   LIG    1       22.713 -18.420   4.126  0.00  0.00    +0.021 C 
ATOM      2  C   LIG    1       22.390 -19.183   2.788  0.00  0.00    +0.016 C 
ATOM      3  C   LIG    1       21.031 -19.878   2.691  0.00  0.00    +0.001 C 
ATOM      4  C   LIG    1       19.887 -18.939   3.028  0.00  0.00    +0.000 C 
ATOM      5  C   LIG    1       20.082 -18.323   4.399  0.00  0.00    +0.001 C 
ATOM      6  C   LIG    1       21.428 -17.588   4.515  0.00  0.00    +0.016 C 
ENDROOT
BRANCH   1   9
ATOM      7  C   LIG    1       24.831 -20.557   6.613  0.00  0.00    +0.122 A 
ATOM      8  C   LIG    1       24.407 -19.503   5.775  0.00  0.00    +0.050 A 
ATOM      9  C   LIG    1       23.107 -19.473   5.208  0.00  0.00    -0.033 A 
ATOM     10  C   LIG    1       22.214 -20.469   5.630  0.00  0.00    +0.005 A 
ATOM     11  C   LIG    1       22.624 -21.512   6.454  0.00  0.00    +0.004 A 
ATOM     12  C   LIG    1       23.927 -21.562   6.935  0.00  0.00    +0.045 A 
BRANCH   7  13
ATOM     13  O   LIG    1       26.121 -20.492   7.060  0.00  0.00    -0.475 OA
BRANCH  13  14
ATOM     14  C   LIG    1       27.272 -20.422   6.181  0.00  0.00    +0.203 C 
ATOM     15  C   LIG    1       28.295 -21.571   6.343  0.00  0.00    +0.068 C 
BRANCH  14  17
ATOM     16  C   LIG    1       29.325 -18.976   7.040  0.00  0.00    +0.008 C 
ATOM     17  C   LIG    1       28.032 -19.064   6.230  0.00  0.00    +0.056 C 
ENDBRANCH  14  17
BRANCH  14  18
ATOM     18  C   LIG    1       26.648 -20.680   4.821  0.00  0.00    +0.349 C 
ATOM     19  O   LIG    1       27.040 -20.148   3.744  0.00  0.00    -0.246 OA
BRANCH  18  20
ATOM     20  O   LIG    1       25.649 -21.572   4.793  0.00  0.00    -0.478 OA
ATOM     21  H   LIG    1       24.782 -21.125   4.983  0.00  0.00    +0.295 HD
ENDBRANCH  18  20
ENDBRANCH  14  18
ENDBRANCH  13  14
ENDBRANCH   7  13
ENDBRANCH   1   9
BRANCH   1  22
ATOM     22  C   LIG    1       23.881 -17.390   3.926  0.00  0.00    -0.037 A 
ATOM     23  C   LIG    1       25.122 -17.724   3.353  0.00  0.00    +0.008 A 
ATOM     24  C   LIG    1       26.116 -16.756   3.136  0.00  0.00    +0.046 A 
ATOM     25  C   LIG    1       25.894 -15.415   3.451  0.00  0.00    +0.122 A 
ATOM     26  C   LIG    1       24.699 -15.073   4.068  0.00  0.00    +0.046 A 
ATOM     27  C   LIG    1       23.712 -16.045   4.307  0.00  0.00    +0.008 A 
BRANCH  25  28
ATOM     28  O   LIG    1       26.907 -14.566   3.126  0.00  0.00    -0.475 OA
BRANCH  28  29
ATOM     29  C   LIG    1       27.101 -13.292   3.746  0.00  0.00    +0.203 C 
ATOM     30  C   LIG    1       28.635 -13.117   3.719  0.00  0.00    +0.068 C 
BRANCH  29  31
ATOM     31  C   LIG    1       26.770 -13.124   5.273  0.00  0.00    +0.349 C 
ATOM     32  O   LIG    1       27.306 -13.807   6.138  0.00  0.00    -0.246 OA
BRANCH  31  33
ATOM     33  O   LIG    1       25.806 -12.241   5.629  0.00  0.00    -0.478 OA
ATOM     34  H   LIG    1       25.141 -11.975   4.959  0.00  0.00    +0.295 HD
ENDBRANCH  31  33
ENDBRANCH  29  31
BRANCH  29  35
ATOM     35  C   LIG    1       26.485 -12.091   2.926  0.00  0.00    +0.056 C 
ATOM     36  C   LIG    1       25.206 -12.332   2.107  0.00  0.00    +0.008 C 
ENDBRANCH  29  35
ENDBRANCH  28  29
ENDBRANCH  25  28
ENDBRANCH   1  22
TORSDOF 12
ENDMDL
MODEL 4
REMARK VINA RESULT:       5.9      1.949      6.413
REMARK  Name = *****
REMARK                            x       y       z     vdW  Elec       q    Type
REMARK                         _______ _______ _______ _____ _____    ______ ____
ROOT
ATOM      1  C   LIG    1       22.929 -18.380   4.121  0.00  0.00    +0.021 C 
ATOM      2  C   LIG    1       22.513 -19.135   2.803  0.00  0.00    +0.016 C 
ATOM      3  C   LIG    1       21.114 -19.752   2.764  0.00  0.00    +0.001 C 
ATOM      4  C   LIG    1       20.038 -18.747   3.136  0.00  0.00    +0.000 C 
ATOM      5  C   LIG    1       20.320 -18.132   4.492  0.00  0.00    +0.001 C 
ATOM      6  C   LIG    1       21.709 -17.474   4.551  0.00  0.00    +0.016 C 
ENDROOT
BRANCH   1   9
ATOM      7  C   LIG    1       25.009 -20.570   6.594  0.00  0.00    +0.122 A 
ATOM      8  C   LIG    1       24.604 -19.505   5.761  0.00  0.00    +0.050 A 
ATOM      9  C   LIG    1       23.305 -19.446   5.198  0.00  0.00    -0.033 A 
ATOM     10  C   LIG    1       22.392 -20.426   5.617  0.00  0.00    +0.005 A 
ATOM     11  C   LIG    1       22.783 -21.481   6.435  0.00  0.00    +0.004 A 
ATOM     12  C   LIG    1       24.087 -21.559   6.913  0.00  0.00    +0.045 A 
BRANCH   7  13
ATOM     13  O   LIG    1       26.302 -20.532   7.039  0.00  0.00    -0.475 OA
BRANCH  13  14
ATOM     14  C   LIG    1       27.443 -20.315   6.171  0.00  0.00    +0.203 C 
ATOM     15  C   LIG    1       28.639 -21.266   6.407  0.00  0.00    +0.068 C 
BRANCH  14  17
ATOM     16  C   LIG    1       29.405 -18.586   5.720  0.00  0.00    +0.008 C 
ATOM     17  C   LIG    1       27.963 -18.848   6.156  0.00  0.00    +0.056 C 
ENDBRANCH  14  17
BRANCH  14  18
ATOM     18  C   LIG    1       26.900 -20.744   4.820  0.00  0.00    +0.349 C 
ATOM     19  O   LIG    1       25.853 -21.433   4.659  0.00  0.00    -0.246 OA
BRANCH  18  20
ATOM     20  O   LIG    1       27.576 -20.309   3.749  0.00  0.00    -0.478 OA
ATOM     21  H   LIG    1       28.351 -19.754   4.032  0.00  0.00    +0.295 HD
ENDBRANCH  18  20
ENDBRANCH  14  18
ENDBRANCH  13  14
ENDBRANCH   7  13
ENDBRANCH   1   9
BRANCH   1  22
ATOM     22  C   LIG    1       24.144 -17.420   3.867  0.00  0.00    -0.037 A 
ATOM     23  C   LIG    1       24.094 -16.029   4.076  0.00  0.00    +0.008 A 
ATOM     24  C   LIG    1       25.224 -15.216   3.894  0.00  0.00    +0.046 A 
ATOM     25  C   LIG    1       26.454 -15.767   3.531  0.00  0.00    +0.122 A 
ATOM     26  C   LIG    1       26.513 -17.127   3.265  0.00  0.00    +0.046 A 
ATOM     27  C   LIG    1       25.377 -17.939   3.424  0.00  0.00    +0.008 A 
BRANCH  25  28
ATOM     28  O   LIG    1       27.487 -14.884   3.458  0.00  0.00    -0.475 OA
BRANCH  28  29
ATOM     29  C   LIG    1       27.357 -13.488   3.741  0.00  0.00    +0.203 C 
ATOM     30  C   LIG    1       28.449 -12.847   2.857  0.00  0.00    +0.068 C 
BRANCH  29  31
ATOM     31  C   LIG    1       27.729 -12.958   5.173  0.00  0.00    +0.349 C 
ATOM     32  O   LIG    1       28.732 -12.287   5.382  0.00  0.00    -0.246 OA
BRANCH  31  33
ATOM     33  O   LIG    1       26.946 -13.323   6.217  0.00  0.00    -0.478 OA
ATOM     34  H   LIG    1       26.827 -12.692   6.958  0.00  0.00    +0.295 HD
ENDBRANCH  31  33
ENDBRANCH  29  31
BRANCH  29  35
ATOM     35  C   LIG    1       25.975 -12.878   3.283  0.00  0.00    +0.056 C 
ATOM     36  C   LIG    1       25.961 -11.851   2.139  0.00  0.00    +0.008 C 
ENDBRANCH  29  35
ENDBRANCH  28  29
ENDBRANCH  25  28
ENDBRANCH   1  22
TORSDOF 12
ENDMDL
MODEL 5
REMARK VINA RESULT:       6.5      2.011      7.411
REMARK  Name = *****
REMARK                            x       y       z     vdW  Elec       q    Type
REMARK                         _______ _______ _______ _____ _____    ______ ____
ROOT
ATOM      1  C   LIG    1       27.001 -19.368   5.131  0.00  0.00    +0.021 C 
ATOM      2  C   LIG    1       27.842 -19.055   6.425  0.00  0.00    +0.016 C 
ATOM      3  C   LIG    1       28.603 -20.219   7.062  0.00  0.00    +0.001 C 
ATOM      4  C   LIG    1       29.475 -20.948   6.054  0.00  0.00    +0.000 C 
ATOM      5  C   LIG    1       28.651 -21.422   4.873  0.00  0.00    +0.001 C 
ATOM      6  C   LIG    1       27.899 -20.266   4.192  0.00  0.00    +0.016 C 
ENDROOT
BRANCH   1   9
ATOM      7  C   LIG    1       23.208 -20.195   5.537  0.00  0.00    +0.122 A 
ATOM      8  C   LIG    1       24.424 -19.696   5.023  0.00  0.00    +0.050 A 
ATOM      9  C   LIG    1       25.678 -20.074   5.565  0.00  0.00    -0.033 A 
ATOM     10  C   LIG    1       25.664 -21.075   6.548  0.00  0.00    +0.005 A 
ATOM     11  C   LIG    1       24.470 -21.572   7.062  0.00  0.00    +0.004 A 
ATOM     12  C   LIG    1       23.249 -21.127   6.567  0.00  0.00    +0.045 A 
BRANCH   7  13
ATOM     13  O   LIG    1       22.066 -19.720   4.956  0.00  0.00    -0.475 OA
BRANCH  13  14
ATOM     14  C   LIG    1       22.006 -18.490   4.192  0.00  0.00    +0.203 C 
ATOM     15  C   LIG    1       23.002 -18.400   3.011  0.00  0.00    +0.068 C 
BRANCH  14  17
ATOM     16  C   LIG    1       22.555 -15.899   4.365  0.00  0.00    +0.008 C 
ATOM     17  C   LIG    1       22.128 -17.198   5.050  0.00  0.00    +0.056 C 
ENDBRANCH  14  17
BRANCH  14  18
ATOM     18  C   LIG    1       20.652 -18.603   3.515  0.00  0.00    +0.349 C 
ATOM     19  O   LIG    1       20.114 -17.681   2.838  0.00  0.00    -0.246 OA
BRANCH  18  20
ATOM     20  O   LIG    1       20.035 -19.786   3.628  0.00  0.00    -0.478 OA
ATOM     21  H   LIG    1       19.787 -20.134   2.731  0.00  0.00    +0.295 HD
ENDBRANCH  18  20
ENDBRANCH  14  18
ENDBRANCH  13  14
ENDBRANCH   7  13
ENDBRANCH   1   9
BRANCH   1  22
ATOM     22  C   LIG    1       26.675 -18.056   4.334  0.00  0.00    -0.037 A 
ATOM     23  C   LIG    1       25.477 -17.855   3.623  0.00  0.00    +0.008 A 
ATOM     24  C   LIG    1       25.202 -16.640   2.975  0.00  0.00    +0.046 A 
ATOM     25  C   LIG    1       26.095 -15.571   3.042  0.00  0.00    +0.122 A 
ATOM     26  C   LIG    1       27.307 -15.765   3.691  0.00  0.00    +0.046 A 
ATOM     27  C   LIG    1       27.594 -16.989   4.320  0.00  0.00    +0.008 A 
BRANCH  25  28
ATOM     28  O   LIG    1       25.679 -14.426   2.435  0.00  0.00    -0.475 OA
BRANCH  28  29
ATOM     29  C   LIG    1       25.513 -13.182   3.120  0.00  0.00    +0.203 C 
ATOM     30  C   LIG    1       26.502 -12.245   2.393  0.00  0.00    +0.068 C 
BRANCH  29  31
ATOM     31  C   LIG    1       25.975 -13.064   4.617  0.00  0.00    +0.349 C 
ATOM     32  O   LIG    1       27.104 -12.702   4.927  0.00  0.00    -0.246 OA
BRANCH  31  33
ATOM     33  O   LIG    1       25.112 -13.447   5.589  0.00  0.00    -0.478 OA
ATOM     34  H   LIG    1       25.227 -14.331   5.998  0.00  0.00    +0.295 HD
ENDBRANCH  31  33
ENDBRANCH  29  31
BRANCH  29  35
ATOM     35  C   LIG    1       24.073 -12.556   2.949  0.00  0.00    +0.056 C 
ATOM     36  C   LIG    1       23.580 -11.540   3.992  0.00  0.00    +0.008 C 
ENDBRANCH  29  35
ENDBRANCH  28  29
ENDBRANCH  25  28
ENDBRANCH   1  22
TORSDOF 12
ENDMDL
