MODEL 1
REMARK VINA RESULT:       9.3      0.000      0.000
REMARK  Name = *****
REMARK                            x       y       z     vdW  Elec       q    Type
REMARK                         _______ _______ _______ _____ _____    ______ ____
ROOT
ATOM      1  C   LIG    1       22.866 -16.545   4.436  0.00  0.00    +0.131 A 
ATOM      2  C   LIG    1       24.221 -16.771   4.086  0.00  0.00    +0.061 A 
ATOM      3  C   LIG    1       24.684 -18.083   3.884  0.00  0.00    +0.043 A 
ATOM      4  C   LIG    1       23.814 -19.159   4.057  0.00  0.00    +0.106 A 
ATOM      5  C   LIG    1       22.493 -18.948   4.446  0.00  0.00    +0.032 A 
ATOM      6  C   LIG    1       22.021 -17.649   4.623  0.00  0.00    +0.048 A 
ENDROOT
BRANCH   2   7
ATOM      7  C   LIG    1       25.223 -15.668   3.919  0.00  0.00    +0.145 C 
ATOM      8  N   LIG    1       26.499 -15.940   4.400  0.00  0.00    -0.305 N 
ATOM      9  H   LIG    1       26.682 -16.812   4.877  0.00  0.00    +0.170 HD
ATOM     10  C   LIG    1       27.557 -15.065   4.323  0.00  0.00    +0.278 C 
ATOM     11  O   LIG    1       28.675 -15.335   4.745  0.00  0.00    -0.266 OA
ATOM     12  C   LIG    1       27.174 -13.847   3.708  0.00  0.00    +0.151 A 
ATOM     13  C   LIG    1       25.914 -13.616   3.238  0.00  0.00    +0.119 A 
ATOM     14  C   LIG    1       25.921 -12.309   2.709  0.00  0.00    +0.089 A 
ATOM     15  N   LIG    1       27.134 -11.747   2.876  0.00  0.00    -0.174 NA
ATOM     16  N   LIG    1       27.878 -12.714   3.456  0.00  0.00    -0.260 N 
ATOM     17  C   LIG    1       29.276 -12.468   3.713  0.00  0.00    +0.173 C 
ATOM     18  N   LIG    1       24.883 -14.559   3.315  0.00  0.00    -0.225 NA
BRANCH  14  19
ATOM     19  C   LIG    1       24.813 -11.561   2.031  0.00  0.00    +0.059 C 
BRANCH  19  20
ATOM     20  C   LIG    1       23.491 -11.573   2.814  0.00  0.00    +0.003 C 
ATOM     21  C   LIG    1       23.688 -11.461   4.317  0.00  0.00    +0.004 C 
ENDBRANCH  19  20
ENDBRANCH  14  19
ENDBRANCH   2   7
BRANCH   4  22
ATOM     22  S   LIG    1       24.344 -20.818   3.721  0.00  0.00    +0.058 S 
ATOM     23  O   LIG    1       25.787 -20.825   3.588  0.00  0.00    -0.153 OA
ATOM     24  O   LIG    1       23.482 -21.351   2.695  0.00  0.00    -0.153 OA
BRANCH  22  25
ATOM     25  N   LIG    1       23.925 -21.567   5.144  0.00  0.00    -0.190 NA
ATOM     26  H   LIG    1       23.903 -22.598   5.063  0.00  0.00    +0.148 HD
BRANCH  25  27
ATOM     27  C   LIG    1       24.439 -21.075   6.421  0.00  0.00    +0.107 C 
BRANCH  27  28
ATOM     28  C   LIG    1       25.894 -21.524   6.596  0.00  0.00    +0.036 C 
BRANCH  28  29
ATOM     29  C   LIG    1       26.892 -20.677   5.772  0.00  0.00    +0.058 C 
ATOM     30  N   LIG    1       28.262 -21.232   5.890  0.00  0.00    -0.302 NA
ATOM     31  C   LIG    1       29.037 -21.035   4.665  0.00  0.00    +0.105 C 
ATOM     32  C   LIG    1       28.867 -20.546   7.039  0.00  0.00    +0.084 C 
ATOM     33  C   LIG    1       28.331 -19.129   6.989  0.00  0.00    +0.017 C 
ATOM     34  C   LIG    1       26.978 -19.242   6.300  0.00  0.00    +0.020 C 
ENDBRANCH  28  29
ENDBRANCH  27  28
ENDBRANCH  25  27
ENDBRANCH  22  25
ENDBRANCH   4  22
BRANCH   1  35
ATOM     35  O   LIG    1       22.440 -15.243   4.574  0.00  0.00    -0.491 OA
BRANCH  35  36
ATOM     36  C   LIG    1       22.957 -14.496   5.684  0.00  0.00    +0.229 C 
BRANCH  36  38
ATOM     37  C   LIG    1       20.983 -15.583   6.814  0.00  0.00    +0.007 C 
ATOM     38  C   LIG    1       21.864 -14.346   6.741  0.00  0.00    +0.037 C 
ENDBRANCH  36  38
ENDBRANCH  35  36
ENDBRANCH   1  35
TORSDOF 11
ENDMDL
MODEL 2
REMARK VINA RESULT:      10.7      1.955      3.647
REMARK  Name = *****
REMARK                            x       y       z     vdW  Elec       q    Type
REMARK                         _______ _______ _______ _____ _____    ______ ____
ROOT
ATOM      1  C   LIG    1       22.598 -14.866   5.532  0.00  0.00    +0.131 A 
ATOM      2  C   LIG    1       23.490 -15.427   4.585  0.00  0.00    +0.061 A 
ATOM      3  C   LIG    1       23.208 -16.679   4.010  0.00  0.00    +0.043 A 
ATOM      4  C   LIG    1       22.064 -17.377   4.397  0.00  0.00    +0.106 A 
ATOM      5  C   LIG    1       21.206 -16.853   5.362  0.00  0.00    +0.032 A 
ATOM      6  C   LIG    1       21.467 -15.601   5.916  0.00  0.00    +0.048 A 
ENDROOT
BRANCH   2   7
ATOM      7  C   LIG    1       24.757 -14.754   4.148  0.00  0.00    +0.145 C 
ATOM      8  N   LIG    1       24.592 -13.624   3.353  0.00  0.00    -0.305 N 
ATOM      9  H   LIG    1       23.666 -13.343   3.063  0.00  0.00    +0.170 HD
ATOM     10  C   LIG    1       25.629 -12.863   2.869  0.00  0.00    +0.278 C 
ATOM     11  O   LIG    1       25.455 -11.864   2.180  0.00  0.00    -0.266 OA
ATOM     12  C   LIG    1       26.884 -13.386   3.268  0.00  0.00    +0.151 A 
ATOM     13  C   LIG    1       27.010 -14.493   4.057  0.00  0.00    +0.119 A 
ATOM     14  C   LIG    1       28.394 -14.702   4.229  0.00  0.00    +0.089 A 
ATOM     15  N   LIG    1       29.092 -13.775   3.544  0.00  0.00    -0.174 NA
ATOM     16  N   LIG    1       28.150 -12.976   2.999  0.00  0.00    -0.260 N 
ATOM     17  C   LIG    1       28.560 -11.815   2.247  0.00  0.00    +0.173 C 
ATOM     18  N   LIG    1       25.915 -15.211   4.548  0.00  0.00    -0.225 NA
BRANCH  14  19
ATOM     19  C   LIG    1       29.094 -15.754   5.034  0.00  0.00    +0.059 C 
BRANCH  19  20
ATOM     20  C   LIG    1       28.751 -17.189   4.609  0.00  0.00    +0.003 C 
ATOM     21  C   LIG    1       29.128 -18.227   5.654  0.00  0.00    +0.004 C 
ENDBRANCH  19  20
ENDBRANCH  14  19
ENDBRANCH   2   7
BRANCH   4  22
ATOM     22  S   LIG    1       21.634 -18.914   3.625  0.00  0.00    +0.058 S 
ATOM     23  O   LIG    1       22.629 -19.220   2.617  0.00  0.00    -0.153 OA
ATOM     24  O   LIG    1       20.226 -18.867   3.315  0.00  0.00    -0.153 OA
BRANCH  22  25
ATOM     25  N   LIG    1       21.814 -19.960   4.903  0.00  0.00    -0.190 NA
ATOM     26  H   LIG    1       21.793 -20.953   4.615  0.00  0.00    +0.148 HD
BRANCH  25  27
ATOM     27  C   LIG    1       22.764 -19.665   5.975  0.00  0.00    +0.107 C 
BRANCH  27  28
ATOM     28  C   LIG    1       23.176 -20.968   6.668  0.00  0.00    +0.036 C 
BRANCH  28  29
ATOM     29  C   LIG    1       24.503 -21.549   6.126  0.00  0.00    +0.058 C 
ATOM     30  N   LIG    1       25.645 -20.695   6.531  0.00  0.00    -0.302 NA
ATOM     31  C   LIG    1       26.861 -21.478   6.751  0.00  0.00    +0.105 C 
ATOM     32  C   LIG    1       25.809 -19.718   5.446  0.00  0.00    +0.084 C 
ATOM     33  C   LIG    1       25.490 -20.475   4.172  0.00  0.00    +0.017 C 
ATOM     34  C   LIG    1       24.521 -21.571   4.595  0.00  0.00    +0.020 C 
ENDBRANCH  28  29
ENDBRANCH  27  28
ENDBRANCH  25  27
ENDBRANCH  22  25
ENDBRANCH   4  22
BRANCH   1  35
ATOM     35  O   LIG    1       22.884 -13.616   6.032  0.00  0.00    -0.491 OA
BRANCH  35  36
ATOM     36  C   LIG    1       22.725 -12.500   5.143  0.00  0.00    +0.229 C 
BRANCH  36  38
ATOM     37  C   LIG    1       24.942 -12.040   6.251  0.00  0.00    +0.007 C 
ATOM     38  C   LIG    1       23.784 -11.447   5.465  0.00  0.00    +0.037 C 
ENDBRANCH  36  38
ENDBRANCH  35  36
ENDBRANCH   1  35
TORSDOF 11
ENDMDL
