MODEL 1
REMARK VINA RESULT:       5.5      0.000      0.000
REMARK  Name = *****
REMARK                            x       y       z     vdW  Elec       q    Type
REMARK                         _______ _______ _______ _____ _____    ______ ____
ROOT
ATOM      1  C   LIG    1       26.071 -20.783   5.462  0.00  0.00    +0.011 C 
ATOM      2  C   LIG    1       25.378 -19.537   4.925  0.00  0.00    +0.026 C 
ATOM      3  C   LIG    1       23.827 -19.496   4.963  0.00  0.00    +0.134 C 
ATOM      4  C   LIG    1       23.436 -18.469   3.804  0.00  0.00    +0.010 C 
ATOM      5  C   LIG    1       24.790 -18.032   3.156  0.00  0.00    +0.005 C 
ATOM      6  C   LIG    1       25.424 -16.689   3.626  0.00  0.00    +0.034 C 
ATOM      7  C   LIG    1       24.419 -15.566   3.957  0.00  0.00    +0.153 C 
ATOM      8  C   LIG    1       23.366 -16.141   4.941  0.00  0.00    +0.154 C 
ATOM      9  F   LIG    1       23.741 -15.286   2.787  0.00  0.00    -0.238 F 
ATOM     10  C   LIG    1       25.138 -14.212   4.407  0.00  0.00    +0.044 C 
ATOM     11  C   LIG    1       26.356 -13.858   3.499  0.00  0.00    -0.053 C 
ATOM     12  C   LIG    1       27.086 -12.757   3.804  0.00  0.00    +0.051 C 
ATOM     13  C   LIG    1       27.607 -12.828   5.220  0.00  0.00    +0.179 C 
ATOM     14  C   LIG    1       26.824 -13.633   6.200  0.00  0.00    +0.047 C 
ATOM     15  O   LIG    1       28.597 -12.188   5.565  0.00  0.00    -0.288 OA
ATOM     16  C   LIG    1       27.193 -15.015   2.993  0.00  0.00    +0.032 C 
ATOM     17  C   LIG    1       24.120 -13.037   4.333  0.00  0.00    +0.023 C 
ATOM     18  C   LIG    1       25.683 -14.245   5.840  0.00  0.00    -0.009 C 
ATOM     19  C   LIG    1       26.376 -16.199   2.521  0.00  0.00    +0.011 C 
ATOM     20  C   LIG    1       22.611 -19.150   2.670  0.00  0.00    +0.015 C 
ATOM     21  C   LIG    1       22.585 -17.284   4.292  0.00  0.00    +0.044 C 
ATOM     22  C   LIG    1       25.729 -19.211   3.479  0.00  0.00    +0.011 C 
ENDROOT
BRANCH   3  23
ATOM     23  O   LIG    1       23.515 -18.938   6.244  0.00  0.00    -0.380 OA
ATOM     24  H   LIG    1       23.604 -17.963   6.221  0.00  0.00    +0.211 HD
ENDBRANCH   3  23
BRANCH   3  25
ATOM     25  C   LIG    1       23.175 -20.901   4.745  0.00  0.00    +0.190 C 
ATOM     26  O   LIG    1       23.269 -21.535   3.693  0.00  0.00    -0.292 OA
BRANCH  25  27
ATOM     27  C   LIG    1       22.321 -21.445   5.881  0.00  0.00    +0.233 C 
BRANCH  27  28
ATOM     28  O   LIG    1       23.098 -21.572   7.062  0.00  0.00    -0.387 OA
ATOM     29  H   LIG    1       22.714 -22.312   7.571  0.00  0.00    +0.210 HD
ENDBRANCH  27  28
ENDBRANCH  25  27
ENDBRANCH   3  25
BRANCH   8  30
ATOM     30  O   LIG    1       22.397 -15.173   5.347  0.00  0.00    -0.389 OA
ATOM     31  H   LIG    1       22.262 -14.566   4.594  0.00  0.00    +0.210 HD
ENDBRANCH   8  30
TORSDOF 5
ENDMDL
