MODEL 1
REMARK VINA RESULT:      -6.0      0.000      0.000
REMARK  Name = *****
REMARK                            x       y       z     vdW  Elec       q    Type
REMARK                         _______ _______ _______ _____ _____    ______ ____
ROOT
ATOM      1  C   LIG    1       27.525 -28.944  13.672  0.00  0.00    +0.015 C 
ATOM      2  C   LIG    1       26.533 -27.877  13.179  0.00  0.00    +0.013 C 
ATOM      3  C   LIG    1       26.435 -26.677  14.188  0.00  0.00    +0.132 C 
ATOM      4  C   LIG    1       25.138 -25.973  13.757  0.00  0.00    +0.043 C 
ATOM      5  C   LIG    1       24.237 -27.074  13.187  0.00  0.00    +0.007 C 
ATOM      6  C   LIG    1       25.064 -28.381  13.220  0.00  0.00    +0.002 C 
ATOM      7  C   LIG    1       24.625 -29.387  12.137  0.00  0.00    +0.004 C 
ATOM      8  C   LIG    1       24.963 -30.855  12.507  0.00  0.00    +0.009 C 
ATOM      9  C   LIG    1       25.791 -31.655  11.497  0.00  0.00    +0.032 C 
ATOM     10  C   LIG    1       25.524 -31.373  10.041  0.00  0.00    -0.056 C 
ATOM     11  C   LIG    1       24.707 -30.137   9.691  0.00  0.00    +0.017 C 
ATOM     12  C   LIG    1       23.200 -30.513   9.746  0.00  0.00    +0.021 C 
ATOM     13  C   LIG    1       24.924 -29.694   8.251  0.00  0.00    -0.012 C 
ATOM     14  C   LIG    1       25.533 -30.443   7.322  0.00  0.00    +0.047 C 
ATOM     15  C   LIG    1       26.092 -31.771   7.667  0.00  0.00    +0.179 C 
ATOM     16  O   LIG    1       26.533 -32.517   6.813  0.00  0.00    -0.288 OA
ATOM     17  C   LIG    1       26.130 -32.129   9.105  0.00  0.00    +0.051 C 
ATOM     18  C   LIG    1       25.044 -28.994  10.705  0.00  0.00    +0.072 C 
ATOM     19  C   LIG    1       26.513 -28.533  10.712  0.00  0.00    +0.138 C 
ATOM     20  O   LIG    1       27.338 -28.898   9.874  0.00  0.00    -0.297 OA
ATOM     21  C   LIG    1       26.902 -27.470  11.736  0.00  0.00    +0.084 C 
ENDROOT
BRANCH   3  22
ATOM     22  O   LIG    1       26.198 -27.213  15.500  0.00  0.00    -0.380 OA
ATOM     23  H   LIG    1       26.486 -28.148  15.517  0.00  0.00    +0.211 HD
ENDBRANCH   3  22
BRANCH   3  24
ATOM     24  C   LIG    1       27.625 -25.689  14.246  0.00  0.00    +0.190 C 
ATOM     25  O   LIG    1       27.770 -24.781  13.422  0.00  0.00    -0.292 OA
BRANCH  24  26
ATOM     26  C   LIG    1       28.557 -25.781  15.451  0.00  0.00    +0.233 C 
BRANCH  26  27
ATOM     27  O   LIG    1       29.701 -26.561  15.126  0.00  0.00    -0.387 OA
ATOM     28  H   LIG    1       30.464 -26.144  15.570  0.00  0.00    +0.210 HD
ENDBRANCH  26  27
ENDBRANCH  24  26
ENDBRANCH   3  24
TORSDOF 4
ENDMDL
MODEL 2
REMARK VINA RESULT:      -5.8      2.743      6.477
REMARK  Name = *****
REMARK                            x       y       z     vdW  Elec       q    Type
REMARK                         _______ _______ _______ _____ _____    ______ ____
ROOT
ATOM      1  C   LIG    1       25.572 -31.171  12.556  0.00  0.00    +0.015 C 
ATOM      2  C   LIG    1       25.647 -29.946  11.630  0.00  0.00    +0.013 C 
ATOM      3  C   LIG    1       26.805 -30.093  10.578  0.00  0.00    +0.132 C 
ATOM      4  C   LIG    1       26.987 -28.655  10.065  0.00  0.00    +0.043 C 
ATOM      5  C   LIG    1       26.606 -27.744  11.239  0.00  0.00    +0.007 C 
ATOM      6  C   LIG    1       26.129 -28.673  12.380  0.00  0.00    +0.002 C 
ATOM      7  C   LIG    1       25.127 -27.982  13.326  0.00  0.00    +0.004 C 
ATOM      8  C   LIG    1       25.108 -28.608  14.745  0.00  0.00    +0.009 C 
ATOM      9  C   LIG    1       23.754 -29.083  15.279  0.00  0.00    +0.032 C 
ATOM     10  C   LIG    1       22.555 -28.253  14.895  0.00  0.00    -0.056 C 
ATOM     11  C   LIG    1       22.727 -27.222  13.787  0.00  0.00    +0.017 C 
ATOM     12  C   LIG    1       23.255 -25.905  14.421  0.00  0.00    +0.021 C 
ATOM     13  C   LIG    1       21.397 -26.822  13.164  0.00  0.00    -0.012 C 
ATOM     14  C   LIG    1       20.203 -27.121  13.695  0.00  0.00    +0.047 C 
ATOM     15  C   LIG    1       20.105 -27.924  14.935  0.00  0.00    +0.179 C 
ATOM     16  O   LIG    1       19.041 -28.094  15.500  0.00  0.00    -0.288 OA
ATOM     17  C   LIG    1       21.356 -28.545  15.431  0.00  0.00    +0.051 C 
ATOM     18  C   LIG    1       23.724 -27.777  12.718  0.00  0.00    +0.072 C 
ATOM     19  C   LIG    1       23.279 -29.072  12.014  0.00  0.00    +0.138 C 
ATOM     20  O   LIG    1       22.154 -29.556  12.140  0.00  0.00    -0.297 OA
ATOM     21  C   LIG    1       24.254 -29.689  11.014  0.00  0.00    +0.084 C 
ENDROOT
BRANCH   3  22
ATOM     22  O   LIG    1       28.009 -30.436  11.283  0.00  0.00    -0.380 OA
ATOM     23  H   LIG    1       28.778 -30.104  10.777  0.00  0.00    +0.211 HD
ENDBRANCH   3  22
BRANCH   3  24
ATOM     24  C   LIG    1       26.593 -31.089   9.412  0.00  0.00    +0.190 C 
ATOM     25  O   LIG    1       26.941 -32.271   9.482  0.00  0.00    -0.292 OA
BRANCH  24  26
ATOM     26  C   LIG    1       25.803 -30.597   8.202  0.00  0.00    +0.233 C 
BRANCH  26  27
ATOM     27  O   LIG    1       26.321 -31.178   7.011  0.00  0.00    -0.387 OA
ATOM     28  H   LIG    1       27.143 -30.697   6.797  0.00  0.00    +0.210 HD
ENDBRANCH  26  27
ENDBRANCH  24  26
ENDBRANCH   3  24
TORSDOF 4
ENDMDL
MODEL 3
REMARK VINA RESULT:      -5.8      0.730      1.072
REMARK  Name = *****
REMARK                            x       y       z     vdW  Elec       q    Type
REMARK                         _______ _______ _______ _____ _____    ______ ____
ROOT
ATOM      1  C   LIG    1       27.383 -29.507  13.384  0.00  0.00    +0.015 C 
ATOM      2  C   LIG    1       26.367 -28.406  13.039  0.00  0.00    +0.013 C 
ATOM      3  C   LIG    1       26.256 -27.346  14.192  0.00  0.00    +0.132 C 
ATOM      4  C   LIG    1       24.943 -26.617  13.864  0.00  0.00    +0.043 C 
ATOM      5  C   LIG    1       24.057 -27.654  13.164  0.00  0.00    +0.007 C 
ATOM      6  C   LIG    1       24.907 -28.938  13.025  0.00  0.00    +0.002 C 
ATOM      7  C   LIG    1       24.477 -29.806  11.825  0.00  0.00    +0.004 C 
ATOM      8  C   LIG    1       24.844 -31.302  12.003  0.00  0.00    +0.009 C 
ATOM      9  C   LIG    1       25.678 -31.952  10.894  0.00  0.00    +0.032 C 
ATOM     10  C   LIG    1       25.393 -31.492   9.487  0.00  0.00    -0.056 C 
ATOM     11  C   LIG    1       24.551 -30.237   9.303  0.00  0.00    +0.017 C 
ATOM     12  C   LIG    1       23.051 -30.646   9.320  0.00  0.00    +0.021 C 
ATOM     13  C   LIG    1       24.746 -29.610   7.930  0.00  0.00    -0.012 C 
ATOM     14  C   LIG    1       25.360 -30.224   6.909  0.00  0.00    +0.047 C 
ATOM     15  C   LIG    1       25.946 -31.573   7.079  0.00  0.00    +0.179 C 
ATOM     16  O   LIG    1       26.392 -32.197   6.133  0.00  0.00    -0.288 OA
ATOM     17  C   LIG    1       26.003 -32.111   8.459  0.00  0.00    +0.051 C 
ATOM     18  C   LIG    1       24.876 -29.227  10.452  0.00  0.00    +0.072 C 
ATOM     19  C   LIG    1       26.336 -28.742  10.508  0.00  0.00    +0.138 C 
ATOM     20  O   LIG    1       27.160 -28.981   9.625  0.00  0.00    -0.297 OA
ATOM     21  C   LIG    1       26.716 -27.810  11.656  0.00  0.00    +0.084 C 
ENDROOT
BRANCH   3  22
ATOM     22  O   LIG    1       26.041 -28.049  15.427  0.00  0.00    -0.380 OA
ATOM     23  H   LIG    1       26.507 -27.576  16.146  0.00  0.00    +0.211 HD
ENDBRANCH   3  22
BRANCH   3  24
ATOM     24  C   LIG    1       27.429 -26.351  14.368  0.00  0.00    +0.190 C 
ATOM     25  O   LIG    1       28.450 -26.639  15.000  0.00  0.00    -0.292 OA
BRANCH  24  26
ATOM     26  C   LIG    1       27.350 -25.028  13.610  0.00  0.00    +0.233 C 
BRANCH  26  27
ATOM     27  O   LIG    1       27.982 -23.998  14.359  0.00  0.00    -0.387 OA
ATOM     28  H   LIG    1       27.839 -24.205  15.302  0.00  0.00    +0.210 HD
ENDBRANCH  26  27
ENDBRANCH  24  26
ENDBRANCH   3  24
TORSDOF 4
ENDMDL
MODEL 4
REMARK VINA RESULT:      -5.7      3.634      6.882
REMARK  Name = *****
REMARK                            x       y       z     vdW  Elec       q    Type
REMARK                         _______ _______ _______ _____ _____    ______ ____
ROOT
ATOM      1  C   LIG    1       24.641 -32.394   9.570  0.00  0.00    +0.015 C 
ATOM      2  C   LIG    1       24.756 -30.876   9.354  0.00  0.00    +0.013 C 
ATOM      3  C   LIG    1       25.675 -30.540   8.125  0.00  0.00    +0.132 C 
ATOM      4  C   LIG    1       26.000 -29.053   8.335  0.00  0.00    +0.043 C 
ATOM      5  C   LIG    1       25.982 -28.835   9.853  0.00  0.00    +0.007 C 
ATOM      6  C   LIG    1       25.562 -30.182  10.486  0.00  0.00    +0.002 C 
ATOM      7  C   LIG    1       24.866 -30.004  11.851  0.00  0.00    +0.004 C 
ATOM      8  C   LIG    1       24.989 -31.256  12.757  0.00  0.00    +0.009 C 
ATOM      9  C   LIG    1       23.687 -31.857  13.296  0.00  0.00    +0.032 C 
ATOM     10  C   LIG    1       22.593 -30.880  13.644  0.00  0.00    -0.056 C 
ATOM     11  C   LIG    1       22.738 -29.444  13.159  0.00  0.00    +0.017 C 
ATOM     12  C   LIG    1       23.577 -28.656  14.203  0.00  0.00    +0.021 C 
ATOM     13  C   LIG    1       21.405 -28.710  13.129  0.00  0.00    -0.012 C 
ATOM     14  C   LIG    1       20.288 -29.166  13.713  0.00  0.00    +0.047 C 
ATOM     15  C   LIG    1       20.275 -30.477  14.403  0.00  0.00    +0.179 C 
ATOM     16  O   LIG    1       19.310 -30.847  15.046  0.00  0.00    -0.288 OA
ATOM     17  C   LIG    1       21.473 -31.333  14.237  0.00  0.00    +0.051 C 
ATOM     18  C   LIG    1       23.431 -29.442  11.757  0.00  0.00    +0.072 C 
ATOM     19  C   LIG    1       22.666 -30.181  10.644  0.00  0.00    +0.138 C 
ATOM     20  O   LIG    1       21.515 -30.598  10.780  0.00  0.00    -0.297 OA
ATOM     21  C   LIG    1       23.339 -30.267   9.277  0.00  0.00    +0.084 C 
ENDROOT
BRANCH   3  22
ATOM     22  O   LIG    1       26.910 -31.259   8.279  0.00  0.00    -0.380 OA
ATOM     23  H   LIG    1       26.730 -32.218   8.201  0.00  0.00    +0.211 HD
ENDBRANCH   3  22
BRANCH   3  24
ATOM     24  C   LIG    1       25.104 -30.802   6.709  0.00  0.00    +0.190 C 
ATOM     25  O   LIG    1       24.924 -31.942   6.271  0.00  0.00    -0.292 OA
BRANCH  24  26
ATOM     26  C   LIG    1       24.631 -29.593   5.907  0.00  0.00    +0.233 C 
BRANCH  26  27
ATOM     27  O   LIG    1       23.247 -29.720   5.603  0.00  0.00    -0.387 OA
ATOM     28  H   LIG    1       22.756 -29.338   6.355  0.00  0.00    +0.210 HD
ENDBRANCH  26  27
ENDBRANCH  24  26
ENDBRANCH   3  24
TORSDOF 4
ENDMDL
MODEL 5
REMARK VINA RESULT:      -5.5      1.755      6.790
REMARK  Name = *****
REMARK                            x       y       z     vdW  Elec       q    Type
REMARK                         _______ _______ _______ _____ _____    ______ ____
ROOT
ATOM      1  C   LIG    1       25.776 -28.719   8.806  0.00  0.00    +0.015 C 
ATOM      2  C   LIG    1       25.637 -30.199   9.199  0.00  0.00    +0.013 C 
ATOM      3  C   LIG    1       25.006 -31.044   8.035  0.00  0.00    +0.132 C 
ATOM      4  C   LIG    1       24.567 -32.335   8.746  0.00  0.00    +0.043 C 
ATOM      5  C   LIG    1       24.228 -31.921  10.183  0.00  0.00    +0.007 C 
ATOM      6  C   LIG    1       24.559 -30.415  10.298  0.00  0.00    +0.002 C 
ATOM      7  C   LIG    1       24.918 -29.996  11.738  0.00  0.00    +0.004 C 
ATOM      8  C   LIG    1       24.654 -28.492  12.010  0.00  0.00    +0.009 C 
ATOM      9  C   LIG    1       25.828 -27.664  12.543  0.00  0.00    +0.032 C 
ATOM     10  C   LIG    1       26.763 -28.366  13.495  0.00  0.00    -0.056 C 
ATOM     11  C   LIG    1       26.660 -29.881  13.609  0.00  0.00    +0.017 C 
ATOM     12  C   LIG    1       25.567 -30.220  14.661  0.00  0.00    +0.021 C 
ATOM     13  C   LIG    1       27.926 -30.500  14.183  0.00  0.00    -0.012 C 
ATOM     14  C   LIG    1       28.903 -29.796  14.772  0.00  0.00    +0.047 C 
ATOM     15  C   LIG    1       28.825 -28.320  14.859  0.00  0.00    +0.179 C 
ATOM     16  O   LIG    1       29.635 -27.677  15.500  0.00  0.00    -0.288 OA
ATOM     17  C   LIG    1       27.741 -27.660  14.093  0.00  0.00    +0.051 C 
ATOM     18  C   LIG    1       26.305 -30.480  12.209  0.00  0.00    +0.072 C 
ATOM     19  C   LIG    1       27.340 -30.216  11.100  0.00  0.00    +0.138 C 
ATOM     20  O   LIG    1       28.449 -29.727  11.316  0.00  0.00    -0.297 OA
ATOM     21  C   LIG    1       27.002 -30.721   9.699  0.00  0.00    +0.084 C 
ENDROOT
BRANCH   3  22
ATOM     22  O   LIG    1       23.806 -30.383   7.600  0.00  0.00    -0.380 OA
ATOM     23  H   LIG    1       23.894 -29.424   7.771  0.00  0.00    +0.211 HD
ENDBRANCH   3  22
BRANCH   3  24
ATOM     24  C   LIG    1       25.896 -31.349   6.805  0.00  0.00    +0.190 C 
ATOM     25  O   LIG    1       26.835 -32.149   6.852  0.00  0.00    -0.292 OA
BRANCH  24  26
ATOM     26  C   LIG    1       25.490 -30.727   5.471  0.00  0.00    +0.233 C 
BRANCH  26  27
ATOM     27  O   LIG    1       25.810 -29.341   5.461  0.00  0.00    -0.387 OA
ATOM     28  H   LIG    1       26.407 -29.183   6.217  0.00  0.00    +0.210 HD
ENDBRANCH  26  27
ENDBRANCH  24  26
ENDBRANCH   3  24
TORSDOF 4
ENDMDL
MODEL 6
REMARK VINA RESULT:      -5.4      8.615     11.354
REMARK  Name = *****
REMARK                            x       y       z     vdW  Elec       q    Type
REMARK                         _______ _______ _______ _____ _____    ______ ____
ROOT
ATOM      1  C   LIG    1       26.434 -22.884   7.566  0.00  0.00    +0.015 C 
ATOM      2  C   LIG    1       25.870 -21.621   6.894  0.00  0.00    +0.013 C 
ATOM      3  C   LIG    1       24.500 -21.912   6.184  0.00  0.00    +0.132 C 
ATOM      4  C   LIG    1       24.332 -20.701   5.251  0.00  0.00    +0.043 C 
ATOM      5  C   LIG    1       25.754 -20.267   4.876  0.00  0.00    +0.007 C 
ATOM      6  C   LIG    1       26.717 -21.182   5.667  0.00  0.00    +0.002 C 
ATOM      7  C   LIG    1       28.078 -20.511   5.944  0.00  0.00    +0.004 C 
ATOM      8  C   LIG    1       29.222 -21.536   6.157  0.00  0.00    +0.009 C 
ATOM      9  C   LIG    1       30.029 -21.420   7.454  0.00  0.00    +0.032 C 
ATOM     10  C   LIG    1       30.273 -20.024   7.967  0.00  0.00    -0.056 C 
ATOM     11  C   LIG    1       29.465 -18.887   7.355  0.00  0.00    +0.017 C 
ATOM     12  C   LIG    1       30.202 -18.393   6.079  0.00  0.00    +0.021 C 
ATOM     13  C   LIG    1       29.426 -17.661   8.255  0.00  0.00    -0.012 C 
ATOM     14  C   LIG    1       30.222 -17.489   9.320  0.00  0.00    +0.047 C 
ATOM     15  C   LIG    1       31.185 -18.540   9.722  0.00  0.00    +0.179 C 
ATOM     16  O   LIG    1       32.002 -18.351  10.604  0.00  0.00    -0.288 OA
ATOM     17  C   LIG    1       31.078 -19.847   9.032  0.00  0.00    +0.051 C 
ATOM     18  C   LIG    1       28.028 -19.403   7.017  0.00  0.00    +0.072 C 
ATOM     19  C   LIG    1       27.205 -19.896   8.221  0.00  0.00    +0.138 C 
ATOM     20  O   LIG    1       27.563 -19.744   9.389  0.00  0.00    -0.297 OA
ATOM     21  C   LIG    1       25.823 -20.475   7.928  0.00  0.00    +0.084 C 
ENDROOT
BRANCH   3  22
ATOM     22  O   LIG    1       24.667 -23.063   5.341  0.00  0.00    -0.380 OA
ATOM     23  H   LIG    1       25.426 -23.587   5.668  0.00  0.00    +0.211 HD
ENDBRANCH   3  22
BRANCH   3  24
ATOM     24  C   LIG    1       23.255 -22.113   7.082  0.00  0.00    +0.190 C 
ATOM     25  O   LIG    1       23.006 -21.375   8.041  0.00  0.00    -0.292 OA
BRANCH  24  26
ATOM     26  C   LIG    1       22.249 -23.181   6.662  0.00  0.00    +0.233 C 
BRANCH  26  27
ATOM     27  O   LIG    1       22.856 -24.466   6.705  0.00  0.00    -0.387 OA
ATOM     28  H   LIG    1       23.617 -24.440   6.095  0.00  0.00    +0.210 HD
ENDBRANCH  26  27
ENDBRANCH  24  26
ENDBRANCH   3  24
TORSDOF 4
ENDMDL
MODEL 7
REMARK VINA RESULT:      -5.3      1.587      7.035
REMARK  Name = *****
REMARK                            x       y       z     vdW  Elec       q    Type
REMARK                         _______ _______ _______ _____ _____    ______ ____
ROOT
ATOM      1  C   LIG    1       23.583 -30.084   8.873  0.00  0.00    +0.015 C 
ATOM      2  C   LIG    1       24.719 -31.033   9.289  0.00  0.00    +0.013 C 
ATOM      3  C   LIG    1       24.801 -32.281   8.339  0.00  0.00    +0.132 C 
ATOM      4  C   LIG    1       25.662 -33.269   9.142  0.00  0.00    +0.043 C 
ATOM      5  C   LIG    1       25.378 -32.961  10.618  0.00  0.00    +0.007 C 
ATOM      6  C   LIG    1       24.424 -31.745  10.638  0.00  0.00    +0.002 C 
ATOM      7  C   LIG    1       24.556 -30.910  11.928  0.00  0.00    +0.004 C 
ATOM      8  C   LIG    1       23.271 -30.108  12.260  0.00  0.00    +0.009 C 
ATOM      9  C   LIG    1       23.424 -28.597  12.457  0.00  0.00    +0.032 C 
ATOM     10  C   LIG    1       24.695 -28.134  13.121  0.00  0.00    -0.056 C 
ATOM     11  C   LIG    1       25.834 -29.136  13.259  0.00  0.00    +0.017 C 
ATOM     12  C   LIG    1       25.616 -29.947  14.567  0.00  0.00    +0.021 C 
ATOM     13  C   LIG    1       27.177 -28.453  13.470  0.00  0.00    -0.012 C 
ATOM     14  C   LIG    1       27.317 -27.155  13.772  0.00  0.00    +0.047 C 
ATOM     15  C   LIG    1       26.134 -26.270  13.877  0.00  0.00    +0.179 C 
ATOM     16  O   LIG    1       26.229 -25.125  14.275  0.00  0.00    -0.288 OA
ATOM     17  C   LIG    1       24.836 -26.832  13.433  0.00  0.00    +0.051 C 
ATOM     18  C   LIG    1       25.850 -30.072  12.007  0.00  0.00    +0.072 C 
ATOM     19  C   LIG    1       26.082 -29.364  10.659  0.00  0.00    +0.138 C 
ATOM     20  O   LIG    1       26.405 -28.180  10.567  0.00  0.00    -0.297 OA
ATOM     21  C   LIG    1       26.034 -30.230   9.402  0.00  0.00    +0.084 C 
ENDROOT
BRANCH   3  22
ATOM     22  O   LIG    1       23.489 -32.859   8.244  0.00  0.00    -0.380 OA
ATOM     23  H   LIG    1       22.823 -32.151   8.358  0.00  0.00    +0.211 HD
ENDBRANCH   3  22
BRANCH   3  24
ATOM     24  C   LIG    1       25.368 -32.063   6.914  0.00  0.00    +0.190 C 
ATOM     25  O   LIG    1       26.567 -31.860   6.705  0.00  0.00    -0.292 OA
BRANCH  24  26
ATOM     26  C   LIG    1       24.410 -32.245   5.740  0.00  0.00    +0.233 C 
BRANCH  26  27
ATOM     27  O   LIG    1       23.402 -31.242   5.772  0.00  0.00    -0.387 OA
ATOM     28  H   LIG    1       22.721 -31.544   6.402  0.00  0.00    +0.210 HD
ENDBRANCH  26  27
ENDBRANCH  24  26
ENDBRANCH   3  24
TORSDOF 4
ENDMDL
MODEL 8
REMARK VINA RESULT:      -5.2      3.817      7.522
REMARK  Name = *****
REMARK                            x       y       z     vdW  Elec       q    Type
REMARK                         _______ _______ _______ _____ _____    ______ ____
ROOT
ATOM      1  C   LIG    1       25.752 -32.698   8.503  0.00  0.00    +0.015 C 
ATOM      2  C   LIG    1       24.784 -31.616   7.995  0.00  0.00    +0.013 C 
ATOM      3  C   LIG    1       24.920 -31.407   6.445  0.00  0.00    +0.132 C 
ATOM      4  C   LIG    1       24.227 -30.053   6.219  0.00  0.00    +0.043 C 
ATOM      5  C   LIG    1       24.441 -29.256   7.511  0.00  0.00    +0.007 C 
ATOM      6  C   LIG    1       25.180 -30.197   8.491  0.00  0.00    +0.002 C 
ATOM      7  C   LIG    1       24.898 -29.854   9.968  0.00  0.00    +0.004 C 
ATOM      8  C   LIG    1       26.029 -30.321  10.921  0.00  0.00    +0.009 C 
ATOM      9  C   LIG    1       25.626 -31.221  12.092  0.00  0.00    +0.032 C 
ATOM     10  C   LIG    1       24.289 -30.935  12.726  0.00  0.00    -0.056 C 
ATOM     11  C   LIG    1       23.331 -30.012  11.985  0.00  0.00    +0.017 C 
ATOM     12  C   LIG    1       23.667 -28.544  12.372  0.00  0.00    +0.021 C 
ATOM     13  C   LIG    1       21.891 -30.192  12.442  0.00  0.00    -0.012 C 
ATOM     14  C   LIG    1       21.534 -30.870  13.542  0.00  0.00    +0.047 C 
ATOM     15  C   LIG    1       22.554 -31.544  14.379  0.00  0.00    +0.179 C 
ATOM     16  O   LIG    1       22.265 -32.053  15.446  0.00  0.00    -0.288 OA
ATOM     17  C   LIG    1       23.931 -31.609  13.835  0.00  0.00    +0.051 C 
ATOM     18  C   LIG    1       23.483 -30.241  10.446  0.00  0.00    +0.072 C 
ATOM     19  C   LIG    1       23.150 -31.663   9.957  0.00  0.00    +0.138 C 
ATOM     20  O   LIG    1       22.636 -32.520  10.676  0.00  0.00    -0.297 OA
ATOM     21  C   LIG    1       23.354 -31.952   8.471  0.00  0.00    +0.084 C 
ENDROOT
BRANCH   3  22
ATOM     22  O   LIG    1       26.311 -31.214   6.139  0.00  0.00    -0.380 OA
ATOM     23  H   LIG    1       26.387 -30.810   5.251  0.00  0.00    +0.211 HD
ENDBRANCH   3  22
BRANCH   3  24
ATOM     24  C   LIG    1       24.340 -32.504   5.519  0.00  0.00    +0.190 C 
ATOM     25  O   LIG    1       23.145 -32.814   5.532  0.00  0.00    -0.292 OA
BRANCH  24  26
ATOM     26  C   LIG    1       25.272 -33.106   4.471  0.00  0.00    +0.233 C 
BRANCH  26  27
ATOM     27  O   LIG    1       25.359 -32.244   3.342  0.00  0.00    -0.387 OA
ATOM     28  H   LIG    1       24.447 -31.978   3.119  0.00  0.00    +0.210 HD
ENDBRANCH  26  27
ENDBRANCH  24  26
ENDBRANCH   3  24
TORSDOF 4
ENDMDL
MODEL 9
REMARK VINA RESULT:      -5.2      8.620     10.432
REMARK  Name = *****
REMARK                            x       y       z     vdW  Elec       q    Type
REMARK                         _______ _______ _______ _____ _____    ______ ____
ROOT
ATOM      1  C   LIG    1       29.526 -18.108   7.374  0.00  0.00    +0.015 C 
ATOM      2  C   LIG    1       29.827 -19.327   8.262  0.00  0.00    +0.013 C 
ATOM      3  C   LIG    1       31.234 -19.201   8.949  0.00  0.00    +0.132 C 
ATOM      4  C   LIG    1       31.519 -20.639   9.412  0.00  0.00    +0.043 C 
ATOM      5  C   LIG    1       30.807 -21.549   8.404  0.00  0.00    +0.007 C 
ATOM      6  C   LIG    1       30.054 -20.618   7.426  0.00  0.00    +0.002 C 
ATOM      7  C   LIG    1       28.813 -21.291   6.805  0.00  0.00    +0.004 C 
ATOM      8  C   LIG    1       28.415 -20.676   5.439  0.00  0.00    +0.009 C 
ATOM      9  C   LIG    1       26.976 -20.170   5.294  0.00  0.00    +0.032 C 
ATOM     10  C   LIG    1       25.913 -20.966   6.007  0.00  0.00    -0.056 C 
ATOM     11  C   LIG    1       26.362 -21.992   7.040  0.00  0.00    +0.017 C 
ATOM     12  C   LIG    1       26.664 -23.327   6.304  0.00  0.00    +0.021 C 
ATOM     13  C   LIG    1       25.249 -22.352   8.013  0.00  0.00    -0.012 C 
ATOM     14  C   LIG    1       23.962 -22.027   7.829  0.00  0.00    +0.047 C 
ATOM     15  C   LIG    1       23.541 -21.232   6.653  0.00  0.00    +0.179 C 
ATOM     16  O   LIG    1       22.366 -21.039   6.403  0.00  0.00    -0.288 OA
ATOM     17  C   LIG    1       24.619 -20.647   5.820  0.00  0.00    +0.051 C 
ATOM     18  C   LIG    1       27.629 -21.454   7.782  0.00  0.00    +0.072 C 
ATOM     19  C   LIG    1       27.427 -20.142   8.562  0.00  0.00    +0.138 C 
ATOM     20  O   LIG    1       26.322 -19.631   8.745  0.00  0.00    -0.297 OA
ATOM     21  C   LIG    1       28.654 -19.542   9.243  0.00  0.00    +0.084 C 
ENDROOT
BRANCH   3  22
ATOM     22  O   LIG    1       32.203 -18.895   7.933  0.00  0.00    -0.380 OA
ATOM     23  H   LIG    1       31.736 -18.730   7.089  0.00  0.00    +0.211 HD
ENDBRANCH   3  22
BRANCH   3  24
ATOM     24  C   LIG    1       31.377 -18.191  10.113  0.00  0.00    +0.190 C 
ATOM     25  O   LIG    1       30.735 -18.298  11.162  0.00  0.00    -0.292 OA
BRANCH  24  26
ATOM     26  C   LIG    1       32.453 -17.116   9.985  0.00  0.00    +0.233 C 
BRANCH  26  27
ATOM     27  O   LIG    1       32.231 -16.341   8.813  0.00  0.00    -0.387 OA
ATOM     28  H   LIG    1       33.036 -15.807   8.670  0.00  0.00    +0.210 HD
ENDBRANCH  26  27
ENDBRANCH  24  26
ENDBRANCH   3  24
TORSDOF 4
ENDMDL
