MODEL 1
REMARK VINA RESULT:       4.1      0.000      0.000
REMARK  Name = *****
REMARK                            x       y       z     vdW  Elec       q    Type
REMARK                         _______ _______ _______ _____ _____    ______ ____
ROOT
ATOM      1  C   LIG    1       26.959 -15.567   3.964  0.00  0.00    +0.152 A 
ATOM      2  N   LIG    1       26.963 -16.940   3.798  0.00  0.00    -0.280 N 
ATOM      3  C   LIG    1       27.516 -17.953   4.611  0.00  0.00    +0.059 A 
ATOM      4  C   LIG    1       26.889 -19.206   4.726  0.00  0.00    +0.026 A 
ATOM      5  C   LIG    1       25.512 -19.472   4.193  0.00  0.00    +0.075 C 
ATOM      6  N   LIG    1       25.124 -19.197   2.995  0.00  0.00    -0.275 NA
ATOM      7  C   LIG    1       26.033 -18.507   2.078  0.00  0.00    +0.218 C 
ATOM      8  C   LIG    1       27.514 -20.230   5.457  0.00  0.00    +0.032 A 
ATOM      9  C   LIG    1       28.732 -19.992   6.089  0.00  0.00    +0.042 A 
ATOM     10 CL   LIG    1       29.474 -21.242   7.009  0.00  0.00    -0.084 Cl
ATOM     11  C   LIG    1       29.347 -18.748   5.992  0.00  0.00    +0.022 A 
ATOM     12  C   LIG    1       28.747 -17.731   5.248  0.00  0.00    +0.028 A 
ATOM     13  C   LIG    1       26.330 -17.148   2.591  0.00  0.00    +0.160 A 
ATOM     14  N   LIG    1       26.118 -15.992   1.998  0.00  0.00    -0.132 NA
ATOM     15  N   LIG    1       26.511 -15.002   2.858  0.00  0.00    -0.133 NA
ENDROOT
BRANCH   5  16
ATOM     16  C   LIG    1       24.506 -20.072   5.134  0.00  0.00    +0.001 A 
ATOM     17  C   LIG    1       23.147 -19.782   4.976  0.00  0.00    +0.010 A 
ATOM     18  C   LIG    1       22.208 -20.339   5.849  0.00  0.00    +0.001 A 
ATOM     19  C   LIG    1       22.622 -21.179   6.883  0.00  0.00    +0.000 A 
ATOM     20  C   LIG    1       23.977 -21.454   7.057  0.00  0.00    +0.001 A 
ATOM     21  C   LIG    1       24.919 -20.894   6.193  0.00  0.00    +0.010 A 
ENDBRANCH   5  16
BRANCH   1  22
ATOM     22  C   LIG    1       27.212 -14.841   5.249  0.00  0.00    +0.160 C 
BRANCH  22  24
ATOM     23  C   LIG    1       28.018 -12.975   3.960  0.00  0.00    +0.105 C 
ATOM     24  N   LIG    1       27.194 -13.368   5.108  0.00  0.00    -0.301 NA
ATOM     25  C   LIG    1       25.826 -12.866   4.914  0.00  0.00    +0.105 C 
ENDBRANCH  22  24
ENDBRANCH   1  22
TORSDOF 3
ENDMDL
MODEL 2
REMARK VINA RESULT:       5.9      2.974      4.898
REMARK  Name = *****
REMARK                            x       y       z     vdW  Elec       q    Type
REMARK                         _______ _______ _______ _____ _____    ______ ____
ROOT
ATOM      1  C   LIG    1       22.448 -17.796   4.774  0.00  0.00    +0.152 A 
ATOM      2  N   LIG    1       23.637 -18.002   4.098  0.00  0.00    -0.280 N 
ATOM      3  C   LIG    1       24.776 -17.174   3.989  0.00  0.00    +0.059 A 
ATOM      4  C   LIG    1       26.065 -17.730   3.913  0.00  0.00    +0.026 A 
ATOM      5  C   LIG    1       26.333 -19.185   4.166  0.00  0.00    +0.075 C 
ATOM      6  N   LIG    1       25.696 -20.155   3.606  0.00  0.00    -0.275 NA
ATOM      7  C   LIG    1       24.573 -19.867   2.712  0.00  0.00    +0.218 C 
ATOM      8  C   LIG    1       27.171 -16.890   3.700  0.00  0.00    +0.032 A 
ATOM      9  C   LIG    1       26.992 -15.514   3.596  0.00  0.00    +0.042 A 
ATOM     10 CL   LIG    1       28.355 -14.491   3.368  0.00  0.00    -0.084 Cl
ATOM     11  C   LIG    1       25.720 -14.958   3.687  0.00  0.00    +0.022 A 
ATOM     12  C   LIG    1       24.610 -15.785   3.875  0.00  0.00    +0.028 A 
ATOM     13  C   LIG    1       23.478 -19.219   3.472  0.00  0.00    +0.160 A 
ATOM     14  N   LIG    1       22.236 -19.630   3.615  0.00  0.00    -0.132 NA
ATOM     15  N   LIG    1       21.590 -18.740   4.430  0.00  0.00    -0.133 NA
ENDROOT
BRANCH   5  16
ATOM     16  C   LIG    1       27.399 -19.531   5.167  0.00  0.00    +0.001 A 
ATOM     17  C   LIG    1       28.480 -18.664   5.359  0.00  0.00    +0.010 A 
ATOM     18  C   LIG    1       29.473 -18.982   6.290  0.00  0.00    +0.001 A 
ATOM     19  C   LIG    1       29.394 -20.166   7.024  0.00  0.00    +0.000 A 
ATOM     20  C   LIG    1       28.330 -21.043   6.821  0.00  0.00    +0.001 A 
ATOM     21  C   LIG    1       27.341 -20.734   5.887  0.00  0.00    +0.010 A 
ENDBRANCH   5  16
BRANCH   1  22
ATOM     22  C   LIG    1       22.227 -16.803   5.872  0.00  0.00    +0.160 C 
BRANCH  22  24
ATOM     23  C   LIG    1       21.221 -14.722   6.544  0.00  0.00    +0.105 C 
ATOM     24  N   LIG    1       21.688 -15.508   5.397  0.00  0.00    -0.301 NA
ATOM     25  C   LIG    1       22.709 -14.739   4.670  0.00  0.00    +0.105 C 
ENDBRANCH  22  24
ENDBRANCH   1  22
TORSDOF 3
ENDMDL
