MODEL 1
REMARK VINA RESULT:      -7.4      0.000      0.000
REMARK  Name = *****
REMARK                            x       y       z     vdW  Elec       q    Type
REMARK                         _______ _______ _______ _____ _____    ______ ____
ROOT
ATOM      1  O   LIG    1       26.249 -18.878   3.620  0.00  0.00    -0.286 OA
ATOM      2  C   LIG    1       26.164 -19.548   4.655  0.00  0.00    +0.200 C 
ATOM      3  C   LIG    1       24.902 -20.198   5.085  0.00  0.00    +0.056 A 
ATOM      4  C   LIG    1       24.993 -21.316   5.951  0.00  0.00    +0.056 A 
ATOM      5  C   LIG    1       23.834 -22.009   6.375  0.00  0.00    +0.039 A 
ATOM      6  C   LIG    1       22.607 -21.499   5.955  0.00  0.00    +0.025 A 
ATOM      7  C   LIG    1       22.513 -20.361   5.146  0.00  0.00    +0.025 A 
ATOM      8  C   LIG    1       26.331 -21.705   6.462  0.00  0.00    +0.200 C 
ATOM      9  O   LIG    1       26.538 -22.850   6.884  0.00  0.00    -0.286 OA
ATOM     10  C   LIG    1       27.412 -20.698   6.460  0.00  0.00    +0.078 A 
ATOM     11  C   LIG    1       28.488 -20.744   7.365  0.00  0.00    +0.129 A 
ATOM     12  C   LIG    1       29.524 -19.814   7.284  0.00  0.00    +0.050 A 
ATOM     13  C   LIG    1       29.498 -18.836   6.289  0.00  0.00    +0.050 A 
ATOM     14  C   LIG    1       28.425 -18.775   5.408  0.00  0.00    +0.129 A 
ATOM     15  C   LIG    1       23.645 -19.702   4.662  0.00  0.00    +0.039 A 
ATOM     16  C   LIG    1       27.361 -19.686   5.510  0.00  0.00    +0.078 A 
ENDROOT
BRANCH  11  17
ATOM     17  O   LIG    1       28.511 -21.667   8.373  0.00  0.00    -0.506 OA
ATOM     18  H   LIG    1       27.740 -22.253   8.305  0.00  0.00    +0.292 HD
ENDBRANCH  11  17
BRANCH  15  19
ATOM     19  N   LIG    1       23.531 -18.509   3.945  0.00  0.00    -0.342 N 
ATOM     20  H   LIG    1       23.719 -18.605   2.938  0.00  0.00    +0.146 HD
BRANCH  19  21
ATOM     21  C   LIG    1       22.550 -17.476   4.276  0.00  0.00    +0.116 C 
BRANCH  21  22
ATOM     22  C   LIG    1       23.204 -16.076   4.285  0.00  0.00    +0.099 C 
BRANCH  22  23
ATOM     23  N   LIG    1       24.601 -16.126   3.818  0.00  0.00    -0.312 NA
ATOM     24  H   LIG    1       24.615 -16.508   2.871  0.00  0.00    +0.122 HD
BRANCH  23  25
ATOM     25  C   LIG    1       25.248 -14.810   3.800  0.00  0.00    +0.108 C 
BRANCH  25  26
ATOM     26  C   LIG    1       26.686 -14.797   3.264  0.00  0.00    +0.171 C 
BRANCH  26  27
ATOM     27  O   LIG    1       26.705 -14.368   1.905  0.00  0.00    -0.394 OA
ATOM     28  H   LIG    1       25.858 -13.921   1.733  0.00  0.00    +0.209 HD
ENDBRANCH  26  27
ENDBRANCH  25  26
ENDBRANCH  23  25
ENDBRANCH  22  23
ENDBRANCH  21  22
ENDBRANCH  19  21
ENDBRANCH  15  19
BRANCH  14  29
ATOM     29  O   LIG    1       28.471 -17.789   4.458  0.00  0.00    -0.506 OA
ATOM     30  H   LIG    1       28.074 -18.145   3.631  0.00  0.00    +0.292 HD
ENDBRANCH  14  29
BRANCH   5  31
ATOM     31  N   LIG    1       23.917 -23.195   7.100  0.00  0.00    -0.342 N 
ATOM     32  H   LIG    1       24.126 -23.081   8.097  0.00  0.00    +0.146 HD
BRANCH  31  33
ATOM     33  C   LIG    1       23.306 -24.444   6.664  0.00  0.00    +0.116 C 
BRANCH  33  34
ATOM     34  C   LIG    1       24.304 -25.361   5.925  0.00  0.00    +0.099 C 
BRANCH  34  35
ATOM     35  N   LIG    1       24.042 -26.794   6.144  0.00  0.00    -0.312 NA
ATOM     36  H   LIG    1       23.085 -26.969   5.833  0.00  0.00    +0.122 HD
BRANCH  35  37
ATOM     37  C   LIG    1       24.999 -27.614   5.378  0.00  0.00    +0.108 C 
BRANCH  37  38
ATOM     38  C   LIG    1       24.643 -29.108   5.401  0.00  0.00    +0.171 C 
BRANCH  38  39
ATOM     39  O   LIG    1       23.232 -29.295   5.346  0.00  0.00    -0.394 OA
ATOM     40  H   LIG    1       22.981 -29.705   6.193  0.00  0.00    +0.209 HD
ENDBRANCH  38  39
ENDBRANCH  37  38
ENDBRANCH  35  37
ENDBRANCH  34  35
ENDBRANCH  33  34
ENDBRANCH  31  33
ENDBRANCH   5  31
TORSDOF 16
ENDMDL
MODEL 2
REMARK VINA RESULT:      -7.2      1.449      8.170
REMARK  Name = *****
REMARK                            x       y       z     vdW  Elec       q    Type
REMARK                         _______ _______ _______ _____ _____    ______ ____
ROOT
ATOM      1  O   LIG    1       27.235 -21.763   8.735  0.00  0.00    -0.286 OA
ATOM      2  C   LIG    1       27.488 -21.232   7.647  0.00  0.00    +0.200 C 
ATOM      3  C   LIG    1       26.535 -21.245   6.511  0.00  0.00    +0.056 A 
ATOM      4  C   LIG    1       26.661 -20.232   5.529  0.00  0.00    +0.056 A 
ATOM      5  C   LIG    1       25.766 -20.158   4.435  0.00  0.00    +0.039 A 
ATOM      6  C   LIG    1       24.805 -21.164   4.339  0.00  0.00    +0.025 A 
ATOM      7  C   LIG    1       24.716 -22.198   5.278  0.00  0.00    +0.025 A 
ATOM      8  C   LIG    1       27.799 -19.285   5.634  0.00  0.00    +0.200 C 
ATOM      9  O   LIG    1       27.759 -18.183   5.071  0.00  0.00    -0.286 OA
ATOM     10  C   LIG    1       28.983 -19.683   6.422  0.00  0.00    +0.078 A 
ATOM     11  C   LIG    1       30.268 -19.171   6.165  0.00  0.00    +0.129 A 
ATOM     12  C   LIG    1       31.347 -19.519   6.977  0.00  0.00    +0.050 A 
ATOM     13  C   LIG    1       31.147 -20.375   8.061  0.00  0.00    +0.050 A 
ATOM     14  C   LIG    1       29.883 -20.900   8.303  0.00  0.00    +0.129 A 
ATOM     15  C   LIG    1       25.546 -22.252   6.400  0.00  0.00    +0.039 A 
ATOM     16  C   LIG    1       28.801 -20.581   7.465  0.00  0.00    +0.078 A 
ENDROOT
BRANCH  11  17
ATOM     17  O   LIG    1       30.492 -18.365   5.083  0.00  0.00    -0.506 OA
ATOM     18  H   LIG    1       30.500 -17.434   5.357  0.00  0.00    +0.292 HD
ENDBRANCH  11  17
BRANCH  15  19
ATOM     19  N   LIG    1       25.512 -23.345   7.267  0.00  0.00    -0.342 N 
ATOM     20  H   LIG    1       24.920 -23.206   8.096  0.00  0.00    +0.146 HD
BRANCH  19  21
ATOM     21  C   LIG    1       25.572 -24.730   6.799  0.00  0.00    +0.116 C 
BRANCH  21  22
ATOM     22  C   LIG    1       24.161 -25.259   6.457  0.00  0.00    +0.099 C 
BRANCH  22  23
ATOM     23  N   LIG    1       24.219 -26.396   5.522  0.00  0.00    -0.312 NA
ATOM     24  H   LIG    1       25.001 -26.252   4.881  0.00  0.00    +0.122 HD
BRANCH  23  25
ATOM     25  C   LIG    1       24.401 -27.685   6.197  0.00  0.00    +0.108 C 
BRANCH  25  26
ATOM     26  C   LIG    1       24.367 -28.914   5.277  0.00  0.00    +0.171 C 
BRANCH  26  27
ATOM     27  O   LIG    1       23.210 -29.702   5.545  0.00  0.00    -0.394 OA
ATOM     28  H   LIG    1       22.648 -29.190   6.152  0.00  0.00    +0.209 HD
ENDBRANCH  26  27
ENDBRANCH  25  26
ENDBRANCH  23  25
ENDBRANCH  22  23
ENDBRANCH  21  22
ENDBRANCH  19  21
ENDBRANCH  15  19
BRANCH  14  29
ATOM     29  O   LIG    1       29.765 -21.731   9.386  0.00  0.00    -0.506 OA
ATOM     30  H   LIG    1       29.189 -22.485   9.128  0.00  0.00    +0.292 HD
ENDBRANCH  14  29
BRANCH   5  31
ATOM     31  N   LIG    1       25.783 -19.085   3.548  0.00  0.00    -0.342 N 
ATOM     32  H   LIG    1       26.451 -19.171   2.775  0.00  0.00    +0.146 HD
BRANCH  31  33
ATOM     33  C   LIG    1       24.672 -18.154   3.397  0.00  0.00    +0.116 C 
BRANCH  33  34
ATOM     34  C   LIG    1       25.117 -16.682   3.528  0.00  0.00    +0.099 C 
BRANCH  34  35
ATOM     35  N   LIG    1       26.526 -16.469   3.153  0.00  0.00    -0.312 NA
ATOM     36  H   LIG    1       26.558 -16.449   2.132  0.00  0.00    +0.122 HD
BRANCH  35  37
ATOM     37  C   LIG    1       27.022 -15.200   3.717  0.00  0.00    +0.108 C 
BRANCH  37  38
ATOM     38  C   LIG    1       26.294 -13.976   3.141  0.00  0.00    +0.171 C 
BRANCH  38  39
ATOM     39  O   LIG    1       26.372 -13.960   1.719  0.00  0.00    -0.394 OA
ATOM     40  H   LIG    1       26.768 -14.812   1.461  0.00  0.00    +0.209 HD
ENDBRANCH  38  39
ENDBRANCH  37  38
ENDBRANCH  35  37
ENDBRANCH  34  35
ENDBRANCH  33  34
ENDBRANCH  31  33
ENDBRANCH   5  31
TORSDOF 16
ENDMDL
MODEL 3
REMARK VINA RESULT:      -7.2      2.472      8.300
REMARK  Name = *****
REMARK                            x       y       z     vdW  Elec       q    Type
REMARK                         _______ _______ _______ _____ _____    ______ ____
ROOT
ATOM      1  O   LIG    1       23.766 -22.902   5.372  0.00  0.00    -0.286 OA
ATOM      2  C   LIG    1       24.308 -21.791   5.372  0.00  0.00    +0.200 C 
ATOM      3  C   LIG    1       25.671 -21.566   5.911  0.00  0.00    +0.056 A 
ATOM      4  C   LIG    1       26.396 -20.446   5.436  0.00  0.00    +0.056 A 
ATOM      5  C   LIG    1       27.716 -20.187   5.879  0.00  0.00    +0.039 A 
ATOM      6  C   LIG    1       28.234 -21.045   6.848  0.00  0.00    +0.025 A 
ATOM      7  C   LIG    1       27.497 -22.119   7.360  0.00  0.00    +0.025 A 
ATOM      8  C   LIG    1       25.716 -19.506   4.511  0.00  0.00    +0.200 C 
ATOM      9  O   LIG    1       26.372 -18.758   3.775  0.00  0.00    -0.286 OA
ATOM     10  C   LIG    1       24.239 -19.477   4.487  0.00  0.00    +0.078 A 
ATOM     11  C   LIG    1       23.512 -18.334   4.109  0.00  0.00    +0.129 A 
ATOM     12  C   LIG    1       22.120 -18.371   4.032  0.00  0.00    +0.050 A 
ATOM     13  C   LIG    1       21.444 -19.555   4.323  0.00  0.00    +0.050 A 
ATOM     14  C   LIG    1       22.159 -20.680   4.720  0.00  0.00    +0.129 A 
ATOM     15  C   LIG    1       26.219 -22.430   6.889  0.00  0.00    +0.039 A 
ATOM     16  C   LIG    1       23.558 -20.637   4.834  0.00  0.00    +0.078 A 
ENDROOT
BRANCH  11  17
ATOM     17  O   LIG    1       24.153 -17.152   3.860  0.00  0.00    -0.506 OA
ATOM     18  H   LIG    1       25.114 -17.289   3.856  0.00  0.00    +0.292 HD
ENDBRANCH  11  17
BRANCH  15  19
ATOM     19  N   LIG    1       25.460 -23.439   7.486  0.00  0.00    -0.342 N 
ATOM     20  H   LIG    1       24.462 -23.209   7.588  0.00  0.00    +0.146 HD
BRANCH  19  21
ATOM     21  C   LIG    1       25.728 -24.862   7.278  0.00  0.00    +0.116 C 
BRANCH  21  22
ATOM     22  C   LIG    1       25.641 -25.227   5.779  0.00  0.00    +0.099 C 
BRANCH  22  23
ATOM     23  N   LIG    1       24.491 -26.104   5.500  0.00  0.00    -0.312 NA
ATOM     24  H   LIG    1       24.471 -26.309   4.499  0.00  0.00    +0.122 HD
BRANCH  23  25
ATOM     25  C   LIG    1       24.544 -27.373   6.234  0.00  0.00    +0.108 C 
BRANCH  25  26
ATOM     26  C   LIG    1       24.535 -28.634   5.359  0.00  0.00    +0.171 C 
BRANCH  26  27
ATOM     27  O   LIG    1       23.228 -29.201   5.320  0.00  0.00    -0.394 OA
ATOM     28  H   LIG    1       22.693 -28.647   4.725  0.00  0.00    +0.209 HD
ENDBRANCH  26  27
ENDBRANCH  25  26
ENDBRANCH  23  25
ENDBRANCH  22  23
ENDBRANCH  21  22
ENDBRANCH  19  21
ENDBRANCH  15  19
BRANCH  14  29
ATOM     29  O   LIG    1       21.426 -21.806   4.988  0.00  0.00    -0.506 OA
ATOM     30  H   LIG    1       20.510 -21.656   4.663  0.00  0.00    +0.292 HD
ENDBRANCH  14  29
BRANCH   5  31
ATOM     31  N   LIG    1       28.493 -19.182   5.310  0.00  0.00    -0.342 N 
ATOM     32  H   LIG    1       28.146 -18.816   4.418  0.00  0.00    +0.146 HD
BRANCH  31  33
ATOM     33  C   LIG    1       29.426 -18.363   6.074  0.00  0.00    +0.116 C 
BRANCH  33  34
ATOM     34  C   LIG    1       30.582 -19.192   6.674  0.00  0.00    +0.099 C 
BRANCH  34  35
ATOM     35  N   LIG    1       31.403 -18.429   7.631  0.00  0.00    -0.312 NA
ATOM     36  H   LIG    1       30.922 -17.543   7.790  0.00  0.00    +0.122 HD
BRANCH  35  37
ATOM     37  C   LIG    1       31.551 -19.178   8.892  0.00  0.00    +0.108 C 
BRANCH  37  38
ATOM     38  C   LIG    1       31.252 -20.675   8.726  0.00  0.00    +0.171 C 
BRANCH  38  39
ATOM     39  O   LIG    1       32.178 -21.464   9.466  0.00  0.00    -0.394 OA
ATOM     40  H   LIG    1       32.009 -21.270  10.405  0.00  0.00    +0.209 HD
ENDBRANCH  38  39
ENDBRANCH  37  38
ENDBRANCH  35  37
ENDBRANCH  34  35
ENDBRANCH  33  34
ENDBRANCH  31  33
ENDBRANCH   5  31
TORSDOF 16
ENDMDL
MODEL 4
REMARK VINA RESULT:      -6.8      3.003      7.648
REMARK  Name = *****
REMARK                            x       y       z     vdW  Elec       q    Type
REMARK                         _______ _______ _______ _____ _____    ______ ____
ROOT
ATOM      1  O   LIG    1       24.017 -21.305   4.688  0.00  0.00    -0.286 OA
ATOM      2  C   LIG    1       25.041 -20.801   5.162  0.00  0.00    +0.200 C 
ATOM      3  C   LIG    1       25.707 -21.334   6.375  0.00  0.00    +0.056 A 
ATOM      4  C   LIG    1       27.083 -21.052   6.555  0.00  0.00    +0.056 A 
ATOM      5  C   LIG    1       27.794 -21.557   7.670  0.00  0.00    +0.039 A 
ATOM      6  C   LIG    1       27.061 -22.284   8.607  0.00  0.00    +0.025 A 
ATOM      7  C   LIG    1       25.689 -22.515   8.459  0.00  0.00    +0.025 A 
ATOM      8  C   LIG    1       27.752 -20.153   5.581  0.00  0.00    +0.200 C 
ATOM      9  O   LIG    1       28.982 -20.171   5.446  0.00  0.00    -0.286 OA
ATOM     10  C   LIG    1       26.922 -19.234   4.777  0.00  0.00    +0.078 A 
ATOM     11  C   LIG    1       27.417 -18.021   4.265  0.00  0.00    +0.129 A 
ATOM     12  C   LIG    1       26.621 -17.215   3.452  0.00  0.00    +0.050 A 
ATOM     13  C   LIG    1       25.325 -17.621   3.135  0.00  0.00    +0.050 A 
ATOM     14  C   LIG    1       24.824 -18.808   3.659  0.00  0.00    +0.129 A 
ATOM     15  C   LIG    1       24.983 -22.083   7.334  0.00  0.00    +0.039 A 
ATOM     16  C   LIG    1       25.610 -19.604   4.508  0.00  0.00    +0.078 A 
ENDROOT
BRANCH  11  17
ATOM     17  O   LIG    1       28.669 -17.585   4.599  0.00  0.00    -0.506 OA
ATOM     18  H   LIG    1       29.098 -17.180   3.828  0.00  0.00    +0.292 HD
ENDBRANCH  11  17
BRANCH  15  19
ATOM     19  N   LIG    1       23.597 -22.231   7.255  0.00  0.00    -0.342 N 
ATOM     20  H   LIG    1       23.097 -21.372   6.989  0.00  0.00    +0.146 HD
BRANCH  19  21
ATOM     21  C   LIG    1       22.956 -23.463   6.797  0.00  0.00    +0.116 C 
BRANCH  21  22
ATOM     22  C   LIG    1       24.001 -24.580   6.577  0.00  0.00    +0.099 C 
BRANCH  22  23
ATOM     23  N   LIG    1       24.568 -24.534   5.219  0.00  0.00    -0.312 NA
ATOM     24  H   LIG    1       25.266 -23.789   5.182  0.00  0.00    +0.122 HD
BRANCH  23  25
ATOM     25  C   LIG    1       25.209 -25.792   4.821  0.00  0.00    +0.108 C 
BRANCH  25  26
ATOM     26  C   LIG    1       26.238 -26.345   5.816  0.00  0.00    +0.171 C 
BRANCH  26  27
ATOM     27  O   LIG    1       27.299 -26.996   5.122  0.00  0.00    -0.394 OA
ATOM     28  H   LIG    1       27.314 -27.921   5.424  0.00  0.00    +0.209 HD
ENDBRANCH  26  27
ENDBRANCH  25  26
ENDBRANCH  23  25
ENDBRANCH  22  23
ENDBRANCH  21  22
ENDBRANCH  19  21
ENDBRANCH  15  19
BRANCH  14  29
ATOM     29  O   LIG    1       23.544 -19.141   3.301  0.00  0.00    -0.506 OA
ATOM     30  H   LIG    1       23.216 -18.457   2.676  0.00  0.00    +0.292 HD
ENDBRANCH  14  29
BRANCH   5  31
ATOM     31  N   LIG    1       29.174 -21.415   7.781  0.00  0.00    -0.342 N 
ATOM     32  H   LIG    1       29.722 -21.925   7.080  0.00  0.00    +0.146 HD
BRANCH  31  33
ATOM     33  C   LIG    1       29.811 -20.304   8.477  0.00  0.00    +0.116 C 
BRANCH  33  34
ATOM     34  C   LIG    1       31.208 -20.673   9.020  0.00  0.00    +0.099 C 
BRANCH  34  35
ATOM     35  N   LIG    1       32.114 -19.515   9.119  0.00  0.00    -0.312 NA
ATOM     36  H   LIG    1       32.683 -19.514   8.270  0.00  0.00    +0.122 HD
BRANCH  35  37
ATOM     37  C   LIG    1       31.340 -18.265   9.230  0.00  0.00    +0.108 C 
BRANCH  37  38
ATOM     38  C   LIG    1       32.186 -17.093   9.748  0.00  0.00    +0.171 C 
BRANCH  38  39
ATOM     39  O   LIG    1       32.663 -16.294   8.670  0.00  0.00    -0.394 OA
ATOM     40  H   LIG    1       33.615 -16.486   8.592  0.00  0.00    +0.209 HD
ENDBRANCH  38  39
ENDBRANCH  37  38
ENDBRANCH  35  37
ENDBRANCH  34  35
ENDBRANCH  33  34
ENDBRANCH  31  33
ENDBRANCH   5  31
TORSDOF 16
ENDMDL
MODEL 5
REMARK VINA RESULT:      -6.6      3.327      8.305
REMARK  Name = *****
REMARK                            x       y       z     vdW  Elec       q    Type
REMARK                         _______ _______ _______ _____ _____    ______ ____
ROOT
ATOM      1  O   LIG    1       27.462 -22.137   7.195  0.00  0.00    -0.286 OA
ATOM      2  C   LIG    1       26.933 -21.187   6.608  0.00  0.00    +0.200 C 
ATOM      3  C   LIG    1       27.694 -19.990   6.175  0.00  0.00    +0.056 A 
ATOM      4  C   LIG    1       27.167 -19.218   5.111  0.00  0.00    +0.056 A 
ATOM      5  C   LIG    1       27.856 -18.083   4.619  0.00  0.00    +0.039 A 
ATOM      6  C   LIG    1       29.035 -17.729   5.275  0.00  0.00    +0.025 A 
ATOM      7  C   LIG    1       29.527 -18.458   6.364  0.00  0.00    +0.025 A 
ATOM      8  C   LIG    1       25.838 -19.586   4.564  0.00  0.00    +0.200 C 
ATOM      9  O   LIG    1       25.500 -19.226   3.429  0.00  0.00    -0.286 OA
ATOM     10  C   LIG    1       24.922 -20.387   5.402  0.00  0.00    +0.078 A 
ATOM     11  C   LIG    1       23.524 -20.334   5.256  0.00  0.00    +0.129 A 
ATOM     12  C   LIG    1       22.699 -21.159   6.019  0.00  0.00    +0.050 A 
ATOM     13  C   LIG    1       23.266 -22.053   6.928  0.00  0.00    +0.050 A 
ATOM     14  C   LIG    1       24.647 -22.090   7.091  0.00  0.00    +0.129 A 
ATOM     15  C   LIG    1       28.898 -19.618   6.821  0.00  0.00    +0.039 A 
ATOM     16  C   LIG    1       25.479 -21.234   6.351  0.00  0.00    +0.078 A 
ENDROOT
BRANCH  11  17
ATOM     17  O   LIG    1       22.947 -19.436   4.401  0.00  0.00    -0.506 OA
ATOM     18  H   LIG    1       23.390 -19.465   3.539  0.00  0.00    +0.292 HD
ENDBRANCH  11  17
BRANCH  15  19
ATOM     19  N   LIG    1       29.344 -20.271   7.972  0.00  0.00    -0.342 N 
ATOM     20  H   LIG    1       28.648 -20.898   8.397  0.00  0.00    +0.146 HD
BRANCH  19  21
ATOM     21  C   LIG    1       30.729 -20.707   8.150  0.00  0.00    +0.116 C 
BRANCH  21  22
ATOM     22  C   LIG    1       31.597 -19.568   8.729  0.00  0.00    +0.099 C 
BRANCH  22  23
ATOM     23  N   LIG    1       30.932 -18.901   9.862  0.00  0.00    -0.312 NA
ATOM     24  H   LIG    1       31.500 -19.038  10.701  0.00  0.00    +0.122 HD
BRANCH  23  25
ATOM     25  C   LIG    1       30.749 -17.461   9.654  0.00  0.00    +0.108 C 
BRANCH  25  26
ATOM     26  C   LIG    1       31.977 -16.595   9.966  0.00  0.00    +0.171 C 
BRANCH  26  27
ATOM     27  O   LIG    1       32.629 -16.205   8.760  0.00  0.00    -0.394 OA
ATOM     28  H   LIG    1       32.943 -15.293   8.884  0.00  0.00    +0.209 HD
ENDBRANCH  26  27
ENDBRANCH  25  26
ENDBRANCH  23  25
ENDBRANCH  22  23
ENDBRANCH  21  22
ENDBRANCH  19  21
ENDBRANCH  15  19
BRANCH  14  29
ATOM     29  O   LIG    1       25.130 -22.994   8.000  0.00  0.00    -0.506 OA
ATOM     30  H   LIG    1       26.073 -22.777   8.172  0.00  0.00    +0.292 HD
ENDBRANCH  14  29
BRANCH   5  31
ATOM     31  N   LIG    1       27.429 -17.406   3.481  0.00  0.00    -0.342 N 
ATOM     32  H   LIG    1       27.422 -17.963   2.620  0.00  0.00    +0.146 HD
BRANCH  31  33
ATOM     33  C   LIG    1       26.612 -16.200   3.526  0.00  0.00    +0.116 C 
BRANCH  33  34
ATOM     34  C   LIG    1       27.455 -14.925   3.742  0.00  0.00    +0.099 C 
BRANCH  34  35
ATOM     35  N   LIG    1       26.639 -13.703   3.843  0.00  0.00    -0.312 NA
ATOM     36  H   LIG    1       27.216 -12.935   3.495  0.00  0.00    +0.122 HD
BRANCH  35  37
ATOM     37  C   LIG    1       25.410 -13.838   3.041  0.00  0.00    +0.108 C 
BRANCH  37  38
ATOM     38  C   LIG    1       24.139 -13.575   3.863  0.00  0.00    +0.171 C 
BRANCH  38  39
ATOM     39  O   LIG    1       23.503 -14.798   4.220  0.00  0.00    -0.394 OA
ATOM     40  H   LIG    1       23.259 -15.230   3.382  0.00  0.00    +0.209 HD
ENDBRANCH  38  39
ENDBRANCH  37  38
ENDBRANCH  35  37
ENDBRANCH  34  35
ENDBRANCH  33  34
ENDBRANCH  31  33
ENDBRANCH   5  31
TORSDOF 16
ENDMDL
MODEL 6
REMARK VINA RESULT:      -6.3      1.983      7.155
REMARK  Name = *****
REMARK                            x       y       z     vdW  Elec       q    Type
REMARK                         _______ _______ _______ _____ _____    ______ ____
ROOT
ATOM      1  O   LIG    1       27.419 -22.128   8.736  0.00  0.00    -0.286 OA
ATOM      2  C   LIG    1       27.571 -21.557   7.650  0.00  0.00    +0.200 C 
ATOM      3  C   LIG    1       26.597 -21.681   6.539  0.00  0.00    +0.056 A 
ATOM      4  C   LIG    1       26.563 -20.651   5.568  0.00  0.00    +0.056 A 
ATOM      5  C   LIG    1       25.636 -20.682   4.499  0.00  0.00    +0.039 A 
ATOM      6  C   LIG    1       24.811 -21.804   4.414  0.00  0.00    +0.025 A 
ATOM      7  C   LIG    1       24.883 -22.850   5.341  0.00  0.00    +0.025 A 
ATOM      8  C   LIG    1       27.571 -19.565   5.657  0.00  0.00    +0.200 C 
ATOM      9  O   LIG    1       27.373 -18.472   5.110  0.00  0.00    -0.286 OA
ATOM     10  C   LIG    1       28.818 -19.814   6.407  0.00  0.00    +0.078 A 
ATOM     11  C   LIG    1       30.018 -19.137   6.124  0.00  0.00    +0.129 A 
ATOM     12  C   LIG    1       31.155 -19.350   6.903  0.00  0.00    +0.050 A 
ATOM     13  C   LIG    1       31.099 -20.236   7.979  0.00  0.00    +0.050 A 
ATOM     14  C   LIG    1       29.920 -20.924   8.247  0.00  0.00    +0.129 A 
ATOM     15  C   LIG    1       25.744 -22.807   6.439  0.00  0.00    +0.039 A 
ATOM     16  C   LIG    1       28.784 -20.739   7.443  0.00  0.00    +0.078 A 
ENDROOT
BRANCH  11  17
ATOM     17  O   LIG    1       30.106 -18.297   5.048  0.00  0.00    -0.506 OA
ATOM     18  H   LIG    1       30.190 -17.379   5.349  0.00  0.00    +0.292 HD
ENDBRANCH  11  17
BRANCH  15  19
ATOM     19  N   LIG    1       25.876 -23.905   7.292  0.00  0.00    -0.342 N 
ATOM     20  H   LIG    1       25.554 -23.732   8.253  0.00  0.00    +0.146 HD
BRANCH  19  21
ATOM     21  C   LIG    1       25.700 -25.285   6.840  0.00  0.00    +0.116 C 
BRANCH  21  22
ATOM     22  C   LIG    1       24.222 -25.566   6.486  0.00  0.00    +0.099 C 
BRANCH  22  23
ATOM     23  N   LIG    1       24.065 -26.858   5.796  0.00  0.00    -0.312 NA
ATOM     24  H   LIG    1       24.450 -26.773   4.853  0.00  0.00    +0.122 HD
BRANCH  23  25
ATOM     25  C   LIG    1       24.747 -27.962   6.480  0.00  0.00    +0.108 C 
BRANCH  25  26
ATOM     26  C   LIG    1       24.413 -29.363   5.951  0.00  0.00    +0.171 C 
BRANCH  26  27
ATOM     27  O   LIG    1       23.148 -29.358   5.295  0.00  0.00    -0.394 OA
ATOM     28  H   LIG    1       22.961 -28.438   5.041  0.00  0.00    +0.209 HD
ENDBRANCH  26  27
ENDBRANCH  25  26
ENDBRANCH  23  25
ENDBRANCH  22  23
ENDBRANCH  21  22
ENDBRANCH  19  21
ENDBRANCH  15  19
BRANCH  14  29
ATOM     29  O   LIG    1       29.941 -21.774   9.321  0.00  0.00    -0.506 OA
ATOM     30  H   LIG    1       30.734 -22.349   9.237  0.00  0.00    +0.292 HD
ENDBRANCH  14  29
BRANCH   5  31
ATOM     31  N   LIG    1       25.489 -19.607   3.627  0.00  0.00    -0.342 N 
ATOM     32  H   LIG    1       26.356 -19.285   3.185  0.00  0.00    +0.146 HD
BRANCH  31  33
ATOM     33  C   LIG    1       24.223 -19.255   2.996  0.00  0.00    +0.116 C 
BRANCH  33  34
ATOM     34  C   LIG    1       23.387 -18.284   3.857  0.00  0.00    +0.099 C 
BRANCH  34  35
ATOM     35  N   LIG    1       22.194 -18.916   4.447  0.00  0.00    -0.312 NA
ATOM     36  H   LIG    1       21.844 -19.583   3.757  0.00  0.00    +0.122 HD
BRANCH  35  37
ATOM     37  C   LIG    1       22.543 -19.599   5.706  0.00  0.00    +0.108 C 
BRANCH  37  38
ATOM     38  C   LIG    1       22.176 -21.091   5.687  0.00  0.00    +0.171 C 
BRANCH  38  39
ATOM     39  O   LIG    1       21.308 -21.387   4.598  0.00  0.00    -0.394 OA
ATOM     40  H   LIG    1       20.664 -20.658   4.559  0.00  0.00    +0.209 HD
ENDBRANCH  38  39
ENDBRANCH  37  38
ENDBRANCH  35  37
ENDBRANCH  34  35
ENDBRANCH  33  34
ENDBRANCH  31  33
ENDBRANCH   5  31
TORSDOF 16
ENDMDL
MODEL 7
REMARK VINA RESULT:      -6.2      9.275     11.675
REMARK  Name = *****
REMARK                            x       y       z     vdW  Elec       q    Type
REMARK                         _______ _______ _______ _____ _____    ______ ____
ROOT
ATOM      1  O   LIG    1       26.191 -30.007  11.584  0.00  0.00    -0.286 OA
ATOM      2  C   LIG    1       25.155 -29.374  11.813  0.00  0.00    +0.200 C 
ATOM      3  C   LIG    1       23.817 -29.849  11.385  0.00  0.00    +0.056 A 
ATOM      4  C   LIG    1       22.686 -29.369  12.090  0.00  0.00    +0.056 A 
ATOM      5  C   LIG    1       21.380 -29.806  11.761  0.00  0.00    +0.039 A 
ATOM      6  C   LIG    1       21.260 -30.671  10.675  0.00  0.00    +0.025 A 
ATOM      7  C   LIG    1       22.372 -31.101   9.941  0.00  0.00    +0.025 A 
ATOM      8  C   LIG    1       22.893 -28.343  13.141  0.00  0.00    +0.200 C 
ATOM      9  O   LIG    1       22.050 -28.170  14.031  0.00  0.00    -0.286 OA
ATOM     10  C   LIG    1       24.124 -27.527  13.104  0.00  0.00    +0.078 A 
ATOM     11  C   LIG    1       24.191 -26.234  13.654  0.00  0.00    +0.129 A 
ATOM     12  C   LIG    1       25.392 -25.526  13.661  0.00  0.00    +0.050 A 
ATOM     13  C   LIG    1       26.541 -26.110  13.127  0.00  0.00    +0.050 A 
ATOM     14  C   LIG    1       26.473 -27.379  12.562  0.00  0.00    +0.129 A 
ATOM     15  C   LIG    1       23.674 -30.735  10.290  0.00  0.00    +0.039 A 
ATOM     16  C   LIG    1       25.256 -28.081  12.520  0.00  0.00    +0.078 A 
ENDROOT
BRANCH  11  17
ATOM     17  O   LIG    1       23.067 -25.628  14.144  0.00  0.00    -0.506 OA
ATOM     18  H   LIG    1       22.319 -25.777  13.544  0.00  0.00    +0.292 HD
ENDBRANCH  11  17
BRANCH  15  19
ATOM     19  N   LIG    1       24.759 -31.087   9.485  0.00  0.00    -0.342 N 
ATOM     20  H   LIG    1       25.533 -31.532   9.995  0.00  0.00    +0.146 HD
BRANCH  19  21
ATOM     21  C   LIG    1       24.606 -31.550   8.105  0.00  0.00    +0.116 C 
BRANCH  21  22
ATOM     22  C   LIG    1       25.507 -30.740   7.147  0.00  0.00    +0.099 C 
BRANCH  22  23
ATOM     23  N   LIG    1       25.645 -29.340   7.586  0.00  0.00    -0.312 NA
ATOM     24  H   LIG    1       26.628 -29.071   7.515  0.00  0.00    +0.122 HD
BRANCH  23  25
ATOM     25  C   LIG    1       24.847 -28.406   6.784  0.00  0.00    +0.108 C 
BRANCH  25  26
ATOM     26  C   LIG    1       24.479 -28.901   5.378  0.00  0.00    +0.171 C 
BRANCH  26  27
ATOM     27  O   LIG    1       23.146 -29.404   5.362  0.00  0.00    -0.394 OA
ATOM     28  H   LIG    1       22.710 -29.036   4.574  0.00  0.00    +0.209 HD
ENDBRANCH  26  27
ENDBRANCH  25  26
ENDBRANCH  23  25
ENDBRANCH  22  23
ENDBRANCH  21  22
ENDBRANCH  19  21
ENDBRANCH  15  19
BRANCH  14  29
ATOM     29  O   LIG    1       27.641 -27.887  12.059  0.00  0.00    -0.506 OA
ATOM     30  H   LIG    1       27.582 -27.871  11.078  0.00  0.00    +0.292 HD
ENDBRANCH  14  29
BRANCH   5  31
ATOM     31  N   LIG    1       20.277 -29.462  12.539  0.00  0.00    -0.342 N 
ATOM     32  H   LIG    1       19.808 -28.592  12.267  0.00  0.00    +0.146 HD
BRANCH  31  33
ATOM     33  C   LIG    1       19.533 -30.424  13.342  0.00  0.00    +0.116 C 
BRANCH  33  34
ATOM     34  C   LIG    1       18.712 -29.748  14.460  0.00  0.00    +0.099 C 
BRANCH  34  35
ATOM     35  N   LIG    1       17.934 -28.590  13.986  0.00  0.00    -0.312 NA
ATOM     36  H   LIG    1       16.948 -28.835  14.093  0.00  0.00    +0.122 HD
BRANCH  35  37
ATOM     37  C   LIG    1       18.263 -27.390  14.777  0.00  0.00    +0.108 C 
BRANCH  37  38
ATOM     38  C   LIG    1       18.718 -26.214  13.901  0.00  0.00    +0.171 C 
BRANCH  38  39
ATOM     39  O   LIG    1       19.687 -26.636  12.946  0.00  0.00    -0.394 OA
ATOM     40  H   LIG    1       20.532 -26.244  13.228  0.00  0.00    +0.209 HD
ENDBRANCH  38  39
ENDBRANCH  37  38
ENDBRANCH  35  37
ENDBRANCH  34  35
ENDBRANCH  33  34
ENDBRANCH  31  33
ENDBRANCH   5  31
TORSDOF 16
ENDMDL
MODEL 8
REMARK VINA RESULT:      -6.0      3.042      6.720
REMARK  Name = *****
REMARK                            x       y       z     vdW  Elec       q    Type
REMARK                         _______ _______ _______ _____ _____    ______ ____
ROOT
ATOM      1  O   LIG    1       24.193 -19.492   4.871  0.00  0.00    -0.286 OA
ATOM      2  C   LIG    1       25.060 -20.198   5.399  0.00  0.00    +0.200 C 
ATOM      3  C   LIG    1       26.479 -19.779   5.499  0.00  0.00    +0.056 A 
ATOM      4  C   LIG    1       27.273 -20.364   6.517  0.00  0.00    +0.056 A 
ATOM      5  C   LIG    1       28.625 -19.987   6.697  0.00  0.00    +0.039 A 
ATOM      6  C   LIG    1       29.150 -19.070   5.787  0.00  0.00    +0.025 A 
ATOM      7  C   LIG    1       28.383 -18.534   4.746  0.00  0.00    +0.025 A 
ATOM      8  C   LIG    1       26.673 -21.434   7.351  0.00  0.00    +0.200 C 
ATOM      9  O   LIG    1       27.143 -21.707   8.463  0.00  0.00    -0.286 OA
ATOM     10  C   LIG    1       25.505 -22.172   6.828  0.00  0.00    +0.078 A 
ATOM     11  C   LIG    1       25.204 -23.488   7.223  0.00  0.00    +0.129 A 
ATOM     12  C   LIG    1       24.053 -24.123   6.759  0.00  0.00    +0.050 A 
ATOM     13  C   LIG    1       23.187 -23.443   5.903  0.00  0.00    +0.050 A 
ATOM     14  C   LIG    1       23.494 -22.150   5.492  0.00  0.00    +0.129 A 
ATOM     15  C   LIG    1       27.029 -18.842   4.591  0.00  0.00    +0.039 A 
ATOM     16  C   LIG    1       24.671 -21.521   5.928  0.00  0.00    +0.078 A 
ENDROOT
BRANCH  11  17
ATOM     17  O   LIG    1       26.062 -24.186   8.027  0.00  0.00    -0.506 OA
ATOM     18  H   LIG    1       25.730 -25.087   8.165  0.00  0.00    +0.292 HD
ENDBRANCH  11  17
BRANCH  15  19
ATOM     19  N   LIG    1       26.309 -18.381   3.487  0.00  0.00    -0.342 N 
ATOM     20  H   LIG    1       25.745 -19.104   3.022  0.00  0.00    +0.146 HD
BRANCH  19  21
ATOM     21  C   LIG    1       25.735 -17.037   3.420  0.00  0.00    +0.116 C 
BRANCH  21  22
ATOM     22  C   LIG    1       26.843 -15.961   3.456  0.00  0.00    +0.099 C 
BRANCH  22  23
ATOM     23  N   LIG    1       26.453 -14.756   2.703  0.00  0.00    -0.312 NA
ATOM     24  H   LIG    1       25.777 -15.023   1.986  0.00  0.00    +0.122 HD
BRANCH  23  25
ATOM     25  C   LIG    1       25.851 -13.720   3.549  0.00  0.00    +0.108 C 
BRANCH  25  26
ATOM     26  C   LIG    1       24.328 -13.577   3.422  0.00  0.00    +0.171 C 
BRANCH  26  27
ATOM     27  O   LIG    1       23.671 -14.369   4.409  0.00  0.00    -0.394 OA
ATOM     28  H   LIG    1       22.720 -14.175   4.345  0.00  0.00    +0.209 HD
ENDBRANCH  26  27
ENDBRANCH  25  26
ENDBRANCH  23  25
ENDBRANCH  22  23
ENDBRANCH  21  22
ENDBRANCH  19  21
ENDBRANCH  15  19
BRANCH  14  29
ATOM     29  O   LIG    1       22.595 -21.547   4.653  0.00  0.00    -0.506 OA
ATOM     30  H   LIG    1       21.718 -21.547   5.098  0.00  0.00    +0.292 HD
ENDBRANCH  14  29
BRANCH   5  31
ATOM     31  N   LIG    1       29.372 -20.439   7.782  0.00  0.00    -0.342 N 
ATOM     32  H   LIG    1       28.985 -21.257   8.264  0.00  0.00    +0.146 HD
BRANCH  31  33
ATOM     33  C   LIG    1       30.787 -20.138   7.961  0.00  0.00    +0.116 C 
BRANCH  33  34
ATOM     34  C   LIG    1       31.051 -19.277   9.214  0.00  0.00    +0.099 C 
BRANCH  34  35
ATOM     35  N   LIG    1       30.065 -18.196   9.390  0.00  0.00    -0.312 NA
ATOM     36  H   LIG    1       29.348 -18.554  10.024  0.00  0.00    +0.122 HD
BRANCH  35  37
ATOM     37  C   LIG    1       30.712 -16.998   9.955  0.00  0.00    +0.108 C 
BRANCH  37  38
ATOM     38  C   LIG    1       32.237 -17.012   9.775  0.00  0.00    +0.171 C 
BRANCH  38  39
ATOM     39  O   LIG    1       32.634 -16.129   8.731  0.00  0.00    -0.394 OA
ATOM     40  H   LIG    1       33.189 -15.447   9.150  0.00  0.00    +0.209 HD
ENDBRANCH  38  39
ENDBRANCH  37  38
ENDBRANCH  35  37
ENDBRANCH  34  35
ENDBRANCH  33  34
ENDBRANCH  31  33
ENDBRANCH   5  31
TORSDOF 16
ENDMDL
MODEL 9
REMARK VINA RESULT:      -5.9      4.643      9.768
REMARK  Name = *****
REMARK                            x       y       z     vdW  Elec       q    Type
REMARK                         _______ _______ _______ _____ _____    ______ ____
ROOT
ATOM      1  O   LIG    1       26.930 -28.093   9.399  0.00  0.00    -0.286 OA
ATOM      2  C   LIG    1       25.979 -28.865   9.232  0.00  0.00    +0.200 C 
ATOM      3  C   LIG    1       25.411 -29.156   7.893  0.00  0.00    +0.056 A 
ATOM      4  C   LIG    1       24.707 -30.373   7.722  0.00  0.00    +0.056 A 
ATOM      5  C   LIG    1       24.169 -30.736   6.464  0.00  0.00    +0.039 A 
ATOM      6  C   LIG    1       24.307 -29.811   5.430  0.00  0.00    +0.025 A 
ATOM      7  C   LIG    1       24.952 -28.583   5.613  0.00  0.00    +0.025 A 
ATOM      8  C   LIG    1       24.486 -31.233   8.910  0.00  0.00    +0.200 C 
ATOM      9  O   LIG    1       24.240 -32.440   8.781  0.00  0.00    -0.286 OA
ATOM     10  C   LIG    1       24.563 -30.623  10.253  0.00  0.00    +0.078 A 
ATOM     11  C   LIG    1       23.871 -31.145  11.361  0.00  0.00    +0.129 A 
ATOM     12  C   LIG    1       24.026 -30.580  12.626  0.00  0.00    +0.050 A 
ATOM     13  C   LIG    1       24.884 -29.492  12.796  0.00  0.00    +0.050 A 
ATOM     14  C   LIG    1       25.551 -28.959  11.698  0.00  0.00    +0.129 A 
ATOM     15  C   LIG    1       25.548 -28.234   6.827  0.00  0.00    +0.039 A 
ATOM     16  C   LIG    1       25.368 -29.503  10.416  0.00  0.00    +0.078 A 
ENDROOT
BRANCH  11  17
ATOM     17  O   LIG    1       22.995 -32.183  11.208  0.00  0.00    -0.506 OA
ATOM     18  H   LIG    1       23.329 -32.806  10.543  0.00  0.00    +0.292 HD
ENDBRANCH  11  17
BRANCH  15  19
ATOM     19  N   LIG    1       26.094 -26.964   7.021  0.00  0.00    -0.342 N 
ATOM     20  H   LIG    1       27.051 -26.971   7.399  0.00  0.00    +0.146 HD
BRANCH  19  21
ATOM     21  C   LIG    1       25.808 -25.834   6.136  0.00  0.00    +0.116 C 
BRANCH  21  22
ATOM     22  C   LIG    1       25.950 -24.493   6.890  0.00  0.00    +0.099 C 
BRANCH  22  23
ATOM     23  N   LIG    1       25.475 -23.361   6.076  0.00  0.00    -0.312 NA
ATOM     24  H   LIG    1       24.475 -23.479   5.903  0.00  0.00    +0.122 HD
BRANCH  23  25
ATOM     25  C   LIG    1       25.685 -22.061   6.723  0.00  0.00    +0.108 C 
BRANCH  25  26
ATOM     26  C   LIG    1       26.393 -22.115   8.084  0.00  0.00    +0.171 C 
BRANCH  26  27
ATOM     27  O   LIG    1       25.584 -21.512   9.090  0.00  0.00    -0.394 OA
ATOM     28  H   LIG    1       26.166 -21.305   9.841  0.00  0.00    +0.209 HD
ENDBRANCH  26  27
ENDBRANCH  25  26
ENDBRANCH  23  25
ENDBRANCH  22  23
ENDBRANCH  21  22
ENDBRANCH  19  21
ENDBRANCH  15  19
BRANCH  14  29
ATOM     29  O   LIG    1       26.376 -27.894  11.944  0.00  0.00    -0.506 OA
ATOM     30  H   LIG    1       27.019 -28.162  12.638  0.00  0.00    +0.292 HD
ENDBRANCH  14  29
BRANCH   5  31
ATOM     31  N   LIG    1       23.608 -31.991   6.243  0.00  0.00    -0.342 N 
ATOM     32  H   LIG    1       22.584 -32.015   6.242  0.00  0.00    +0.146 HD
BRANCH  31  33
ATOM     33  C   LIG    1       24.324 -33.085   5.599  0.00  0.00    +0.116 C 
BRANCH  33  34
ATOM     34  C   LIG    1       23.550 -33.668   4.397  0.00  0.00    +0.099 C 
BRANCH  34  35
ATOM     35  N   LIG    1       24.321 -33.636   3.142  0.00  0.00    -0.312 NA
ATOM     36  H   LIG    1       23.698 -33.262   2.424  0.00  0.00    +0.122 HD
BRANCH  35  37
ATOM     37  C   LIG    1       25.515 -32.784   3.294  0.00  0.00    +0.108 C 
BRANCH  37  38
ATOM     38  C   LIG    1       26.650 -33.187   2.342  0.00  0.00    +0.171 C 
BRANCH  38  39
ATOM     39  O   LIG    1       26.285 -32.950   0.987  0.00  0.00    -0.394 OA
ATOM     40  H   LIG    1       25.383 -32.584   1.009  0.00  0.00    +0.209 HD
ENDBRANCH  38  39
ENDBRANCH  37  38
ENDBRANCH  35  37
ENDBRANCH  34  35
ENDBRANCH  33  34
ENDBRANCH  31  33
ENDBRANCH   5  31
TORSDOF 16
ENDMDL
