MODEL 1
REMARK VINA RESULT:      -2.1      0.000      0.000
REMARK  Name = *****
REMARK                            x       y       z     vdW  Elec       q    Type
REMARK                         _______ _______ _______ _____ _____    ______ ____
ROOT
ATOM      1  C   LIG    1       23.624 -13.500   3.927  0.00  0.00    +0.027 C 
ATOM      2  C   LIG    1       24.071 -14.940   3.564  0.00  0.00    +0.086 C 
ENDROOT
BRANCH   2   3
ATOM      3  N   LIG    1       23.848 -15.890   4.702  0.00  0.00    -0.297 NA
ATOM      4  C   LIG    1       22.439 -16.072   5.089  0.00  0.00    +0.085 C 
ATOM      5  C   LIG    1       21.640 -16.859   4.051  0.00  0.00    +0.019 C 
ATOM      6  C   LIG    1       22.241 -18.252   3.791  0.00  0.00    -0.004 C 
ATOM      7  C   LIG    1       23.750 -18.118   3.519  0.00  0.00    +0.019 C 
ATOM      8  C   LIG    1       24.455 -17.222   4.542  0.00  0.00    +0.085 C 
BRANCH   6   9
ATOM      9  C   LIG    1       21.974 -19.256   4.941  0.00  0.00    +0.038 C 
BRANCH   9  10
ATOM     10  C   LIG    1       23.181 -20.073   5.346  0.00  0.00    -0.047 A 
ATOM     11  C   LIG    1       23.427 -20.375   6.692  0.00  0.00    +0.003 A 
ATOM     12  C   LIG    1       24.552 -21.112   7.062  0.00  0.00    +0.000 A 
ATOM     13  C   LIG    1       25.442 -21.564   6.087  0.00  0.00    +0.000 A 
ATOM     14  C   LIG    1       25.202 -21.279   4.745  0.00  0.00    +0.000 A 
ATOM     15  C   LIG    1       24.078 -20.540   4.374  0.00  0.00    +0.003 A 
ENDBRANCH   9  10
ENDBRANCH   6   9
ENDBRANCH   2   3
BRANCH   2  16
ATOM     16  C   LIG    1       25.548 -14.840   3.000  0.00  0.00    +0.161 C 
BRANCH  16  17
ATOM     17  C   LIG    1       26.547 -13.984   3.759  0.00  0.00    -0.017 A 
ATOM     18  C   LIG    1       26.580 -13.940   5.167  0.00  0.00    +0.010 A 
ATOM     19  C   LIG    1       27.528 -13.165   5.836  0.00  0.00    +0.046 A 
ATOM     20  C   LIG    1       28.458 -12.450   5.113  0.00  0.00    +0.117 A 
ATOM     21  C   LIG    1       28.473 -12.494   3.720  0.00  0.00    +0.046 A 
ATOM     22  C   LIG    1       27.518 -13.265   3.051  0.00  0.00    +0.010 A 
BRANCH  20  23
ATOM     23  O   LIG    1       29.369 -11.716   5.817  0.00  0.00    -0.507 OA
ATOM     24  H   LIG    1       29.825 -11.122   5.190  0.00  0.00    +0.292 HD
ENDBRANCH  20  23
ENDBRANCH  16  17
BRANCH  16  25
ATOM     25  O   LIG    1       26.130 -16.130   2.790  0.00  0.00    -0.386 OA
ATOM     26  H   LIG    1       26.317 -16.486   3.678  0.00  0.00    +0.210 HD
ENDBRANCH  16  25
ENDBRANCH   2  16
TORSDOF 7
ENDMDL
MODEL 2
REMARK VINA RESULT:      -2.0      2.490      6.428
REMARK  Name = *****
REMARK                            x       y       z     vdW  Elec       q    Type
REMARK                         _______ _______ _______ _____ _____    ______ ____
ROOT
ATOM      1  C   LIG    1       21.013 -19.496   4.417  0.00  0.00    +0.027 C 
ATOM      2  C   LIG    1       22.510 -19.108   4.530  0.00  0.00    +0.086 C 
ENDROOT
BRANCH   2   3
ATOM      3  N   LIG    1       22.899 -18.097   3.494  0.00  0.00    -0.297 NA
ATOM      4  C   LIG    1       21.932 -17.003   3.303  0.00  0.00    +0.085 C 
ATOM      5  C   LIG    1       21.900 -16.033   4.483  0.00  0.00    +0.019 C 
ATOM      6  C   LIG    1       23.278 -15.402   4.753  0.00  0.00    -0.004 C 
ATOM      7  C   LIG    1       24.346 -16.509   4.820  0.00  0.00    +0.019 C 
ATOM      8  C   LIG    1       24.236 -17.503   3.660  0.00  0.00    +0.085 C 
BRANCH   6   9
ATOM      9  C   LIG    1       23.669 -14.321   3.713  0.00  0.00    +0.038 C 
BRANCH   9  10
ATOM     10  C   LIG    1       25.147 -14.003   3.672  0.00  0.00    -0.047 A 
ATOM     11  C   LIG    1       25.846 -13.679   4.842  0.00  0.00    +0.003 A 
ATOM     12  C   LIG    1       27.205 -13.366   4.795  0.00  0.00    +0.000 A 
ATOM     13  C   LIG    1       27.883 -13.382   3.576  0.00  0.00    +0.000 A 
ATOM     14  C   LIG    1       27.201 -13.712   2.408  0.00  0.00    +0.000 A 
ATOM     15  C   LIG    1       25.840 -14.023   2.453  0.00  0.00    +0.003 A 
ENDBRANCH   9  10
ENDBRANCH   6   9
ENDBRANCH   2   3
BRANCH   2  16
ATOM     16  C   LIG    1       23.340 -20.457   4.554  0.00  0.00    +0.161 C 
BRANCH  16  17
ATOM     17  C   LIG    1       24.713 -20.441   5.203  0.00  0.00    -0.017 A 
ATOM     18  C   LIG    1       24.935 -20.940   6.502  0.00  0.00    +0.010 A 
ATOM     19  C   LIG    1       26.212 -20.936   7.061  0.00  0.00    +0.046 A 
ATOM     20  C   LIG    1       27.277 -20.458   6.328  0.00  0.00    +0.117 A 
ATOM     21  C   LIG    1       27.099 -19.984   5.030  0.00  0.00    +0.046 A 
ATOM     22  C   LIG    1       25.816 -19.982   4.473  0.00  0.00    +0.010 A 
BRANCH  20  23
ATOM     23  O   LIG    1       28.507 -20.487   6.918  0.00  0.00    -0.507 OA
ATOM     24  H   LIG    1       29.056 -19.794   6.501  0.00  0.00    +0.292 HD
ENDBRANCH  20  23
ENDBRANCH  16  17
BRANCH  16  25
ATOM     25  O   LIG    1       22.590 -21.538   5.118  0.00  0.00    -0.386 OA
ATOM     26  H   LIG    1       21.725 -21.162   5.364  0.00  0.00    +0.210 HD
ENDBRANCH  16  25
ENDBRANCH   2  16
TORSDOF 7
ENDMDL
MODEL 3
REMARK VINA RESULT:      -1.0      1.644      2.705
REMARK  Name = *****
REMARK                            x       y       z     vdW  Elec       q    Type
REMARK                         _______ _______ _______ _____ _____    ______ ____
ROOT
ATOM      1  C   LIG    1       21.726 -16.573   4.255  0.00  0.00    +0.027 C 
ATOM      2  C   LIG    1       23.221 -16.449   3.864  0.00  0.00    +0.086 C 
ENDROOT
BRANCH   2   3
ATOM      3  N   LIG    1       24.054 -17.510   4.520  0.00  0.00    -0.297 NA
ATOM      4  C   LIG    1       23.293 -18.501   5.297  0.00  0.00    +0.085 C 
ATOM      5  C   LIG    1       22.481 -19.446   4.411  0.00  0.00    +0.019 C 
ATOM      6  C   LIG    1       23.369 -20.210   3.412  0.00  0.00    -0.004 C 
ATOM      7  C   LIG    1       24.285 -19.217   2.675  0.00  0.00    +0.019 C 
ATOM      8  C   LIG    1       24.973 -18.234   3.627  0.00  0.00    +0.085 C 
BRANCH   6   9
ATOM      9  C   LIG    1       24.198 -21.340   4.073  0.00  0.00    +0.038 C 
BRANCH   9  10
ATOM     10  C   LIG    1       25.364 -20.852   4.903  0.00  0.00    -0.047 A 
ATOM     11  C   LIG    1       26.459 -20.216   4.303  0.00  0.00    +0.003 A 
ATOM     12  C   LIG    1       27.541 -19.786   5.072  0.00  0.00    +0.000 A 
ATOM     13  C   LIG    1       27.537 -19.980   6.453  0.00  0.00    +0.000 A 
ATOM     14  C   LIG    1       26.450 -20.601   7.062  0.00  0.00    +0.000 A 
ATOM     15  C   LIG    1       25.367 -21.034   6.294  0.00  0.00    +0.003 A 
ENDBRANCH   9  10
ENDBRANCH   6   9
ENDBRANCH   2   3
BRANCH   2  16
ATOM     16  C   LIG    1       23.647 -14.946   4.127  0.00  0.00    +0.161 C 
BRANCH  16  17
ATOM     17  C   LIG    1       25.106 -14.572   3.934  0.00  0.00    -0.017 A 
ATOM     18  C   LIG    1       25.749 -14.678   2.685  0.00  0.00    +0.010 A 
ATOM     19  C   LIG    1       27.084 -14.302   2.533  0.00  0.00    +0.046 A 
ATOM     20  C   LIG    1       27.778 -13.799   3.612  0.00  0.00    +0.117 A 
ATOM     21  C   LIG    1       27.165 -13.653   4.855  0.00  0.00    +0.046 A 
ATOM     22  C   LIG    1       25.830 -14.038   5.007  0.00  0.00    +0.010 A 
BRANCH  20  23
ATOM     23  O   LIG    1       29.077 -13.436   3.407  0.00  0.00    -0.507 OA
ATOM     24  H   LIG    1       29.266 -13.522   2.452  0.00  0.00    +0.292 HD
ENDBRANCH  20  23
ENDBRANCH  16  17
BRANCH  16  25
ATOM     25  O   LIG    1       22.845 -14.023   3.383  0.00  0.00    -0.386 OA
ATOM     26  H   LIG    1       23.232 -13.996   2.488  0.00  0.00    +0.210 HD
ENDBRANCH  16  25
ENDBRANCH   2  16
TORSDOF 7
ENDMDL
MODEL 4
REMARK VINA RESULT:       0.3      2.651      6.621
REMARK  Name = *****
REMARK                            x       y       z     vdW  Elec       q    Type
REMARK                         _______ _______ _______ _____ _____    ______ ____
ROOT
ATOM      1  C   LIG    1       23.665 -20.624   3.376  0.00  0.00    +0.027 C 
ATOM      2  C   LIG    1       22.836 -20.836   4.669  0.00  0.00    +0.086 C 
ENDROOT
BRANCH   2   3
ATOM      3  N   LIG    1       22.178 -19.566   5.118  0.00  0.00    -0.297 NA
ATOM      4  C   LIG    1       23.075 -18.606   5.781  0.00  0.00    +0.085 C 
ATOM      5  C   LIG    1       24.060 -17.953   4.812  0.00  0.00    +0.019 C 
ATOM      6  C   LIG    1       23.343 -17.215   3.666  0.00  0.00    -0.004 C 
ATOM      7  C   LIG    1       22.291 -18.146   3.035  0.00  0.00    +0.019 C 
ATOM      8  C   LIG    1       21.420 -18.845   4.082  0.00  0.00    +0.085 C 
BRANCH   6   9
ATOM      9  C   LIG    1       22.700 -15.877   4.111  0.00  0.00    +0.038 C 
BRANCH   9  10
ATOM     10  C   LIG    1       23.626 -14.684   4.026  0.00  0.00    -0.047 A 
ATOM     11  C   LIG    1       24.794 -14.623   4.799  0.00  0.00    +0.003 A 
ATOM     12  C   LIG    1       25.633 -13.511   4.732  0.00  0.00    +0.000 A 
ATOM     13  C   LIG    1       25.318 -12.449   3.885  0.00  0.00    +0.000 A 
ATOM     14  C   LIG    1       24.167 -12.502   3.105  0.00  0.00    +0.000 A 
ATOM     15  C   LIG    1       23.324 -13.614   3.172  0.00  0.00    +0.003 A 
ENDBRANCH   9  10
ENDBRANCH   6   9
ENDBRANCH   2   3
BRANCH   2  16
ATOM     16  C   LIG    1       23.782 -21.557   5.715  0.00  0.00    +0.161 C 
BRANCH  16  17
ATOM     17  C   LIG    1       25.227 -21.098   5.805  0.00  0.00    -0.017 A 
ATOM     18  C   LIG    1       25.818 -20.280   4.823  0.00  0.00    +0.010 A 
ATOM     19  C   LIG    1       27.140 -19.853   4.947  0.00  0.00    +0.046 A 
ATOM     20  C   LIG    1       27.874 -20.217   6.056  0.00  0.00    +0.117 A 
ATOM     21  C   LIG    1       27.312 -21.001   7.062  0.00  0.00    +0.046 A 
ATOM     22  C   LIG    1       25.989 -21.435   6.931  0.00  0.00    +0.010 A 
BRANCH  20  23
ATOM     23  O   LIG    1       29.158 -19.764   6.134  0.00  0.00    -0.507 OA
ATOM     24  H   LIG    1       29.216 -19.152   6.893  0.00  0.00    +0.292 HD
ENDBRANCH  20  23
ENDBRANCH  16  17
BRANCH  16  25
ATOM     25  O   LIG    1       23.227 -21.551   7.034  0.00  0.00    -0.386 OA
ATOM     26  H   LIG    1       22.568 -22.269   7.049  0.00  0.00    +0.210 HD
ENDBRANCH  16  25
ENDBRANCH   2  16
TORSDOF 7
ENDMDL
MODEL 5
REMARK VINA RESULT:       0.4      2.710      6.892
REMARK  Name = *****
REMARK                            x       y       z     vdW  Elec       q    Type
REMARK                         _______ _______ _______ _____ _____    ______ ____
ROOT
ATOM      1  C   LIG    1       22.095 -18.471   2.813  0.00  0.00    +0.027 C 
ATOM      2  C   LIG    1       22.027 -18.937   4.290  0.00  0.00    +0.086 C 
ENDROOT
BRANCH   2   3
ATOM      3  N   LIG    1       22.734 -17.982   5.205  0.00  0.00    -0.297 NA
ATOM      4  C   LIG    1       24.089 -17.600   4.774  0.00  0.00    +0.085 C 
ATOM      5  C   LIG    1       24.081 -16.688   3.548  0.00  0.00    +0.019 C 
ATOM      6  C   LIG    1       23.282 -15.395   3.792  0.00  0.00    -0.004 C 
ATOM      7  C   LIG    1       21.903 -15.746   4.379  0.00  0.00    +0.019 C 
ATOM      8  C   LIG    1       21.993 -16.752   5.530  0.00  0.00    +0.085 C 
BRANCH   6   9
ATOM      9  C   LIG    1       24.026 -14.380   4.698  0.00  0.00    +0.038 C 
BRANCH   9  10
ATOM     10  C   LIG    1       25.432 -14.055   4.245  0.00  0.00    -0.047 A 
ATOM     11  C   LIG    1       25.758 -14.016   2.883  0.00  0.00    +0.003 A 
ATOM     12  C   LIG    1       27.061 -13.735   2.471  0.00  0.00    +0.000 A 
ATOM     13  C   LIG    1       28.053 -13.482   3.419  0.00  0.00    +0.000 A 
ATOM     14  C   LIG    1       27.738 -13.507   4.775  0.00  0.00    +0.000 A 
ATOM     15  C   LIG    1       26.435 -13.790   5.188  0.00  0.00    +0.003 A 
ENDBRANCH   9  10
ENDBRANCH   6   9
ENDBRANCH   2   3
BRANCH   2  16
ATOM     16  C   LIG    1       22.512 -20.445   4.324  0.00  0.00    +0.161 C 
BRANCH  16  17
ATOM     17  C   LIG    1       23.814 -20.762   5.039  0.00  0.00    -0.017 A 
ATOM     18  C   LIG    1       25.071 -20.523   4.449  0.00  0.00    +0.010 A 
ATOM     19  C   LIG    1       26.250 -20.800   5.140  0.00  0.00    +0.046 A 
ATOM     20  C   LIG    1       26.188 -21.292   6.426  0.00  0.00    +0.117 A 
ATOM     21  C   LIG    1       24.962 -21.512   7.051  0.00  0.00    +0.046 A 
ATOM     22  C   LIG    1       23.781 -21.241   6.354  0.00  0.00    +0.010 A 
BRANCH  20  23
ATOM     23  O   LIG    1       27.370 -21.535   7.062  0.00  0.00    -0.507 OA
ATOM     24  H   LIG    1       27.259 -21.301   8.004  0.00  0.00    +0.292 HD
ENDBRANCH  20  23
ENDBRANCH  16  17
BRANCH  16  25
ATOM     25  O   LIG    1       21.499 -21.322   4.828  0.00  0.00    -0.386 OA
ATOM     26  H   LIG    1       21.828 -22.226   4.672  0.00  0.00    +0.210 HD
ENDBRANCH  16  25
ENDBRANCH   2  16
TORSDOF 7
ENDMDL
