MODEL 1
REMARK VINA RESULT:      -0.3      0.000      0.000
REMARK  Name = *****
REMARK                            x       y       z     vdW  Elec       q    Type
REMARK                         _______ _______ _______ _____ _____    ______ ____
ROOT
ATOM      1  C   LIG    1       24.287 -15.953   4.087  0.00  0.00    +0.101 C 
ENDROOT
BRANCH   1   2
ATOM      2  N   LIG    1       23.277 -16.934   4.641  0.00  0.00    -0.277 NA
BRANCH   2   3
ATOM      3  C   LIG    1       21.954 -16.300   4.792  0.00  0.00    +0.206 C 
BRANCH   3   4
ATOM      4  C   LIG    1       21.700 -15.466   6.046  0.00  0.00    +0.319 C 
ATOM      5  O   LIG    1       20.668 -15.390   6.687  0.00  0.00    -0.250 OA
BRANCH   4   6
ATOM      6  O   LIG    1       22.788 -14.757   6.431  0.00  0.00    -0.480 OA
ATOM      7  H   LIG    1       23.330 -15.385   6.968  0.00  0.00    +0.295 HD
ENDBRANCH   4   6
ENDBRANCH   3   4
ENDBRANCH   2   3
BRANCH   2   8
ATOM      8  C   LIG    1       23.232 -18.216   3.918  0.00  0.00    +0.192 C 
BRANCH   8   9
ATOM      9  C   LIG    1       21.777 -18.892   4.052  0.00  0.00    +0.324 C 
ATOM     10  O   LIG    1       20.723 -18.418   3.692  0.00  0.00    -0.249 OA
BRANCH   9  11
ATOM     11  O   LIG    1       21.793 -20.217   4.334  0.00  0.00    -0.479 OA
ATOM     12  H   LIG    1       22.704 -20.486   4.080  0.00  0.00    +0.295 HD
ENDBRANCH   9  11
ENDBRANCH   8   9
BRANCH   8  13
ATOM     13  C   LIG    1       24.498 -19.256   3.826  0.00  0.00    +0.190 C 
BRANCH  13  14
ATOM     14  O   LIG    1       24.523 -20.537   4.521  0.00  0.00    -0.373 OA
BRANCH  14  15
ATOM     15  C   LIG    1       24.884 -20.628   5.917  0.00  0.00    +0.195 C 
BRANCH  15  16
ATOM     16  C   LIG    1       26.377 -20.727   6.151  0.00  0.00    -0.022 A 
ATOM     17  C   LIG    1       27.145 -21.572   6.884  0.00  0.00    +0.006 A 
ATOM     18  C   LIG    1       28.534 -21.289   7.060  0.00  0.00    +0.000 A 
ATOM     19  C   LIG    1       29.189 -20.206   6.466  0.00  0.00    +0.000 A 
ATOM     20  C   LIG    1       28.462 -19.446   5.633  0.00  0.00    +0.000 A 
ATOM     21  C   LIG    1       27.142 -19.797   5.529  0.00  0.00    +0.006 A 
ENDBRANCH  15  16
ENDBRANCH  14  15
ENDBRANCH  13  14
ENDBRANCH   8  13
ENDBRANCH   2   8
ENDBRANCH   1   2
BRANCH   1  22
ATOM     22  C   LIG    1       24.438 -14.410   4.478  0.00  0.00    +0.100 C 
BRANCH  22  23
ATOM     23  N   LIG    1       24.133 -13.323   3.526  0.00  0.00    -0.290 NA
BRANCH  23  24
ATOM     24  C   LIG    1       25.011 -13.393   2.284  0.00  0.00    +0.100 C 
BRANCH  24  25
ATOM     25  C   LIG    1       26.560 -13.001   2.270  0.00  0.00    +0.101 C 
BRANCH  25  26
ATOM     26  N   LIG    1       27.573 -13.960   2.879  0.00  0.00    -0.281 NA
BRANCH  26  27
ATOM     27  C   LIG    1       26.827 -15.133   3.400  0.00  0.00    +0.206 C 
BRANCH  27  28
ATOM     28  C   LIG    1       27.586 -16.384   3.718  0.00  0.00    +0.319 C 
ATOM     29  O   LIG    1       27.199 -17.565   3.334  0.00  0.00    -0.250 OA
BRANCH  28  30
ATOM     30  O   LIG    1       28.725 -16.248   4.360  0.00  0.00    -0.480 OA
ATOM     31  H   LIG    1       28.756 -16.907   5.088  0.00  0.00    +0.295 HD
ENDBRANCH  28  30
ENDBRANCH  27  28
ENDBRANCH  26  27
BRANCH  26  32
ATOM     32  C   LIG    1       28.557 -13.215   3.723  0.00  0.00    +0.206 C 
BRANCH  32  33
ATOM     33  C   LIG    1       28.291 -12.871   5.201  0.00  0.00    +0.319 C 
ATOM     34  O   LIG    1       27.451 -13.358   5.945  0.00  0.00    -0.250 OA
BRANCH  33  35
ATOM     35  O   LIG    1       28.950 -11.768   5.635  0.00  0.00    -0.480 OA
ATOM     36  H   LIG    1       29.821 -12.134   5.906  0.00  0.00    +0.295 HD
ENDBRANCH  33  35
ENDBRANCH  32  33
ENDBRANCH  26  32
ENDBRANCH  25  26
ENDBRANCH  24  25
ENDBRANCH  23  24
BRANCH  23  37
ATOM     37  C   LIG    1       24.022 -11.910   3.946  0.00  0.00    +0.205 C 
BRANCH  37  39
ATOM     38  O   LIG    1       22.645 -11.448   5.864  0.00  0.00    -0.250 OA
ATOM     39  C   LIG    1       23.775 -11.553   5.397  0.00  0.00    +0.319 C 
BRANCH  39  40
ATOM     40  O   LIG    1       24.878 -11.461   6.164  0.00  0.00    -0.480 OA
ATOM     41  H   LIG    1       25.578 -11.008   5.656  0.00  0.00    +0.295 HD
ENDBRANCH  39  40
ENDBRANCH  37  39
ENDBRANCH  23  37
ENDBRANCH  22  23
ENDBRANCH   1  22
TORSDOF 25
ENDMDL
MODEL 2
REMARK VINA RESULT:       1.0      1.659      6.806
REMARK  Name = *****
REMARK                            x       y       z     vdW  Elec       q    Type
REMARK                         _______ _______ _______ _____ _____    ______ ____
ROOT
ATOM      1  C   LIG    1       25.620 -15.759   3.584  0.00  0.00    +0.101 C 
ENDROOT
BRANCH   1   2
ATOM      2  N   LIG    1       26.362 -14.448   3.735  0.00  0.00    -0.277 NA
BRANCH   2   3
ATOM      3  C   LIG    1       25.476 -13.400   4.274  0.00  0.00    +0.206 C 
BRANCH   3   4
ATOM      4  C   LIG    1       24.242 -13.019   3.458  0.00  0.00    +0.319 C 
ATOM      5  O   LIG    1       23.822 -13.564   2.453  0.00  0.00    -0.250 OA
BRANCH   4   6
ATOM      6  O   LIG    1       23.591 -11.945   3.965  0.00  0.00    -0.480 OA
ATOM      7  H   LIG    1       22.855 -12.320   4.507  0.00  0.00    +0.295 HD
ENDBRANCH   4   6
ENDBRANCH   3   4
ENDBRANCH   2   3
BRANCH   2   8
ATOM      8  C   LIG    1       27.637 -14.566   4.463  0.00  0.00    +0.192 C 
BRANCH   8   9
ATOM      9  C   LIG    1       28.403 -13.151   4.496  0.00  0.00    +0.324 C 
ATOM     10  O   LIG    1       28.502 -12.403   5.444  0.00  0.00    -0.249 OA
BRANCH   9  11
ATOM     11  O   LIG    1       29.238 -12.934   3.451  0.00  0.00    -0.479 OA
ATOM     12  H   LIG    1       29.921 -12.339   3.835  0.00  0.00    +0.295 HD
ENDBRANCH   9  11
ENDBRANCH   8   9
BRANCH   8  13
ATOM     13  C   LIG    1       28.595 -15.897   4.413  0.00  0.00    +0.190 C 
BRANCH  13  14
ATOM     14  O   LIG    1       28.488 -16.987   5.376  0.00  0.00    -0.373 OA
BRANCH  14  15
ATOM     15  C   LIG    1       29.396 -18.109   5.343  0.00  0.00    +0.195 C 
BRANCH  15  16
ATOM     16  C   LIG    1       28.867 -19.337   6.053  0.00  0.00    -0.022 A 
ATOM     17  C   LIG    1       29.458 -20.474   6.502  0.00  0.00    +0.006 A 
ATOM     18  C   LIG    1       28.647 -21.552   6.972  0.00  0.00    +0.000 A 
ATOM     19  C   LIG    1       27.253 -21.496   7.059  0.00  0.00    +0.000 A 
ATOM     20  C   LIG    1       26.676 -20.327   6.742  0.00  0.00    +0.000 A 
ATOM     21  C   LIG    1       27.536 -19.355   6.305  0.00  0.00    +0.006 A 
ENDBRANCH  15  16
ENDBRANCH  14  15
ENDBRANCH  13  14
ENDBRANCH   8  13
ENDBRANCH   2   8
ENDBRANCH   1   2
BRANCH   1  22
ATOM     22  C   LIG    1       26.182 -17.109   2.936  0.00  0.00    +0.100 C 
BRANCH  22  23
ATOM     23  N   LIG    1       25.387 -18.353   2.898  0.00  0.00    -0.290 NA
BRANCH  23  24
ATOM     24  C   LIG    1       24.144 -18.260   3.771  0.00  0.00    +0.100 C 
BRANCH  24  25
ATOM     25  C   LIG    1       22.654 -18.246   3.195  0.00  0.00    +0.101 C 
BRANCH  25  26
ATOM     26  N   LIG    1       21.482 -18.224   4.167  0.00  0.00    -0.281 NA
BRANCH  26  27
ATOM     27  C   LIG    1       21.926 -17.508   5.390  0.00  0.00    +0.206 C 
BRANCH  27  28
ATOM     28  C   LIG    1       22.105 -16.023   5.328  0.00  0.00    +0.319 C 
ATOM     29  O   LIG    1       22.313 -15.378   4.217  0.00  0.00    -0.250 OA
BRANCH  28  30
ATOM     30  O   LIG    1       21.977 -15.356   6.454  0.00  0.00    -0.480 OA
ATOM     31  H   LIG    1       22.828 -15.399   6.944  0.00  0.00    +0.295 HD
ENDBRANCH  28  30
ENDBRANCH  27  28
ENDBRANCH  26  27
BRANCH  26  32
ATOM     32  C   LIG    1       20.832 -19.568   4.234  0.00  0.00    +0.206 C 
BRANCH  32  33
ATOM     33  C   LIG    1       21.615 -20.854   4.560  0.00  0.00    +0.319 C 
ATOM     34  O   LIG    1       21.728 -21.408   5.644  0.00  0.00    -0.250 OA
BRANCH  33  35
ATOM     35  O   LIG    1       22.411 -21.283   3.549  0.00  0.00    -0.480 OA
ATOM     36  H   LIG    1       22.238 -22.250   3.539  0.00  0.00    +0.295 HD
ENDBRANCH  33  35
ENDBRANCH  32  33
ENDBRANCH  26  32
ENDBRANCH  25  26
ENDBRANCH  24  25
ENDBRANCH  23  24
BRANCH  23  37
ATOM     37  C   LIG    1       25.997 -19.687   3.085  0.00  0.00    +0.205 C 
BRANCH  37  39
ATOM     38  O   LIG    1       25.005 -21.244   4.628  0.00  0.00    -0.250 OA
ATOM     39  C   LIG    1       25.145 -20.880   3.465  0.00  0.00    +0.319 C 
BRANCH  39  40
ATOM     40  O   LIG    1       24.467 -21.449   2.450  0.00  0.00    -0.480 OA
ATOM     41  H   LIG    1       24.727 -21.015   1.615  0.00  0.00    +0.295 HD
ENDBRANCH  39  40
ENDBRANCH  37  39
ENDBRANCH  23  37
ENDBRANCH  22  23
ENDBRANCH   1  22
TORSDOF 25
ENDMDL
MODEL 3
REMARK VINA RESULT:       1.5      0.899      2.366
REMARK  Name = *****
REMARK                            x       y       z     vdW  Elec       q    Type
REMARK                         _______ _______ _______ _____ _____    ______ ____
ROOT
ATOM      1  C   LIG    1       23.729 -15.966   4.008  0.00  0.00    +0.101 C 
ENDROOT
BRANCH   1   2
ATOM      2  N   LIG    1       22.871 -16.971   4.746  0.00  0.00    -0.277 NA
BRANCH   2   3
ATOM      3  C   LIG    1       21.641 -16.339   5.258  0.00  0.00    +0.206 C 
BRANCH   3   4
ATOM      4  C   LIG    1       21.786 -15.262   6.332  0.00  0.00    +0.319 C 
ATOM      5  O   LIG    1       22.803 -14.680   6.664  0.00  0.00    -0.250 OA
BRANCH   4   6
ATOM      6  O   LIG    1       20.613 -14.973   6.944  0.00  0.00    -0.480 OA
ATOM      7  H   LIG    1       20.355 -15.802   7.415  0.00  0.00    +0.295 HD
ENDBRANCH   4   6
ENDBRANCH   3   4
ENDBRANCH   2   3
BRANCH   2   8
ATOM      8  C   LIG    1       22.619 -18.209   3.989  0.00  0.00    +0.192 C 
BRANCH   8   9
ATOM      9  C   LIG    1       21.170 -18.161   3.289  0.00  0.00    +0.324 C 
ATOM     10  O   LIG    1       20.856 -17.506   2.320  0.00  0.00    -0.249 OA
BRANCH   9  11
ATOM     11  O   LIG    1       20.330 -19.159   3.658  0.00  0.00    -0.479 OA
ATOM     12  H   LIG    1       20.022 -19.518   2.796  0.00  0.00    +0.295 HD
ENDBRANCH   9  11
ENDBRANCH   8   9
BRANCH   8  13
ATOM     13  C   LIG    1       23.133 -19.691   4.470  0.00  0.00    +0.190 C 
BRANCH  13  14
ATOM     14  O   LIG    1       22.547 -20.405   5.598  0.00  0.00    -0.373 OA
BRANCH  14  15
ATOM     15  C   LIG    1       23.329 -20.735   6.766  0.00  0.00    +0.195 C 
BRANCH  15  16
ATOM     16  C   LIG    1       24.814 -20.841   6.491  0.00  0.00    -0.022 A 
ATOM     17  C   LIG    1       25.810 -21.570   7.054  0.00  0.00    +0.006 A 
ATOM     18  C   LIG    1       27.167 -21.307   6.694  0.00  0.00    +0.000 A 
ATOM     19  C   LIG    1       27.548 -20.366   5.732  0.00  0.00    +0.000 A 
ATOM     20  C   LIG    1       26.559 -19.739   5.078  0.00  0.00    +0.000 A 
ATOM     21  C   LIG    1       25.294 -20.059   5.494  0.00  0.00    +0.006 A 
ENDBRANCH  15  16
ENDBRANCH  14  15
ENDBRANCH  13  14
ENDBRANCH   8  13
ENDBRANCH   2   8
ENDBRANCH   1   2
BRANCH   1  22
ATOM     22  C   LIG    1       24.013 -14.451   4.437  0.00  0.00    +0.100 C 
BRANCH  22  23
ATOM     23  N   LIG    1       23.644 -13.308   3.578  0.00  0.00    -0.290 NA
BRANCH  23  24
ATOM     24  C   LIG    1       24.312 -13.385   2.212  0.00  0.00    +0.100 C 
BRANCH  24  25
ATOM     25  C   LIG    1       25.896 -13.410   2.001  0.00  0.00    +0.101 C 
BRANCH  25  26
ATOM     26  N   LIG    1       26.795 -13.792   3.168  0.00  0.00    -0.281 NA
BRANCH  26  27
ATOM     27  C   LIG    1       27.552 -12.580   3.570  0.00  0.00    +0.206 C 
BRANCH  27  28
ATOM     28  C   LIG    1       28.113 -12.509   4.956  0.00  0.00    +0.319 C 
ATOM     29  O   LIG    1       29.120 -11.750   5.277  0.00  0.00    -0.250 OA
BRANCH  28  30
ATOM     30  O   LIG    1       27.500 -13.207   5.887  0.00  0.00    -0.480 OA
ATOM     31  H   LIG    1       26.582 -13.390   5.590  0.00  0.00    +0.295 HD
ENDBRANCH  28  30
ENDBRANCH  27  28
ENDBRANCH  26  27
BRANCH  26  32
ATOM     32  C   LIG    1       27.478 -15.094   2.898  0.00  0.00    +0.206 C 
BRANCH  32  33
ATOM     33  C   LIG    1       27.328 -16.318   3.822  0.00  0.00    +0.319 C 
ATOM     34  O   LIG    1       27.881 -16.522   4.893  0.00  0.00    -0.250 OA
BRANCH  33  35
ATOM     35  O   LIG    1       26.649 -17.349   3.260  0.00  0.00    -0.480 OA
ATOM     36  H   LIG    1       25.888 -16.895   2.835  0.00  0.00    +0.295 HD
ENDBRANCH  33  35
ENDBRANCH  32  33
ENDBRANCH  26  32
ENDBRANCH  25  26
ENDBRANCH  24  25
ENDBRANCH  23  24
BRANCH  23  37
ATOM     37  C   LIG    1       23.703 -11.909   4.054  0.00  0.00    +0.205 C 
BRANCH  37  39
ATOM     38  O   LIG    1       22.690 -11.451   6.189  0.00  0.00    -0.250 OA
ATOM     39  C   LIG    1       23.719 -11.598   5.536  0.00  0.00    +0.319 C 
BRANCH  39  40
ATOM     40  O   LIG    1       24.937 -11.597   6.110  0.00  0.00    -0.480 OA
ATOM     41  H   LIG    1       25.049 -10.767   6.612  0.00  0.00    +0.295 HD
ENDBRANCH  39  40
ENDBRANCH  37  39
ENDBRANCH  23  37
ENDBRANCH  22  23
ENDBRANCH   1  22
TORSDOF 25
ENDMDL
MODEL 4
REMARK VINA RESULT:       1.6      1.996      3.439
REMARK  Name = *****
REMARK                            x       y       z     vdW  Elec       q    Type
REMARK                         _______ _______ _______ _____ _____    ______ ____
ROOT
ATOM      1  C   LIG    1       24.175 -17.584   4.449  0.00  0.00    +0.101 C 
ENDROOT
BRANCH   1   2
ATOM      2  N   LIG    1       23.061 -18.608   4.404  0.00  0.00    -0.277 NA
BRANCH   2   3
ATOM      3  C   LIG    1       22.209 -18.408   3.218  0.00  0.00    +0.206 C 
BRANCH   3   4
ATOM      4  C   LIG    1       20.749 -18.019   3.444  0.00  0.00    +0.319 C 
ATOM      5  O   LIG    1       19.772 -18.743   3.380  0.00  0.00    -0.250 OA
BRANCH   4   6
ATOM      6  O   LIG    1       20.599 -16.707   3.745  0.00  0.00    -0.480 OA
ATOM      7  H   LIG    1       20.838 -16.222   2.918  0.00  0.00    +0.295 HD
ENDBRANCH   4   6
ENDBRANCH   3   4
ENDBRANCH   2   3
BRANCH   2   8
ATOM      8  C   LIG    1       23.522 -19.998   4.565  0.00  0.00    +0.192 C 
BRANCH   8   9
ATOM      9  C   LIG    1       22.365 -20.907   5.218  0.00  0.00    +0.324 C 
ATOM     10  O   LIG    1       21.414 -21.389   4.644  0.00  0.00    -0.249 OA
BRANCH   9  11
ATOM     11  O   LIG    1       22.654 -21.393   6.449  0.00  0.00    -0.479 OA
ATOM     12  H   LIG    1       22.492 -20.619   7.035  0.00  0.00    +0.295 HD
ENDBRANCH   9  11
ENDBRANCH   8   9
BRANCH   8  13
ATOM     13  C   LIG    1       25.061 -20.407   4.959  0.00  0.00    +0.190 C 
BRANCH  13  14
ATOM     14  O   LIG    1       25.399 -21.143   6.172  0.00  0.00    -0.373 OA
BRANCH  14  15
ATOM     15  C   LIG    1       26.756 -21.557   6.445  0.00  0.00    +0.195 C 
BRANCH  15  16
ATOM     16  C   LIG    1       27.771 -20.445   6.290  0.00  0.00    -0.022 A 
ATOM     17  C   LIG    1       28.804 -20.020   7.062  0.00  0.00    +0.006 A 
ATOM     18  C   LIG    1       29.475 -18.803   6.734  0.00  0.00    +0.000 A 
ATOM     19  C   LIG    1       29.174 -18.027   5.610  0.00  0.00    +0.000 A 
ATOM     20  C   LIG    1       28.246 -18.514   4.773  0.00  0.00    +0.000 A 
ATOM     21  C   LIG    1       27.661 -19.686   5.173  0.00  0.00    +0.006 A 
ENDBRANCH  15  16
ENDBRANCH  14  15
ENDBRANCH  13  14
ENDBRANCH   8  13
ENDBRANCH   2   8
ENDBRANCH   1   2
BRANCH   1  22
ATOM     22  C   LIG    1       25.267 -17.306   3.314  0.00  0.00    +0.100 C 
BRANCH  22  23
ATOM     23  N   LIG    1       26.055 -16.058   3.270  0.00  0.00    -0.290 NA
BRANCH  23  24
ATOM     24  C   LIG    1       26.051 -15.336   4.610  0.00  0.00    +0.100 C 
BRANCH  24  25
ATOM     25  C   LIG    1       25.420 -13.885   4.835  0.00  0.00    +0.101 C 
BRANCH  25  26
ATOM     26  N   LIG    1       26.189 -12.861   5.658  0.00  0.00    -0.281 NA
BRANCH  26  27
ATOM     27  C   LIG    1       25.552 -11.538   5.440  0.00  0.00    +0.206 C 
BRANCH  27  28
ATOM     28  C   LIG    1       24.127 -11.493   4.984  0.00  0.00    +0.319 C 
ATOM     29  O   LIG    1       23.783 -11.498   3.729  0.00  0.00    -0.250 OA
BRANCH  28  30
ATOM     30  O   LIG    1       23.198 -11.516   5.914  0.00  0.00    -0.480 OA
ATOM     31  H   LIG    1       22.878 -12.439   6.017  0.00  0.00    +0.295 HD
ENDBRANCH  28  30
ENDBRANCH  27  28
ENDBRANCH  26  27
BRANCH  26  32
ATOM     32  C   LIG    1       27.661 -13.061   5.500  0.00  0.00    +0.206 C 
BRANCH  32  33
ATOM     33  C   LIG    1       28.462 -12.452   4.333  0.00  0.00    +0.319 C 
ATOM     34  O   LIG    1       28.471 -12.810   3.163  0.00  0.00    -0.250 OA
BRANCH  33  35
ATOM     35  O   LIG    1       29.394 -11.546   4.720  0.00  0.00    -0.480 OA
ATOM     36  H   LIG    1       29.453 -10.956   3.937  0.00  0.00    +0.295 HD
ENDBRANCH  33  35
ENDBRANCH  32  33
ENDBRANCH  26  32
ENDBRANCH  25  26
ENDBRANCH  24  25
ENDBRANCH  23  24
BRANCH  23  37
ATOM     37  C   LIG    1       25.891 -15.056   2.195  0.00  0.00    +0.205 C 
BRANCH  37  39
ATOM     38  O   LIG    1       25.467 -12.690   2.085  0.00  0.00    -0.250 OA
ATOM     39  C   LIG    1       25.074 -13.802   2.424  0.00  0.00    +0.319 C 
BRANCH  39  40
ATOM     40  O   LIG    1       23.842 -14.002   2.930  0.00  0.00    -0.480 OA
ATOM     41  H   LIG    1       23.724 -13.425   3.709  0.00  0.00    +0.295 HD
ENDBRANCH  39  40
ENDBRANCH  37  39
ENDBRANCH  23  37
ENDBRANCH  22  23
ENDBRANCH   1  22
TORSDOF 25
ENDMDL
MODEL 5
REMARK VINA RESULT:       2.3      2.140      5.139
REMARK  Name = *****
REMARK                            x       y       z     vdW  Elec       q    Type
REMARK                         _______ _______ _______ _____ _____    ______ ____
ROOT
ATOM      1  C   LIG    1       26.941 -17.892   4.796  0.00  0.00    +0.101 C 
ENDROOT
BRANCH   1   2
ATOM      2  N   LIG    1       27.461 -19.295   4.566  0.00  0.00    -0.277 NA
BRANCH   2   3
ATOM      3  C   LIG    1       28.609 -19.582   5.444  0.00  0.00    +0.206 C 
BRANCH   3   4
ATOM      4  C   LIG    1       28.411 -20.593   6.572  0.00  0.00    +0.319 C 
ATOM      5  O   LIG    1       29.245 -21.340   7.051  0.00  0.00    -0.250 OA
BRANCH   4   6
ATOM      6  O   LIG    1       27.141 -20.608   7.043  0.00  0.00    -0.480 OA
ATOM      7  H   LIG    1       26.578 -20.333   6.279  0.00  0.00    +0.295 HD
ENDBRANCH   4   6
ENDBRANCH   3   4
ENDBRANCH   2   3
BRANCH   2   8
ATOM      8  C   LIG    1       26.416 -20.332   4.611  0.00  0.00    +0.192 C 
BRANCH   8   9
ATOM      9  C   LIG    1       25.435 -20.205   3.342  0.00  0.00    +0.324 C 
ATOM     10  O   LIG    1       25.603 -19.510   2.364  0.00  0.00    -0.249 OA
BRANCH   9  11
ATOM     11  O   LIG    1       24.496 -21.178   3.252  0.00  0.00    -0.479 OA
ATOM     12  H   LIG    1       24.908 -21.928   3.738  0.00  0.00    +0.295 HD
ENDBRANCH   9  11
ENDBRANCH   8   9
BRANCH   8  13
ATOM     13  C   LIG    1       25.725 -20.868   5.999  0.00  0.00    +0.190 C 
BRANCH  13  14
ATOM     14  O   LIG    1       24.436 -20.383   6.481  0.00  0.00    -0.373 OA
BRANCH  14  15
ATOM     15  C   LIG    1       23.232 -21.164   6.319  0.00  0.00    +0.195 C 
BRANCH  15  16
ATOM     16  C   LIG    1       22.223 -20.535   5.383  0.00  0.00    -0.022 A 
ATOM     17  C   LIG    1       21.117 -21.012   4.757  0.00  0.00    +0.006 A 
ATOM     18  C   LIG    1       20.466 -20.212   3.768  0.00  0.00    +0.000 A 
ATOM     19  C   LIG    1       20.863 -18.914   3.432  0.00  0.00    +0.000 A 
ATOM     20  C   LIG    1       21.873 -18.390   4.144  0.00  0.00    +0.000 A 
ATOM     21  C   LIG    1       22.430 -19.233   5.068  0.00  0.00    +0.006 A 
ENDBRANCH  15  16
ENDBRANCH  14  15
ENDBRANCH  13  14
ENDBRANCH   8  13
ENDBRANCH   2   8
ENDBRANCH   1   2
BRANCH   1  22
ATOM     22  C   LIG    1       25.631 -17.238   4.152  0.00  0.00    +0.100 C 
BRANCH  22  23
ATOM     23  N   LIG    1       25.692 -16.039   3.292  0.00  0.00    -0.290 NA
BRANCH  23  24
ATOM     24  C   LIG    1       27.061 -15.374   3.340  0.00  0.00    +0.100 C 
BRANCH  24  25
ATOM     25  C   LIG    1       27.467 -14.114   2.446  0.00  0.00    +0.101 C 
BRANCH  25  26
ATOM     26  N   LIG    1       26.741 -12.792   2.653  0.00  0.00    -0.281 NA
BRANCH  26  27
ATOM     27  C   LIG    1       27.235 -12.201   3.922  0.00  0.00    +0.206 C 
BRANCH  27  28
ATOM     28  C   LIG    1       26.884 -12.873   5.212  0.00  0.00    +0.319 C 
ATOM     29  O   LIG    1       27.686 -13.692   5.828  0.00  0.00    -0.250 OA
BRANCH  28  30
ATOM     30  O   LIG    1       25.733 -12.553   5.761  0.00  0.00    -0.480 OA
ATOM     31  H   LIG    1       25.613 -11.579   5.698  0.00  0.00    +0.295 HD
ENDBRANCH  28  30
ENDBRANCH  27  28
ENDBRANCH  26  27
BRANCH  26  32
ATOM     32  C   LIG    1       25.281 -12.948   2.373  0.00  0.00    +0.206 C 
BRANCH  32  33
ATOM     33  C   LIG    1       24.233 -11.915   2.830  0.00  0.00    +0.319 C 
ATOM     34  O   LIG    1       23.926 -11.614   3.975  0.00  0.00    -0.250 OA
BRANCH  33  35
ATOM     35  O   LIG    1       23.449 -11.448   1.826  0.00  0.00    -0.480 OA
ATOM     36  H   LIG    1       23.913 -11.775   1.025  0.00  0.00    +0.295 HD
ENDBRANCH  33  35
ENDBRANCH  32  33
ENDBRANCH  26  32
ENDBRANCH  25  26
ENDBRANCH  24  25
ENDBRANCH  23  24
BRANCH  23  37
ATOM     37  C   LIG    1       24.655 -14.986   3.328  0.00  0.00    +0.205 C 
BRANCH  37  39
ATOM     38  O   LIG    1       22.467 -15.632   4.092  0.00  0.00    -0.250 OA
ATOM     39  C   LIG    1       23.521 -15.052   4.330  0.00  0.00    +0.319 C 
BRANCH  39  40
ATOM     40  O   LIG    1       23.790 -14.522   5.539  0.00  0.00    -0.480 OA
ATOM     41  H   LIG    1       23.454 -13.605   5.562  0.00  0.00    +0.295 HD
ENDBRANCH  39  40
ENDBRANCH  37  39
ENDBRANCH  23  37
ENDBRANCH  22  23
ENDBRANCH   1  22
TORSDOF 25
ENDMDL
MODEL 6
REMARK VINA RESULT:       2.7      1.892      4.452
REMARK  Name = *****
REMARK                            x       y       z     vdW  Elec       q    Type
REMARK                         _______ _______ _______ _____ _____    ______ ____
ROOT
ATOM      1  C   LIG    1       24.980 -16.945   3.466  0.00  0.00    +0.101 C 
ENDROOT
BRANCH   1   2
ATOM      2  N   LIG    1       23.538 -17.173   3.864  0.00  0.00    -0.277 NA
BRANCH   2   3
ATOM      3  C   LIG    1       22.828 -15.891   4.028  0.00  0.00    +0.206 C 
BRANCH   3   4
ATOM      4  C   LIG    1       22.859 -15.228   5.405  0.00  0.00    +0.319 C 
ATOM      5  O   LIG    1       22.041 -15.344   6.300  0.00  0.00    -0.250 OA
BRANCH   4   6
ATOM      6  O   LIG    1       23.944 -14.438   5.579  0.00  0.00    -0.480 OA
ATOM      7  H   LIG    1       24.375 -14.389   4.692  0.00  0.00    +0.295 HD
ENDBRANCH   4   6
ENDBRANCH   3   4
ENDBRANCH   2   3
BRANCH   2   8
ATOM      8  C   LIG    1       22.825 -18.129   3.000  0.00  0.00    +0.192 C 
BRANCH   8   9
ATOM      9  C   LIG    1       21.234 -17.898   3.091  0.00  0.00    +0.324 C 
ATOM     10  O   LIG    1       20.454 -17.864   2.165  0.00  0.00    -0.249 OA
BRANCH   9  11
ATOM     11  O   LIG    1       20.711 -18.041   4.333  0.00  0.00    -0.479 OA
ATOM     12  H   LIG    1       20.798 -19.007   4.499  0.00  0.00    +0.295 HD
ENDBRANCH   9  11
ENDBRANCH   8   9
BRANCH   8  13
ATOM     13  C   LIG    1       23.310 -19.677   2.761  0.00  0.00    +0.190 C 
BRANCH  13  14
ATOM     14  O   LIG    1       24.695 -20.039   2.481  0.00  0.00    -0.373 OA
BRANCH  14  15
ATOM     15  C   LIG    1       25.397 -21.006   3.292  0.00  0.00    +0.195 C 
BRANCH  15  16
ATOM     16  C   LIG    1       24.861 -21.117   4.703  0.00  0.00    -0.022 A 
ATOM     17  C   LIG    1       25.457 -21.304   5.909  0.00  0.00    +0.006 A 
ATOM     18  C   LIG    1       24.652 -21.559   7.061  0.00  0.00    +0.000 A 
ATOM     19  C   LIG    1       23.254 -21.572   7.047  0.00  0.00    +0.000 A 
ATOM     20  C   LIG    1       22.661 -21.254   5.886  0.00  0.00    +0.000 A 
ATOM     21  C   LIG    1       23.516 -21.026   4.841  0.00  0.00    +0.006 A 
ENDBRANCH  15  16
ENDBRANCH  14  15
ENDBRANCH  13  14
ENDBRANCH   8  13
ENDBRANCH   2   8
ENDBRANCH   1   2
BRANCH   1  22
ATOM     22  C   LIG    1       26.255 -17.768   3.971  0.00  0.00    +0.100 C 
BRANCH  22  23
ATOM     23  N   LIG    1       27.369 -17.126   4.697  0.00  0.00    -0.290 NA
BRANCH  23  24
ATOM     24  C   LIG    1       27.825 -15.843   4.018  0.00  0.00    +0.100 C 
BRANCH  24  25
ATOM     25  C   LIG    1       27.010 -15.121   2.848  0.00  0.00    +0.101 C 
BRANCH  25  26
ATOM     26  N   LIG    1       26.865 -13.606   2.870  0.00  0.00    -0.281 NA
BRANCH  26  27
ATOM     27  C   LIG    1       28.108 -13.043   3.455  0.00  0.00    +0.206 C 
BRANCH  27  28
ATOM     28  C   LIG    1       28.157 -12.788   4.930  0.00  0.00    +0.319 C 
ATOM     29  O   LIG    1       27.342 -13.350   5.774  0.00  0.00    -0.250 OA
BRANCH  28  30
ATOM     30  O   LIG    1       29.117 -12.007   5.372  0.00  0.00    -0.480 OA
ATOM     31  H   LIG    1       28.928 -11.775   6.308  0.00  0.00    +0.295 HD
ENDBRANCH  28  30
ENDBRANCH  27  28
ENDBRANCH  26  27
BRANCH  26  32
ATOM     32  C   LIG    1       25.512 -13.216   3.372  0.00  0.00    +0.206 C 
BRANCH  32  33
ATOM     33  C   LIG    1       24.454 -12.548   2.473  0.00  0.00    +0.319 C 
ATOM     34  O   LIG    1       24.569 -11.525   1.812  0.00  0.00    -0.250 OA
BRANCH  33  35
ATOM     35  O   LIG    1       23.210 -13.072   2.608  0.00  0.00    -0.480 OA
ATOM     36  H   LIG    1       22.951 -13.245   1.676  0.00  0.00    +0.295 HD
ENDBRANCH  33  35
ENDBRANCH  32  33
ENDBRANCH  26  32
ENDBRANCH  25  26
ENDBRANCH  24  25
ENDBRANCH  23  24
BRANCH  23  37
ATOM     37  C   LIG    1       28.564 -17.878   5.136  0.00  0.00    +0.205 C 
BRANCH  37  39
ATOM     38  O   LIG    1       28.477 -19.667   6.742  0.00  0.00    -0.250 OA
ATOM     39  C   LIG    1       28.452 -19.327   5.564  0.00  0.00    +0.319 C 
BRANCH  39  40
ATOM     40  O   LIG    1       28.218 -20.204   4.570  0.00  0.00    -0.480 OA
ATOM     41  H   LIG    1       28.719 -21.023   4.748  0.00  0.00    +0.295 HD
ENDBRANCH  39  40
ENDBRANCH  37  39
ENDBRANCH  23  37
ENDBRANCH  22  23
ENDBRANCH   1  22
TORSDOF 25
ENDMDL
MODEL 7
REMARK VINA RESULT:       2.7      1.959      3.734
REMARK  Name = *****
REMARK                            x       y       z     vdW  Elec       q    Type
REMARK                         _______ _______ _______ _____ _____    ______ ____
ROOT
ATOM      1  C   LIG    1       24.568 -17.338   3.495  0.00  0.00    +0.101 C 
ENDROOT
BRANCH   1   2
ATOM      2  N   LIG    1       23.455 -18.212   4.031  0.00  0.00    -0.277 NA
BRANCH   2   3
ATOM      3  C   LIG    1       22.410 -18.419   3.011  0.00  0.00    +0.206 C 
BRANCH   3   4
ATOM      4  C   LIG    1       21.123 -19.123   3.439  0.00  0.00    +0.319 C 
ATOM      5  O   LIG    1       21.014 -20.238   3.917  0.00  0.00    -0.250 OA
BRANCH   4   6
ATOM      6  O   LIG    1       20.021 -18.364   3.235  0.00  0.00    -0.480 OA
ATOM      7  H   LIG    1       19.391 -18.947   2.746  0.00  0.00    +0.295 HD
ENDBRANCH   4   6
ENDBRANCH   3   4
ENDBRANCH   2   3
BRANCH   2   8
ATOM      8  C   LIG    1       23.924 -19.465   4.648  0.00  0.00    +0.192 C 
BRANCH   8   9
ATOM      9  C   LIG    1       24.303 -20.546   3.518  0.00  0.00    +0.324 C 
ATOM     10  O   LIG    1       23.530 -21.165   2.821  0.00  0.00    -0.249 OA
BRANCH   9  11
ATOM     11  O   LIG    1       25.603 -20.536   3.138  0.00  0.00    -0.479 OA
ATOM     12  H   LIG    1       25.558 -20.219   2.207  0.00  0.00    +0.295 HD
ENDBRANCH   9  11
ENDBRANCH   8   9
BRANCH   8  13
ATOM     13  C   LIG    1       23.320 -20.073   6.047  0.00  0.00    +0.190 C 
BRANCH  13  14
ATOM     14  O   LIG    1       24.154 -20.710   7.059  0.00  0.00    -0.373 OA
BRANCH  14  15
ATOM     15  C   LIG    1       25.254 -21.571   6.693  0.00  0.00    +0.195 C 
BRANCH  15  16
ATOM     16  C   LIG    1       26.568 -20.837   6.526  0.00  0.00    -0.022 A 
ATOM     17  C   LIG    1       26.906 -19.668   5.924  0.00  0.00    +0.006 A 
ATOM     18  C   LIG    1       28.284 -19.328   5.766  0.00  0.00    +0.000 A 
ATOM     19  C   LIG    1       29.338 -20.108   6.253  0.00  0.00    +0.000 A 
ATOM     20  C   LIG    1       29.004 -21.195   6.965  0.00  0.00    +0.000 A 
ATOM     21  C   LIG    1       27.659 -21.435   7.061  0.00  0.00    +0.006 A 
ENDBRANCH  15  16
ENDBRANCH  14  15
ENDBRANCH  13  14
ENDBRANCH   8  13
ENDBRANCH   2   8
ENDBRANCH   1   2
BRANCH   1  22
ATOM     22  C   LIG    1       24.724 -15.759   3.689  0.00  0.00    +0.100 C 
BRANCH  22  23
ATOM     23  N   LIG    1       25.815 -15.169   4.492  0.00  0.00    -0.290 NA
BRANCH  23  24
ATOM     24  C   LIG    1       25.396 -13.859   5.143  0.00  0.00    +0.100 C 
BRANCH  24  25
ATOM     25  C   LIG    1       25.350 -12.459   4.373  0.00  0.00    +0.101 C 
BRANCH  25  26
ATOM     26  N   LIG    1       26.424 -12.146   3.340  0.00  0.00    -0.281 NA
BRANCH  26  27
ATOM     27  C   LIG    1       25.811 -12.290   1.995  0.00  0.00    +0.206 C 
BRANCH  27  28
ATOM     28  C   LIG    1       24.342 -12.559   1.900  0.00  0.00    +0.319 C 
ATOM     29  O   LIG    1       23.833 -13.755   1.964  0.00  0.00    -0.250 OA
BRANCH  28  30
ATOM     30  O   LIG    1       23.545 -11.516   1.813  0.00  0.00    -0.480 OA
ATOM     31  H   LIG    1       22.839 -11.714   1.159  0.00  0.00    +0.295 HD
ENDBRANCH  28  30
ENDBRANCH  27  28
ENDBRANCH  26  27
BRANCH  26  32
ATOM     32  C   LIG    1       27.707 -12.824   3.697  0.00  0.00    +0.206 C 
BRANCH  32  33
ATOM     33  C   LIG    1       28.480 -12.509   4.992  0.00  0.00    +0.319 C 
ATOM     34  O   LIG    1       28.199 -12.845   6.134  0.00  0.00    -0.250 OA
BRANCH  33  35
ATOM     35  O   LIG    1       29.469 -11.594   4.833  0.00  0.00    -0.480 OA
ATOM     36  H   LIG    1       29.263 -11.211   3.952  0.00  0.00    +0.295 HD
ENDBRANCH  33  35
ENDBRANCH  32  33
ENDBRANCH  26  32
ENDBRANCH  25  26
ENDBRANCH  24  25
ENDBRANCH  23  24
BRANCH  23  37
ATOM     37  C   LIG    1       27.189 -15.017   3.968  0.00  0.00    +0.205 C 
BRANCH  37  39
ATOM     38  O   LIG    1       29.115 -15.769   5.200  0.00  0.00    -0.250 OA
ATOM     39  C   LIG    1       28.272 -16.008   4.340  0.00  0.00    +0.319 C 
BRANCH  39  40
ATOM     40  O   LIG    1       28.184 -17.209   3.738  0.00  0.00    -0.480 OA
ATOM     41  H   LIG    1       28.833 -17.814   4.146  0.00  0.00    +0.295 HD
ENDBRANCH  39  40
ENDBRANCH  37  39
ENDBRANCH  23  37
ENDBRANCH  22  23
ENDBRANCH   1  22
TORSDOF 25
ENDMDL
