MODEL 1
REMARK VINA RESULT:      -5.4      0.000      0.000
REMARK  Name = *****
REMARK                            x       y       z     vdW  Elec       q    Type
REMARK                         _______ _______ _______ _____ _____    ______ ____
ROOT
ATOM      1  C   LIG    1       26.085 -18.092   3.370  0.00  0.00    +0.158 C 
ENDROOT
BRANCH   1   2
ATOM      2  C   LIG    1       25.479 -19.234   4.161  0.00  0.00    -0.011 A 
ATOM      3  C   LIG    1       26.210 -19.911   5.157  0.00  0.00    +0.051 A 
ATOM      4  C   LIG    1       25.633 -20.943   5.883  0.00  0.00    +0.121 A 
ATOM      5  C   LIG    1       24.312 -21.324   5.676  0.00  0.00    +0.090 A 
ATOM      6  C   LIG    1       23.570 -20.640   4.717  0.00  0.00    +0.121 A 
ATOM      7  C   LIG    1       24.137 -19.612   3.967  0.00  0.00    +0.051 A 
BRANCH   4   8
ATOM      8  O   LIG    1       26.411 -21.572   6.812  0.00  0.00    -0.507 OA
ATOM      9  H   LIG    1       25.940 -21.573   7.659  0.00  0.00    +0.292 HD
ENDBRANCH   4   8
BRANCH   6  10
ATOM     10  O   LIG    1       22.271 -21.018   4.545  0.00  0.00    -0.507 OA
ATOM     11  H   LIG    1       21.822 -20.958   5.407  0.00  0.00    +0.292 HD
ENDBRANCH   6  10
ENDBRANCH   1   2
BRANCH   1  12
ATOM     12  O   LIG    1       27.412 -17.821   3.843  0.00  0.00    -0.386 OA
ATOM     13  H   LIG    1       27.933 -18.609   3.591  0.00  0.00    +0.210 HD
ENDBRANCH   1  12
BRANCH   1  14
ATOM     14  C   LIG    1       25.295 -16.752   3.361  0.00  0.00    +0.117 C 
BRANCH  14  15
ATOM     15  N   LIG    1       26.173 -15.567   3.223  0.00  0.00    -0.308 NA
ATOM     16  H   LIG    1       27.023 -15.731   3.772  0.00  0.00    +0.122 HD
BRANCH  15  18
ATOM     17  C   LIG    1       26.359 -13.663   4.831  0.00  0.00    +0.027 C 
ATOM     18  C   LIG    1       25.565 -14.293   3.673  0.00  0.00    +0.011 C 
ATOM     19  C   LIG    1       25.604 -13.313   2.481  0.00  0.00    +0.027 C 
ATOM     20  C   LIG    1       24.100 -14.483   4.099  0.00  0.00    +0.027 C 
ENDBRANCH  15  18
ENDBRANCH  14  15
ENDBRANCH   1  14
TORSDOF 7
ENDMDL
MODEL 2
REMARK VINA RESULT:      -5.4      1.409      1.711
REMARK  Name = *****
REMARK                            x       y       z     vdW  Elec       q    Type
REMARK                         _______ _______ _______ _____ _____    ______ ____
ROOT
ATOM      1  C   LIG    1       26.107 -17.790   3.320  0.00  0.00    +0.158 C 
ENDROOT
BRANCH   1   2
ATOM      2  C   LIG    1       24.947 -18.587   3.881  0.00  0.00    -0.011 A 
ATOM      3  C   LIG    1       25.154 -19.739   4.664  0.00  0.00    +0.051 A 
ATOM      4  C   LIG    1       24.080 -20.447   5.184  0.00  0.00    +0.121 A 
ATOM      5  C   LIG    1       22.770 -20.030   4.978  0.00  0.00    +0.090 A 
ATOM      6  C   LIG    1       22.555 -18.874   4.233  0.00  0.00    +0.121 A 
ATOM      7  C   LIG    1       23.620 -18.159   3.690  0.00  0.00    +0.051 A 
BRANCH   4   8
ATOM      8  O   LIG    1       24.357 -21.571   5.909  0.00  0.00    -0.507 OA
ATOM      9  H   LIG    1       24.474 -21.317   6.836  0.00  0.00    +0.292 HD
ENDBRANCH   4   8
BRANCH   6  10
ATOM     10  O   LIG    1       21.263 -18.473   4.061  0.00  0.00    -0.507 OA
ATOM     11  H   LIG    1       20.754 -19.229   3.717  0.00  0.00    +0.292 HD
ENDBRANCH   6  10
ENDBRANCH   1   2
BRANCH   1  12
ATOM     12  O   LIG    1       27.309 -18.107   4.035  0.00  0.00    -0.386 OA
ATOM     13  H   LIG    1       27.998 -17.543   3.633  0.00  0.00    +0.210 HD
ENDBRANCH   1  12
BRANCH   1  14
ATOM     14  C   LIG    1       25.950 -16.242   3.306  0.00  0.00    +0.117 C 
BRANCH  14  15
ATOM     15  N   LIG    1       27.224 -15.532   3.566  0.00  0.00    -0.308 NA
ATOM     16  H   LIG    1       27.633 -15.910   4.427  0.00  0.00    +0.122 HD
BRANCH  15  18
ATOM     17  C   LIG    1       28.463 -13.364   3.684  0.00  0.00    +0.027 C 
ATOM     18  C   LIG    1       27.092 -14.063   3.717  0.00  0.00    +0.011 C 
ATOM     19  C   LIG    1       26.265 -13.546   2.521  0.00  0.00    +0.027 C 
ATOM     20  C   LIG    1       26.357 -13.691   5.015  0.00  0.00    +0.027 C 
ENDBRANCH  15  18
ENDBRANCH  14  15
ENDBRANCH   1  14
TORSDOF 7
ENDMDL
MODEL 3
REMARK VINA RESULT:      -5.4      0.281      2.349
REMARK  Name = *****
REMARK                            x       y       z     vdW  Elec       q    Type
REMARK                         _______ _______ _______ _____ _____    ______ ____
ROOT
ATOM      1  C   LIG    1       26.144 -17.952   3.313  0.00  0.00    +0.158 C 
ENDROOT
BRANCH   1   2
ATOM      2  C   LIG    1       25.633 -19.135   4.112  0.00  0.00    -0.011 A 
ATOM      3  C   LIG    1       24.334 -19.645   3.924  0.00  0.00    +0.051 A 
ATOM      4  C   LIG    1       23.889 -20.739   4.653  0.00  0.00    +0.121 A 
ATOM      5  C   LIG    1       24.714 -21.386   5.565  0.00  0.00    +0.090 A 
ATOM      6  C   LIG    1       26.011 -20.910   5.735  0.00  0.00    +0.121 A 
ATOM      7  C   LIG    1       26.470 -19.803   5.024  0.00  0.00    +0.051 A 
BRANCH   4   8
ATOM      8  O   LIG    1       22.607 -21.160   4.437  0.00  0.00    -0.507 OA
ATOM      9  H   LIG    1       22.634 -21.965   3.900  0.00  0.00    +0.292 HD
ENDBRANCH   4   8
BRANCH   6  10
ATOM     10  O   LIG    1       26.809 -21.572   6.620  0.00  0.00    -0.507 OA
ATOM     11  H   LIG    1       27.347 -20.913   7.095  0.00  0.00    +0.292 HD
ENDBRANCH   6  10
ENDBRANCH   1   2
BRANCH   1  12
ATOM     12  O   LIG    1       27.465 -17.602   3.750  0.00  0.00    -0.386 OA
ATOM     13  H   LIG    1       27.633 -18.174   4.525  0.00  0.00    +0.210 HD
ENDBRANCH   1  12
BRANCH   1  14
ATOM     14  C   LIG    1       25.273 -16.664   3.337  0.00  0.00    +0.117 C 
BRANCH  14  15
ATOM     15  N   LIG    1       26.063 -15.431   3.111  0.00  0.00    -0.308 NA
ATOM     16  H   LIG    1       26.968 -15.538   3.581  0.00  0.00    +0.122 HD
BRANCH  15  18
ATOM     17  C   LIG    1       23.979 -14.444   4.076  0.00  0.00    +0.027 C 
ATOM     18  C   LIG    1       25.423 -14.189   3.607  0.00  0.00    +0.011 C 
ATOM     19  C   LIG    1       26.238 -13.700   4.822  0.00  0.00    +0.027 C 
ATOM     20  C   LIG    1       25.428 -13.083   2.540  0.00  0.00    +0.027 C 
ENDBRANCH  15  18
ENDBRANCH  14  15
ENDBRANCH   1  14
TORSDOF 7
ENDMDL
MODEL 4
REMARK VINA RESULT:      -5.3      1.402      2.771
REMARK  Name = *****
REMARK                            x       y       z     vdW  Elec       q    Type
REMARK                         _______ _______ _______ _____ _____    ______ ____
ROOT
ATOM      1  C   LIG    1       26.067 -17.766   3.303  0.00  0.00    +0.158 C 
ENDROOT
BRANCH   1   2
ATOM      2  C   LIG    1       24.919 -18.548   3.910  0.00  0.00    -0.011 A 
ATOM      3  C   LIG    1       23.578 -18.185   3.682  0.00  0.00    +0.051 A 
ATOM      4  C   LIG    1       22.539 -18.923   4.232  0.00  0.00    +0.121 A 
ATOM      5  C   LIG    1       22.783 -20.057   4.997  0.00  0.00    +0.090 A 
ATOM      6  C   LIG    1       24.104 -20.444   5.202  0.00  0.00    +0.121 A 
ATOM      7  C   LIG    1       25.160 -19.706   4.671  0.00  0.00    +0.051 A 
BRANCH   4   8
ATOM      8  O   LIG    1       21.265 -18.494   3.991  0.00  0.00    -0.507 OA
ATOM      9  H   LIG    1       21.004 -18.787   3.105  0.00  0.00    +0.292 HD
ENDBRANCH   4   8
BRANCH   6  10
ATOM     10  O   LIG    1       24.319 -21.571   5.939  0.00  0.00    -0.507 OA
ATOM     11  H   LIG    1       23.486 -21.801   6.389  0.00  0.00    +0.292 HD
ENDBRANCH   6  10
ENDBRANCH   1   2
BRANCH   1  12
ATOM     12  O   LIG    1       27.286 -18.073   3.994  0.00  0.00    -0.386 OA
ATOM     13  H   LIG    1       27.049 -18.789   4.615  0.00  0.00    +0.210 HD
ENDBRANCH   1  12
BRANCH   1  14
ATOM     14  C   LIG    1       25.914 -16.218   3.263  0.00  0.00    +0.117 C 
BRANCH  14  15
ATOM     15  N   LIG    1       27.136 -15.507   3.705  0.00  0.00    -0.308 NA
ATOM     16  H   LIG    1       27.352 -15.804   4.663  0.00  0.00    +0.122 HD
BRANCH  15  18
ATOM     17  C   LIG    1       26.204 -13.534   2.486  0.00  0.00    +0.027 C 
ATOM     18  C   LIG    1       27.030 -14.029   3.687  0.00  0.00    +0.011 C 
ATOM     19  C   LIG    1       26.299 -13.599   4.976  0.00  0.00    +0.027 C 
ATOM     20  C   LIG    1       28.415 -13.361   3.668  0.00  0.00    +0.027 C 
ENDBRANCH  15  18
ENDBRANCH  14  15
ENDBRANCH   1  14
TORSDOF 7
ENDMDL
MODEL 5
REMARK VINA RESULT:      -5.1      2.609      6.616
REMARK  Name = *****
REMARK                            x       y       z     vdW  Elec       q    Type
REMARK                         _______ _______ _______ _____ _____    ______ ____
ROOT
ATOM      1  C   LIG    1       26.607 -17.031   3.959  0.00  0.00    +0.158 C 
ENDROOT
BRANCH   1   2
ATOM      2  C   LIG    1       26.453 -15.573   3.572  0.00  0.00    -0.011 A 
ATOM      3  C   LIG    1       25.192 -15.014   3.292  0.00  0.00    +0.051 A 
ATOM      4  C   LIG    1       25.068 -13.673   2.956  0.00  0.00    +0.121 A 
ATOM      5  C   LIG    1       26.174 -12.832   2.914  0.00  0.00    +0.090 A 
ATOM      6  C   LIG    1       27.422 -13.368   3.222  0.00  0.00    +0.121 A 
ATOM      7  C   LIG    1       27.567 -14.715   3.546  0.00  0.00    +0.051 A 
BRANCH   4   8
ATOM      8  O   LIG    1       23.817 -13.208   2.669  0.00  0.00    -0.507 OA
ATOM      9  H   LIG    1       23.289 -13.941   2.318  0.00  0.00    +0.292 HD
ENDBRANCH   4   8
BRANCH   6  10
ATOM     10  O   LIG    1       28.490 -12.520   3.194  0.00  0.00    -0.507 OA
ATOM     11  H   LIG    1       28.649 -12.263   2.268  0.00  0.00    +0.292 HD
ENDBRANCH   6  10
ENDBRANCH   1   2
BRANCH   1  12
ATOM     12  O   LIG    1       27.968 -17.444   3.776  0.00  0.00    -0.386 OA
ATOM     13  H   LIG    1       28.373 -17.374   4.663  0.00  0.00    +0.210 HD
ENDBRANCH   1  12
BRANCH   1  14
ATOM     14  C   LIG    1       25.692 -18.050   3.220  0.00  0.00    +0.117 C 
BRANCH  14  15
ATOM     15  N   LIG    1       25.747 -19.407   3.812  0.00  0.00    -0.308 NA
ATOM     16  H   LIG    1       26.192 -20.035   3.136  0.00  0.00    +0.122 HD
BRANCH  15  18
ATOM     17  C   LIG    1       24.082 -21.206   3.323  0.00  0.00    +0.027 C 
ATOM     18  C   LIG    1       24.426 -19.973   4.178  0.00  0.00    +0.011 C 
ATOM     19  C   LIG    1       24.506 -20.423   5.652  0.00  0.00    +0.027 C 
ATOM     20  C   LIG    1       23.306 -18.929   4.048  0.00  0.00    +0.027 C 
ENDBRANCH  15  18
ENDBRANCH  14  15
ENDBRANCH   1  14
TORSDOF 7
ENDMDL
MODEL 6
REMARK VINA RESULT:      -5.1      2.611      6.578
REMARK  Name = *****
REMARK                            x       y       z     vdW  Elec       q    Type
REMARK                         _______ _______ _______ _____ _____    ______ ____
ROOT
ATOM      1  C   LIG    1       26.594 -17.039   3.952  0.00  0.00    +0.158 C 
ENDROOT
BRANCH   1   2
ATOM      2  C   LIG    1       26.440 -15.580   3.571  0.00  0.00    -0.011 A 
ATOM      3  C   LIG    1       25.177 -15.020   3.298  0.00  0.00    +0.051 A 
ATOM      4  C   LIG    1       25.053 -13.677   2.967  0.00  0.00    +0.121 A 
ATOM      5  C   LIG    1       26.159 -12.837   2.923  0.00  0.00    +0.090 A 
ATOM      6  C   LIG    1       27.408 -13.374   3.224  0.00  0.00    +0.121 A 
ATOM      7  C   LIG    1       27.554 -14.722   3.543  0.00  0.00    +0.051 A 
BRANCH   4   8
ATOM      8  O   LIG    1       23.800 -13.211   2.687  0.00  0.00    -0.507 OA
ATOM      9  H   LIG    1       23.830 -12.243   2.663  0.00  0.00    +0.292 HD
ENDBRANCH   4   8
BRANCH   6  10
ATOM     10  O   LIG    1       28.476 -12.526   3.195  0.00  0.00    -0.507 OA
ATOM     11  H   LIG    1       28.302 -11.798   3.818  0.00  0.00    +0.292 HD
ENDBRANCH   6  10
ENDBRANCH   1   2
BRANCH   1  12
ATOM     12  O   LIG    1       27.955 -17.451   3.765  0.00  0.00    -0.386 OA
ATOM     13  H   LIG    1       28.487 -16.650   3.943  0.00  0.00    +0.210 HD
ENDBRANCH   1  12
BRANCH   1  14
ATOM     14  C   LIG    1       25.678 -18.055   3.213  0.00  0.00    +0.117 C 
BRANCH  14  15
ATOM     15  N   LIG    1       25.726 -19.412   3.807  0.00  0.00    -0.308 NA
ATOM     16  H   LIG    1       26.128 -20.052   3.116  0.00  0.00    +0.122 HD
BRANCH  15  18
ATOM     17  C   LIG    1       23.288 -18.908   4.042  0.00  0.00    +0.027 C 
ATOM     18  C   LIG    1       24.409 -19.947   4.228  0.00  0.00    +0.011 C 
ATOM     19  C   LIG    1       24.090 -21.158   3.327  0.00  0.00    +0.027 C 
ATOM     20  C   LIG    1       24.431 -20.421   5.691  0.00  0.00    +0.027 C 
ENDBRANCH  15  18
ENDBRANCH  14  15
ENDBRANCH   1  14
TORSDOF 7
ENDMDL
MODEL 7
REMARK VINA RESULT:      -5.1      2.612      6.288
REMARK  Name = *****
REMARK                            x       y       z     vdW  Elec       q    Type
REMARK                         _______ _______ _______ _____ _____    ______ ____
ROOT
ATOM      1  C   LIG    1       26.598 -17.023   3.955  0.00  0.00    +0.158 C 
ENDROOT
BRANCH   1   2
ATOM      2  C   LIG    1       26.440 -15.554   3.614  0.00  0.00    -0.011 A 
ATOM      3  C   LIG    1       27.550 -14.690   3.544  0.00  0.00    +0.051 A 
ATOM      4  C   LIG    1       27.388 -13.352   3.213  0.00  0.00    +0.121 A 
ATOM      5  C   LIG    1       26.137 -12.827   2.910  0.00  0.00    +0.090 A 
ATOM      6  C   LIG    1       25.037 -13.681   2.944  0.00  0.00    +0.121 A 
ATOM      7  C   LIG    1       25.178 -15.023   3.289  0.00  0.00    +0.051 A 
BRANCH   4   8
ATOM      8  O   LIG    1       28.506 -12.568   3.194  0.00  0.00    -0.507 OA
ATOM      9  H   LIG    1       28.601 -12.190   2.308  0.00  0.00    +0.292 HD
ENDBRANCH   4   8
BRANCH   6  10
ATOM     10  O   LIG    1       23.824 -13.149   2.623  0.00  0.00    -0.507 OA
ATOM     11  H   LIG    1       23.671 -12.375   3.195  0.00  0.00    +0.292 HD
ENDBRANCH   6  10
ENDBRANCH   1   2
BRANCH   1  12
ATOM     12  O   LIG    1       27.952 -17.435   3.724  0.00  0.00    -0.386 OA
ATOM     13  H   LIG    1       28.493 -16.848   4.289  0.00  0.00    +0.210 HD
ENDBRANCH   1  12
BRANCH   1  14
ATOM     14  C   LIG    1       25.659 -18.018   3.215  0.00  0.00    +0.117 C 
BRANCH  14  15
ATOM     15  N   LIG    1       25.720 -19.389   3.772  0.00  0.00    -0.308 NA
ATOM     16  H   LIG    1       26.108 -20.011   3.055  0.00  0.00    +0.122 HD
BRANCH  15  18
ATOM     17  C   LIG    1       23.282 -18.905   4.039  0.00  0.00    +0.027 C 
ATOM     18  C   LIG    1       24.413 -19.936   4.207  0.00  0.00    +0.011 C 
ATOM     19  C   LIG    1       24.091 -21.146   3.303  0.00  0.00    +0.027 C 
ATOM     20  C   LIG    1       24.457 -20.417   5.666  0.00  0.00    +0.027 C 
ENDBRANCH  15  18
ENDBRANCH  14  15
ENDBRANCH   1  14
TORSDOF 7
ENDMDL
MODEL 8
REMARK VINA RESULT:      -4.0      2.465      6.217
REMARK  Name = *****
REMARK                            x       y       z     vdW  Elec       q    Type
REMARK                         _______ _______ _______ _____ _____    ______ ____
ROOT
ATOM      1  C   LIG    1       25.337 -17.538   3.700  0.00  0.00    +0.158 C 
ENDROOT
BRANCH   1   2
ATOM      2  C   LIG    1       25.531 -16.036   3.628  0.00  0.00    -0.011 A 
ATOM      3  C   LIG    1       26.770 -15.469   3.273  0.00  0.00    +0.051 A 
ATOM      4  C   LIG    1       26.925 -14.092   3.196  0.00  0.00    +0.121 A 
ATOM      5  C   LIG    1       25.861 -13.229   3.435  0.00  0.00    +0.090 A 
ATOM      6  C   LIG    1       24.623 -13.781   3.755  0.00  0.00    +0.121 A 
ATOM      7  C   LIG    1       24.453 -15.160   3.852  0.00  0.00    +0.051 A 
BRANCH   4   8
ATOM      8  O   LIG    1       28.163 -13.614   2.874  0.00  0.00    -0.507 OA
ATOM      9  H   LIG    1       28.695 -13.569   3.682  0.00  0.00    +0.292 HD
ENDBRANCH   4   8
BRANCH   6  10
ATOM     10  O   LIG    1       23.590 -12.916   3.965  0.00  0.00    -0.507 OA
ATOM     11  H   LIG    1       22.787 -13.302   3.570  0.00  0.00    +0.292 HD
ENDBRANCH   6  10
ENDBRANCH   1   2
BRANCH   1  12
ATOM     12  O   LIG    1       26.186 -18.186   2.742  0.00  0.00    -0.386 OA
ATOM     13  H   LIG    1       26.623 -18.904   3.240  0.00  0.00    +0.210 HD
ENDBRANCH   1  12
BRANCH   1  14
ATOM     14  C   LIG    1       23.889 -18.066   3.494  0.00  0.00    +0.117 C 
BRANCH  14  15
ATOM     15  N   LIG    1       23.353 -18.758   4.689  0.00  0.00    -0.308 NA
ATOM     16  H   LIG    1       23.829 -18.385   5.517  0.00  0.00    +0.122 HD
BRANCH  15  18
ATOM     17  C   LIG    1       24.022 -20.733   3.310  0.00  0.00    +0.027 C 
ATOM     18  C   LIG    1       23.524 -20.231   4.677  0.00  0.00    +0.011 C 
ATOM     19  C   LIG    1       24.593 -20.584   5.732  0.00  0.00    +0.027 C 
ATOM     20  C   LIG    1       22.219 -20.956   5.045  0.00  0.00    +0.027 C 
ENDBRANCH  15  18
ENDBRANCH  14  15
ENDBRANCH   1  14
TORSDOF 7
ENDMDL
MODEL 9
REMARK VINA RESULT:      -4.0      3.122      6.702
REMARK  Name = *****
REMARK                            x       y       z     vdW  Elec       q    Type
REMARK                         _______ _______ _______ _____ _____    ______ ____
ROOT
ATOM      1  C   LIG    1       22.840 -15.926   4.276  0.00  0.00    +0.158 C 
ENDROOT
BRANCH   1   2
ATOM      2  C   LIG    1       23.860 -14.904   3.816  0.00  0.00    -0.011 A 
ATOM      3  C   LIG    1       25.238 -15.194   3.799  0.00  0.00    +0.051 A 
ATOM      4  C   LIG    1       26.157 -14.252   3.358  0.00  0.00    +0.121 A 
ATOM      5  C   LIG    1       25.750 -13.007   2.892  0.00  0.00    +0.090 A 
ATOM      6  C   LIG    1       24.387 -12.722   2.874  0.00  0.00    +0.121 A 
ATOM      7  C   LIG    1       23.452 -13.649   3.327  0.00  0.00    +0.051 A 
BRANCH   4   8
ATOM      8  O   LIG    1       27.478 -14.594   3.396  0.00  0.00    -0.507 OA
ATOM      9  H   LIG    1       27.944 -13.959   3.960  0.00  0.00    +0.292 HD
ENDBRANCH   4   8
BRANCH   6  10
ATOM     10  O   LIG    1       24.011 -11.502   2.394  0.00  0.00    -0.507 OA
ATOM     11  H   LIG    1       24.551 -10.823   2.836  0.00  0.00    +0.292 HD
ENDBRANCH   6  10
ENDBRANCH   1   2
BRANCH   1  12
ATOM     12  O   LIG    1       22.401 -15.613   5.605  0.00  0.00    -0.386 OA
ATOM     13  H   LIG    1       21.433 -15.745   5.588  0.00  0.00    +0.210 HD
ENDBRANCH   1  12
BRANCH   1  14
ATOM     14  C   LIG    1       23.285 -17.416   4.255  0.00  0.00    +0.117 C 
BRANCH  14  15
ATOM     15  N   LIG    1       22.274 -18.327   4.841  0.00  0.00    -0.308 NA
ATOM     16  H   LIG    1       22.069 -18.010   5.794  0.00  0.00    +0.122 HD
BRANCH  15  18
ATOM     17  C   LIG    1       21.549 -20.689   4.464  0.00  0.00    +0.027 C 
ATOM     18  C   LIG    1       22.687 -19.750   4.901  0.00  0.00    +0.011 C 
ATOM     19  C   LIG    1       23.861 -19.935   3.917  0.00  0.00    +0.027 C 
ATOM     20  C   LIG    1       23.165 -20.143   6.308  0.00  0.00    +0.027 C 
ENDBRANCH  15  18
ENDBRANCH  14  15
ENDBRANCH   1  14
TORSDOF 7
ENDMDL
