MODEL 1
REMARK VINA RESULT:      -6.0      0.000      0.000
REMARK  Name = *****
REMARK                            x       y       z     vdW  Elec       q    Type
REMARK                         _______ _______ _______ _____ _____    ______ ____
ROOT
ATOM      1  C   LIG    1       25.459 -33.024  10.012  0.00  0.00    +0.132 C 
ATOM      2  C   LIG    1       25.387 -31.500  10.455  0.00  0.00    +0.011 C 
ATOM      3  C   LIG    1       25.268 -31.605  12.041  0.00  0.00    +0.015 C 
ATOM      4  C   LIG    1       24.080 -30.989   9.793  0.00  0.00    +0.003 C 
ATOM      5  C   LIG    1       24.204 -30.118   8.495  0.00  0.00    +0.003 C 
ATOM      6  C   LIG    1       25.123 -28.892   8.676  0.00  0.00    +0.019 C 
ATOM      7  C   LIG    1       26.497 -29.329   9.238  0.00  0.00    +0.009 C 
ATOM      8  C   LIG    1       25.260 -28.080   7.351  0.00  0.00    -0.066 C 
ATOM      9  C   LIG    1       26.047 -26.778   7.437  0.00  0.00    +0.038 C 
ATOM     10  C   LIG    1       26.137 -26.014   6.118  0.00  0.00    +0.079 C 
ATOM     11  C   LIG    1       26.369 -27.027   5.037  0.00  0.00    +0.138 C 
ATOM     12  O   LIG    1       27.420 -27.102   4.405  0.00  0.00    -0.297 OA
ATOM     13  C   LIG    1       25.203 -27.958   4.815  0.00  0.00    +0.105 C 
ATOM     14  C   LIG    1       24.799 -28.540   6.153  0.00  0.00    -0.063 C 
ATOM     15  C   LIG    1       24.052 -29.849   6.026  0.00  0.00    +0.034 C 
ATOM     16  C   LIG    1       24.521 -30.803   7.128  0.00  0.00    -0.006 C 
ATOM     17  C   LIG    1       25.996 -31.098   6.804  0.00  0.00    +0.008 C 
ATOM     18  C   LIG    1       23.176 -32.223   9.599  0.00  0.00    +0.008 C 
ATOM     19  C   LIG    1       26.511 -30.429  10.321  0.00  0.00    +0.011 C 
ATOM     20  C   LIG    1       23.962 -33.427  10.110  0.00  0.00    +0.049 C 
ENDROOT
BRANCH   1  22
ATOM     21  C   LIG    1       26.516 -33.825   7.693  0.00  0.00    +0.007 C 
ATOM     22  C   LIG    1       25.972 -33.414   8.701  0.00  0.00    -0.070 C 
ENDBRANCH   1  22
BRANCH   1  23
ATOM     23  O   LIG    1       26.202 -33.813  10.938  0.00  0.00    -0.376 OA
ATOM     24  H   LIG    1       26.360 -34.675  10.514  0.00  0.00    +0.211 HD
ENDBRANCH   1  23
TORSDOF 2
ENDMDL
MODEL 2
REMARK VINA RESULT:      -5.7      7.064     10.332
REMARK  Name = *****
REMARK                            x       y       z     vdW  Elec       q    Type
REMARK                         _______ _______ _______ _____ _____    ______ ____
ROOT
ATOM      1  C   LIG    1       24.522 -22.660   6.578  0.00  0.00    +0.132 C 
ATOM      2  C   LIG    1       24.683 -21.270   7.328  0.00  0.00    +0.011 C 
ATOM      3  C   LIG    1       23.171 -20.842   7.597  0.00  0.00    +0.015 C 
ATOM      4  C   LIG    1       25.379 -20.365   6.277  0.00  0.00    +0.003 C 
ATOM      5  C   LIG    1       26.915 -20.097   6.438  0.00  0.00    +0.003 C 
ATOM      6  C   LIG    1       27.289 -19.536   7.827  0.00  0.00    +0.019 C 
ATOM      7  C   LIG    1       26.719 -20.444   8.942  0.00  0.00    +0.009 C 
ATOM      8  C   LIG    1       28.828 -19.330   7.965  0.00  0.00    -0.066 C 
ATOM      9  C   LIG    1       29.307 -18.667   9.251  0.00  0.00    +0.038 C 
ATOM     10  C   LIG    1       30.818 -18.472   9.329  0.00  0.00    +0.079 C 
ATOM     11  C   LIG    1       31.452 -19.715   8.778  0.00  0.00    +0.138 C 
ATOM     12  O   LIG    1       32.093 -20.502   9.471  0.00  0.00    -0.297 OA
ATOM     13  C   LIG    1       31.208 -19.921   7.304  0.00  0.00    +0.105 C 
ATOM     14  C   LIG    1       29.721 -19.800   7.047  0.00  0.00    -0.063 C 
ATOM     15  C   LIG    1       29.281 -20.501   5.782  0.00  0.00    +0.034 C 
ATOM     16  C   LIG    1       27.943 -21.201   6.035  0.00  0.00    -0.006 C 
ATOM     17  C   LIG    1       28.252 -22.298   7.069  0.00  0.00    +0.008 C 
ATOM     18  C   LIG    1       25.017 -20.944   4.895  0.00  0.00    +0.008 C 
ATOM     19  C   LIG    1       25.305 -21.030   8.738  0.00  0.00    +0.011 C 
ATOM     20  C   LIG    1       24.155 -22.178   5.147  0.00  0.00    +0.049 C 
ENDROOT
BRANCH   1  22
ATOM     21  C   LIG    1       26.426 -24.526   6.415  0.00  0.00    +0.007 C 
ATOM     22  C   LIG    1       25.625 -23.613   6.490  0.00  0.00    -0.070 C 
ENDBRANCH   1  22
BRANCH   1  23
ATOM     23  O   LIG    1       23.431 -23.420   7.093  0.00  0.00    -0.376 OA
ATOM     24  H   LIG    1       23.757 -24.327   7.233  0.00  0.00    +0.211 HD
ENDBRANCH   1  23
TORSDOF 2
ENDMDL
MODEL 3
REMARK VINA RESULT:      -5.6      6.187      7.695
REMARK  Name = *****
REMARK                            x       y       z     vdW  Elec       q    Type
REMARK                         _______ _______ _______ _____ _____    ______ ____
ROOT
ATOM      1  C   LIG    1       20.254 -29.446  14.569  0.00  0.00    +0.132 C 
ATOM      2  C   LIG    1       20.470 -27.895  14.304  0.00  0.00    +0.011 C 
ATOM      3  C   LIG    1       18.977 -27.339  14.257  0.00  0.00    +0.015 C 
ATOM      4  C   LIG    1       21.164 -27.854  12.917  0.00  0.00    +0.003 C 
ATOM      5  C   LIG    1       22.710 -27.599  12.875  0.00  0.00    +0.003 C 
ATOM      6  C   LIG    1       23.132 -26.316  13.623  0.00  0.00    +0.019 C 
ATOM      7  C   LIG    1       22.565 -26.325  15.062  0.00  0.00    +0.009 C 
ATOM      8  C   LIG    1       24.679 -26.124  13.601  0.00  0.00    -0.066 C 
ATOM      9  C   LIG    1       25.206 -24.828  14.204  0.00  0.00    +0.038 C 
ATOM     10  C   LIG    1       26.724 -24.680  14.142  0.00  0.00    +0.079 C 
ATOM     11  C   LIG    1       27.311 -26.020  14.472  0.00  0.00    +0.138 C 
ATOM     12  O   LIG    1       27.947 -26.237  15.500  0.00  0.00    -0.297 OA
ATOM     13  C   LIG    1       27.026 -27.081  13.438  0.00  0.00    +0.105 C 
ATOM     14  C   LIG    1       25.537 -27.091  13.164  0.00  0.00    -0.063 C 
ATOM     15  C   LIG    1       25.048 -28.406  12.600  0.00  0.00    +0.034 C 
ATOM     16  C   LIG    1       23.698 -28.754  13.234  0.00  0.00    -0.006 C 
ATOM     17  C   LIG    1       24.003 -28.992  14.724  0.00  0.00    +0.008 C 
ATOM     18  C   LIG    1       20.754 -29.148  12.185  0.00  0.00    +0.008 C 
ATOM     19  C   LIG    1       21.132 -26.862  15.266  0.00  0.00    +0.011 C 
ATOM     20  C   LIG    1       19.866 -29.933  13.146  0.00  0.00    +0.049 C 
ENDROOT
BRANCH   1  22
ATOM     21  C   LIG    1       22.129 -31.124  15.467  0.00  0.00    +0.007 C 
ATOM     22  C   LIG    1       21.329 -30.290  15.084  0.00  0.00    -0.070 C 
ENDBRANCH   1  22
BRANCH   1  23
ATOM     23  O   LIG    1       19.156 -29.689  15.446  0.00  0.00    -0.376 OA
ATOM     24  H   LIG    1       18.349 -29.415  14.975  0.00  0.00    +0.211 HD
ENDBRANCH   1  23
TORSDOF 2
ENDMDL
MODEL 4
REMARK VINA RESULT:      -5.6      2.614      5.251
REMARK  Name = *****
REMARK                            x       y       z     vdW  Elec       q    Type
REMARK                         _______ _______ _______ _____ _____    ______ ____
ROOT
ATOM      1  C   LIG    1       25.679 -32.575   6.057  0.00  0.00    +0.132 C 
ATOM      2  C   LIG    1       24.319 -32.177   6.774  0.00  0.00    +0.011 C 
ATOM      3  C   LIG    1       23.218 -32.700   5.747  0.00  0.00    +0.015 C 
ATOM      4  C   LIG    1       24.381 -30.628   6.842  0.00  0.00    +0.003 C 
ATOM      5  C   LIG    1       24.753 -29.966   8.214  0.00  0.00    +0.003 C 
ATOM      6  C   LIG    1       23.845 -30.427   9.373  0.00  0.00    +0.019 C 
ATOM      7  C   LIG    1       23.810 -31.973   9.444  0.00  0.00    +0.009 C 
ATOM      8  C   LIG    1       24.277 -29.786  10.728  0.00  0.00    -0.066 C 
ATOM      9  C   LIG    1       23.380 -30.073  11.926  0.00  0.00    +0.038 C 
ATOM     10  C   LIG    1       23.837 -29.409  13.222  0.00  0.00    +0.079 C 
ATOM     11  C   LIG    1       25.330 -29.538  13.282  0.00  0.00    +0.138 C 
ATOM     12  O   LIG    1       25.907 -30.239  14.110  0.00  0.00    -0.297 OA
ATOM     13  C   LIG    1       26.053 -28.750  12.219  0.00  0.00    +0.105 C 
ATOM     14  C   LIG    1       25.440 -29.090  10.876  0.00  0.00    -0.063 C 
ATOM     15  C   LIG    1       26.374 -28.824   9.717  0.00  0.00    +0.034 C 
ATOM     16  C   LIG    1       26.238 -29.956   8.694  0.00  0.00    -0.006 C 
ATOM     17  C   LIG    1       26.763 -31.212   9.412  0.00  0.00    +0.008 C 
ATOM     18  C   LIG    1       25.305 -30.177   5.693  0.00  0.00    +0.008 C 
ATOM     19  C   LIG    1       23.760 -32.750   8.112  0.00  0.00    +0.011 C 
ATOM     20  C   LIG    1       25.791 -31.445   4.997  0.00  0.00    +0.049 C 
ENDROOT
BRANCH   1  22
ATOM     21  C   LIG    1       28.013 -32.868   7.322  0.00  0.00    +0.007 C 
ATOM     22  C   LIG    1       26.936 -32.659   6.796  0.00  0.00    -0.070 C 
ENDBRANCH   1  22
BRANCH   1  23
ATOM     23  O   LIG    1       25.577 -33.825   5.378  0.00  0.00    -0.376 OA
ATOM     24  H   LIG    1       24.629 -34.006   5.255  0.00  0.00    +0.211 HD
ENDBRANCH   1  23
TORSDOF 2
ENDMDL
MODEL 5
REMARK VINA RESULT:      -5.3      7.970     10.666
REMARK  Name = *****
REMARK                            x       y       z     vdW  Elec       q    Type
REMARK                         _______ _______ _______ _____ _____    ______ ____
ROOT
ATOM      1  C   LIG    1       23.354 -21.762   5.979  0.00  0.00    +0.132 C 
ATOM      2  C   LIG    1       24.568 -21.501   4.987  0.00  0.00    +0.011 C 
ATOM      3  C   LIG    1       23.946 -21.880   3.569  0.00  0.00    +0.015 C 
ATOM      4  C   LIG    1       25.645 -22.516   5.454  0.00  0.00    +0.003 C 
ATOM      5  C   LIG    1       26.841 -21.975   6.312  0.00  0.00    +0.003 C 
ATOM      6  C   LIG    1       27.591 -20.807   5.637  0.00  0.00    +0.019 C 
ATOM      7  C   LIG    1       26.594 -19.695   5.231  0.00  0.00    +0.009 C 
ATOM      8  C   LIG    1       28.740 -20.266   6.542  0.00  0.00    -0.066 C 
ATOM      9  C   LIG    1       29.629 -19.190   5.931  0.00  0.00    +0.038 C 
ATOM     10  C   LIG    1       30.748 -18.707   6.849  0.00  0.00    +0.079 C 
ATOM     11  C   LIG    1       30.167 -18.587   8.227  0.00  0.00    +0.138 C 
ATOM     12  O   LIG    1       30.013 -17.509   8.796  0.00  0.00    -0.297 OA
ATOM     13  C   LIG    1       29.768 -19.908   8.837  0.00  0.00    +0.105 C 
ATOM     14  C   LIG    1       28.896 -20.646   7.842  0.00  0.00    -0.063 C 
ATOM     15  C   LIG    1       28.004 -21.680   8.493  0.00  0.00    +0.034 C 
ATOM     16  C   LIG    1       26.627 -21.646   7.824  0.00  0.00    -0.006 C 
ATOM     17  C   LIG    1       26.042 -20.266   8.175  0.00  0.00    +0.008 C 
ATOM     18  C   LIG    1       24.890 -23.669   6.145  0.00  0.00    +0.008 C 
ATOM     19  C   LIG    1       25.230 -20.130   4.654  0.00  0.00    +0.011 C 
ATOM     20  C   LIG    1       23.408 -23.309   6.104  0.00  0.00    +0.049 C 
ENDROOT
BRANCH   1  22
ATOM     21  C   LIG    1       23.197 -20.572   8.366  0.00  0.00    +0.007 C 
ATOM     22  C   LIG    1       23.322 -21.177   7.317  0.00  0.00    -0.070 C 
ENDBRANCH   1  22
BRANCH   1  23
ATOM     23  O   LIG    1       22.104 -21.397   5.398  0.00  0.00    -0.376 OA
ATOM     24  H   LIG    1       21.596 -22.218   5.278  0.00  0.00    +0.211 HD
ENDBRANCH   1  23
TORSDOF 2
ENDMDL
MODEL 6
REMARK VINA RESULT:      -5.3      2.453      5.177
REMARK  Name = *****
REMARK                            x       y       z     vdW  Elec       q    Type
REMARK                         _______ _______ _______ _____ _____    ______ ____
ROOT
ATOM      1  C   LIG    1       25.110 -31.821   5.919  0.00  0.00    +0.132 C 
ATOM      2  C   LIG    1       25.769 -32.497   7.196  0.00  0.00    +0.011 C 
ATOM      3  C   LIG    1       26.451 -33.803   6.586  0.00  0.00    +0.015 C 
ATOM      4  C   LIG    1       24.554 -32.829   8.102  0.00  0.00    +0.003 C 
ATOM      5  C   LIG    1       24.271 -31.891   9.326  0.00  0.00    +0.003 C 
ATOM      6  C   LIG    1       25.490 -31.727  10.257  0.00  0.00    +0.019 C 
ATOM      7  C   LIG    1       26.732 -31.292   9.443  0.00  0.00    +0.009 C 
ATOM      8  C   LIG    1       25.185 -30.750  11.433  0.00  0.00    -0.066 C 
ATOM      9  C   LIG    1       26.275 -30.602  12.487  0.00  0.00    +0.038 C 
ATOM     10  C   LIG    1       25.920 -29.648  13.625  0.00  0.00    +0.079 C 
ATOM     11  C   LIG    1       25.226 -28.469  13.011  0.00  0.00    +0.138 C 
ATOM     12  O   LIG    1       25.717 -27.343  12.985  0.00  0.00    -0.297 OA
ATOM     13  C   LIG    1       23.883 -28.798  12.407  0.00  0.00    +0.105 C 
ATOM     14  C   LIG    1       24.057 -29.985  11.482  0.00  0.00    -0.063 C 
ATOM     15  C   LIG    1       22.975 -30.075  10.429  0.00  0.00    +0.034 C 
ATOM     16  C   LIG    1       23.605 -30.497   9.098  0.00  0.00    -0.006 C 
ATOM     17  C   LIG    1       24.521 -29.327   8.698  0.00  0.00    +0.008 C 
ATOM     18  C   LIG    1       23.337 -32.971   7.166  0.00  0.00    +0.008 C 
ATOM     19  C   LIG    1       26.942 -31.936   8.056  0.00  0.00    +0.011 C 
ATOM     20  C   LIG    1       23.837 -32.695   5.751  0.00  0.00    +0.049 C 
ENDROOT
BRANCH   1  22
ATOM     21  C   LIG    1       24.401 -29.251   5.744  0.00  0.00    +0.007 C 
ATOM     22  C   LIG    1       24.724 -30.412   5.915  0.00  0.00    -0.070 C 
ENDBRANCH   1  22
BRANCH   1  23
ATOM     23  O   LIG    1       25.922 -31.974   4.757  0.00  0.00    -0.376 OA
ATOM     24  H   LIG    1       26.216 -32.902   4.735  0.00  0.00    +0.211 HD
ENDBRANCH   1  23
TORSDOF 2
ENDMDL
MODEL 7
REMARK VINA RESULT:      -5.3      5.020      7.646
REMARK  Name = *****
REMARK                            x       y       z     vdW  Elec       q    Type
REMARK                         _______ _______ _______ _____ _____    ______ ____
ROOT
ATOM      1  C   LIG    1       26.286 -26.319  13.691  0.00  0.00    +0.132 C 
ATOM      2  C   LIG    1       24.816 -26.317  14.291  0.00  0.00    +0.011 C 
ATOM      3  C   LIG    1       24.828 -25.035  15.238  0.00  0.00    +0.015 C 
ATOM      4  C   LIG    1       24.745 -27.645  15.090  0.00  0.00    +0.003 C 
ATOM      5  C   LIG    1       23.977 -28.851  14.447  0.00  0.00    +0.003 C 
ATOM      6  C   LIG    1       22.531 -28.498  14.039  0.00  0.00    +0.019 C 
ATOM      7  C   LIG    1       22.519 -27.235  13.146  0.00  0.00    +0.009 C 
ATOM      8  C   LIG    1       21.817 -29.706  13.359  0.00  0.00    -0.066 C 
ATOM      9  C   LIG    1       20.344 -29.516  13.021  0.00  0.00    +0.038 C 
ATOM     10  C   LIG    1       19.688 -30.733  12.374  0.00  0.00    +0.079 C 
ATOM     11  C   LIG    1       20.674 -31.296  11.394  0.00  0.00    +0.138 C 
ATOM     12  O   LIG    1       20.498 -31.270  10.178  0.00  0.00    -0.297 OA
ATOM     13  C   LIG    1       21.910 -31.874  12.037  0.00  0.00    +0.105 C 
ATOM     14  C   LIG    1       22.479 -30.840  12.987  0.00  0.00    -0.063 C 
ATOM     15  C   LIG    1       23.951 -31.043  13.268  0.00  0.00    +0.034 C 
ATOM     16  C   LIG    1       24.647 -29.679  13.305  0.00  0.00    -0.006 C 
ATOM     17  C   LIG    1       24.538 -29.132  11.871  0.00  0.00    +0.008 C 
ATOM     18  C   LIG    1       26.195 -28.001  15.476  0.00  0.00    +0.008 C 
ATOM     19  C   LIG    1       23.485 -26.088  13.513  0.00  0.00    +0.011 C 
ATOM     20  C   LIG    1       27.087 -26.914  14.883  0.00  0.00    +0.049 C 
ENDROOT
BRANCH   1  22
ATOM     21  C   LIG    1       27.044 -27.621  11.484  0.00  0.00    +0.007 C 
ATOM     22  C   LIG    1       26.616 -27.064  12.479  0.00  0.00    -0.070 C 
ENDBRANCH   1  22
BRANCH   1  23
ATOM     23  O   LIG    1       26.761 -24.998  13.441  0.00  0.00    -0.376 OA
ATOM     24  H   LIG    1       27.077 -24.644  14.291  0.00  0.00    +0.211 HD
ENDBRANCH   1  23
TORSDOF 2
ENDMDL
MODEL 8
REMARK VINA RESULT:      -5.2      2.573      5.100
REMARK  Name = *****
REMARK                            x       y       z     vdW  Elec       q    Type
REMARK                         _______ _______ _______ _____ _____    ______ ____
ROOT
ATOM      1  C   LIG    1       24.293 -32.575   6.598  0.00  0.00    +0.132 C 
ATOM      2  C   LIG    1       25.369 -31.409   6.658  0.00  0.00    +0.011 C 
ATOM      3  C   LIG    1       25.900 -31.348   5.156  0.00  0.00    +0.015 C 
ATOM      4  C   LIG    1       26.439 -31.948   7.645  0.00  0.00    +0.003 C 
ATOM      5  C   LIG    1       26.438 -31.387   9.109  0.00  0.00    +0.003 C 
ATOM      6  C   LIG    1       26.514 -29.846   9.166  0.00  0.00    +0.019 C 
ATOM      7  C   LIG    1       25.406 -29.222   8.285  0.00  0.00    +0.009 C 
ATOM      8  C   LIG    1       26.462 -29.325  10.634  0.00  0.00    -0.066 C 
ATOM      9  C   LIG    1       26.650 -27.825  10.825  0.00  0.00    +0.038 C 
ATOM     10  C   LIG    1       26.608 -27.369  12.281  0.00  0.00    +0.079 C 
ATOM     11  C   LIG    1       25.506 -28.135  12.951  0.00  0.00    +0.138 C 
ATOM     12  O   LIG    1       24.472 -27.605  13.353  0.00  0.00    -0.297 OA
ATOM     13  C   LIG    1       25.773 -29.615  13.062  0.00  0.00    +0.105 C 
ATOM     14  C   LIG    1       26.164 -30.132  11.693  0.00  0.00    -0.063 C 
ATOM     15  C   LIG    1       25.928 -31.617  11.533  0.00  0.00    +0.034 C 
ATOM     16  C   LIG    1       25.372 -31.889  10.133  0.00  0.00    -0.006 C 
ATOM     17  C   LIG    1       23.989 -31.212  10.110  0.00  0.00    +0.008 C 
ATOM     18  C   LIG    1       26.342 -33.486   7.596  0.00  0.00    +0.008 C 
ATOM     19  C   LIG    1       25.102 -29.897   6.930  0.00  0.00    +0.011 C 
ATOM     20  C   LIG    1       25.217 -33.825   6.624  0.00  0.00    +0.049 C 
ENDROOT
BRANCH   1  22
ATOM     21  C   LIG    1       22.388 -32.998   8.423  0.00  0.00    +0.007 C 
ATOM     22  C   LIG    1       23.268 -32.722   7.627  0.00  0.00    -0.070 C 
ENDBRANCH   1  22
BRANCH   1  23
ATOM     23  O   LIG    1       23.571 -32.571   5.369  0.00  0.00    -0.376 OA
ATOM     24  H   LIG    1       24.116 -33.045   4.717  0.00  0.00    +0.211 HD
ENDBRANCH   1  23
TORSDOF 2
ENDMDL
MODEL 9
REMARK VINA RESULT:      -5.1      2.848      4.747
REMARK  Name = *****
REMARK                            x       y       z     vdW  Elec       q    Type
REMARK                         _______ _______ _______ _____ _____    ______ ____
ROOT
ATOM      1  C   LIG    1       24.903 -28.893  13.020  0.00  0.00    +0.132 C 
ATOM      2  C   LIG    1       23.859 -29.915  12.399  0.00  0.00    +0.011 C 
ATOM      3  C   LIG    1       22.741 -30.001  13.531  0.00  0.00    +0.015 C 
ATOM      4  C   LIG    1       24.671 -31.230  12.264  0.00  0.00    +0.003 C 
ATOM      5  C   LIG    1       25.196 -31.628  10.841  0.00  0.00    +0.003 C 
ATOM      6  C   LIG    1       24.080 -31.682   9.777  0.00  0.00    +0.019 C 
ATOM      7  C   LIG    1       23.280 -30.357   9.772  0.00  0.00    +0.009 C 
ATOM      8  C   LIG    1       24.648 -32.031   8.368  0.00  0.00    -0.066 C 
ATOM      9  C   LIG    1       23.624 -32.231   7.258  0.00  0.00    +0.038 C 
ATOM     10  C   LIG    1       24.230 -32.589   5.904  0.00  0.00    +0.079 C 
ATOM     11  C   LIG    1       25.452 -31.737   5.729  0.00  0.00    +0.138 C 
ATOM     12  O   LIG    1       25.531 -30.846   4.887  0.00  0.00    -0.297 OA
ATOM     13  C   LIG    1       26.563 -32.059   6.698  0.00  0.00    +0.105 C 
ATOM     14  C   LIG    1       25.985 -32.061   8.099  0.00  0.00    -0.063 C 
ATOM     15  C   LIG    1       27.028 -31.824   9.168  0.00  0.00    +0.034 C 
ATOM     16  C   LIG    1       26.444 -30.903  10.243  0.00  0.00    -0.006 C 
ATOM     17  C   LIG    1       26.213 -29.555   9.537  0.00  0.00    +0.008 C 
ATOM     18  C   LIG    1       25.796 -31.160  13.316  0.00  0.00    +0.008 C 
ATOM     19  C   LIG    1       22.972 -29.700  11.135  0.00  0.00    +0.011 C 
ATOM     20  C   LIG    1       25.653 -29.814  14.022  0.00  0.00    +0.049 C 
ENDROOT
BRANCH   1  22
ATOM     21  C   LIG    1       26.736 -27.535  11.629  0.00  0.00    +0.007 C 
ATOM     22  C   LIG    1       25.883 -28.201  12.187  0.00  0.00    -0.070 C 
ENDBRANCH   1  22
BRANCH   1  23
ATOM     23  O   LIG    1       24.260 -27.854  13.755  0.00  0.00    -0.376 OA
ATOM     24  H   LIG    1       23.303 -27.950  13.604  0.00  0.00    +0.211 HD
ENDBRANCH   1  23
TORSDOF 2
ENDMDL
