MODEL 1
REMARK VINA RESULT:      -5.9      0.000      0.000
REMARK  Name = *****
REMARK                            x       y       z     vdW  Elec       q    Type
REMARK                         _______ _______ _______ _____ _____    ______ ____
ROOT
ATOM      1  C   LIG    1       24.026 -29.680   7.919  0.00  0.00    +0.011 C 
ATOM      2  C   LIG    1       24.029 -30.397   9.054  0.00  0.00    -0.037 C 
ATOM      3  C   LIG    1       25.202 -31.166   9.617  0.00  0.00    +0.152 C 
ATOM      4  C   LIG    1       24.746 -31.582  11.063  0.00  0.00    +0.013 C 
ATOM      5  C   LIG    1       23.609 -30.574  11.398  0.00  0.00    +0.009 C 
ATOM      6  C   LIG    1       24.059 -29.211  12.005  0.00  0.00    +0.034 C 
ATOM      7  C   LIG    1       25.086 -29.362  13.155  0.00  0.00    +0.153 C 
ATOM      8  C   LIG    1       26.293 -30.192  12.642  0.00  0.00    +0.154 C 
ATOM      9  F   LIG    1       24.472 -30.146  14.115  0.00  0.00    -0.238 F 
ATOM     10  C   LIG    1       25.458 -27.975  13.863  0.00  0.00    +0.044 C 
ATOM     11  C   LIG    1       24.210 -27.072  14.094  0.00  0.00    -0.053 C 
ATOM     12  C   LIG    1       24.390 -25.851  14.657  0.00  0.00    +0.051 C 
ATOM     13  C   LIG    1       25.386 -25.030  13.871  0.00  0.00    +0.179 C 
ATOM     14  C   LIG    1       26.400 -25.768  13.064  0.00  0.00    +0.047 C 
ATOM     15  O   LIG    1       25.402 -23.807  13.952  0.00  0.00    -0.288 OA
ATOM     16  C   LIG    1       23.157 -27.089  13.009  0.00  0.00    +0.032 C 
ATOM     17  C   LIG    1       26.109 -28.264  15.247  0.00  0.00    +0.023 C 
ATOM     18  C   LIG    1       26.451 -27.112  13.074  0.00  0.00    -0.009 C 
ATOM     19  C   LIG    1       22.812 -28.487  12.544  0.00  0.00    +0.011 C 
ATOM     20  C   LIG    1       24.145 -33.016  11.099  0.00  0.00    +0.015 C 
ATOM     21  C   LIG    1       25.871 -31.565  12.114  0.00  0.00    +0.045 C 
ATOM     22  C   LIG    1       22.898 -30.393  10.041  0.00  0.00    +0.038 C 
ENDROOT
BRANCH   3  23
ATOM     23  O   LIG    1       26.290 -30.240   9.684  0.00  0.00    -0.376 OA
ATOM     24  H   LIG    1       25.983 -29.503  10.253  0.00  0.00    +0.211 HD
ENDBRANCH   3  23
BRANCH   3  25
ATOM     25  C   LIG    1       25.660 -32.356   8.738  0.00  0.00    +0.194 C 
ATOM     26  O   LIG    1       24.838 -32.953   8.027  0.00  0.00    -0.291 OA
BRANCH  25  27
ATOM     27  C   LIG    1       27.124 -32.774   8.736  0.00  0.00    +0.233 C 
BRANCH  27  28
ATOM     28  O   LIG    1       27.342 -33.824   9.667  0.00  0.00    -0.387 OA
ATOM     29  H   LIG    1       26.695 -34.524   9.451  0.00  0.00    +0.210 HD
ENDBRANCH  27  28
ENDBRANCH  25  27
ENDBRANCH   3  25
BRANCH   8  30
ATOM     30  O   LIG    1       27.264 -30.445  13.661  0.00  0.00    -0.389 OA
ATOM     31  H   LIG    1       28.090 -30.705  13.212  0.00  0.00    +0.210 HD
ENDBRANCH   8  30
TORSDOF 5
ENDMDL
MODEL 2
REMARK VINA RESULT:      -5.9      3.744      6.104
REMARK  Name = *****
REMARK                            x       y       z     vdW  Elec       q    Type
REMARK                         _______ _______ _______ _____ _____    ______ ____
ROOT
ATOM      1  C   LIG    1       22.871 -29.474  12.227  0.00  0.00    +0.011 C 
ATOM      2  C   LIG    1       23.498 -30.331  11.407  0.00  0.00    -0.037 C 
ATOM      3  C   LIG    1       22.839 -31.222  10.379  0.00  0.00    +0.152 C 
ATOM      4  C   LIG    1       24.031 -31.800   9.533  0.00  0.00    +0.013 C 
ATOM      5  C   LIG    1       25.188 -30.791   9.784  0.00  0.00    +0.009 C 
ATOM      6  C   LIG    1       25.222 -29.542   8.854  0.00  0.00    +0.034 C 
ATOM      7  C   LIG    1       25.043 -29.889   7.355  0.00  0.00    +0.153 C 
ATOM      8  C   LIG    1       23.733 -30.702   7.182  0.00  0.00    +0.154 C 
ATOM      9  F   LIG    1       26.070 -30.760   7.039  0.00  0.00    -0.238 F 
ATOM     10  C   LIG    1       25.200 -28.625   6.384  0.00  0.00    +0.044 C 
ATOM     11  C   LIG    1       26.383 -27.701   6.797  0.00  0.00    -0.053 C 
ATOM     12  C   LIG    1       26.606 -26.574   6.077  0.00  0.00    +0.051 C 
ATOM     13  C   LIG    1       25.370 -25.706   6.026  0.00  0.00    +0.179 C 
ATOM     14  C   LIG    1       24.049 -26.380   6.190  0.00  0.00    +0.047 C 
ATOM     15  O   LIG    1       25.448 -24.506   5.788  0.00  0.00    -0.288 OA
ATOM     16  C   LIG    1       26.615 -27.527   8.282  0.00  0.00    +0.032 C 
ATOM     17  C   LIG    1       25.457 -29.122   4.932  0.00  0.00    +0.023 C 
ATOM     18  C   LIG    1       23.966 -27.716   6.332  0.00  0.00    -0.009 C 
ATOM     19  C   LIG    1       26.576 -28.834   9.042  0.00  0.00    +0.011 C 
ATOM     20  C   LIG    1       24.490 -33.196  10.041  0.00  0.00    +0.015 C 
ATOM     21  C   LIG    1       23.722 -31.973   8.034  0.00  0.00    +0.045 C 
ATOM     22  C   LIG    1       24.991 -30.402  11.264  0.00  0.00    +0.038 C 
ENDROOT
BRANCH   3  23
ATOM     23  O   LIG    1       22.025 -30.366   9.574  0.00  0.00    -0.376 OA
ATOM     24  H   LIG    1       21.836 -29.576  10.124  0.00  0.00    +0.211 HD
ENDBRANCH   3  23
BRANCH   3  25
ATOM     25  C   LIG    1       21.915 -32.308  10.982  0.00  0.00    +0.194 C 
ATOM     26  O   LIG    1       22.110 -32.717  12.136  0.00  0.00    -0.291 OA
BRANCH  25  27
ATOM     27  C   LIG    1       20.755 -32.855  10.160  0.00  0.00    +0.233 C 
BRANCH  27  28
ATOM     28  O   LIG    1       19.639 -31.979  10.233  0.00  0.00    -0.387 OA
ATOM     29  H   LIG    1       19.246 -32.105  11.118  0.00  0.00    +0.210 HD
ENDBRANCH  27  28
ENDBRANCH  25  27
ENDBRANCH   3  25
BRANCH   8  30
ATOM     30  O   LIG    1       23.521 -31.132   5.835  0.00  0.00    -0.389 OA
ATOM     31  H   LIG    1       24.250 -30.766   5.299  0.00  0.00    +0.210 HD
ENDBRANCH   8  30
TORSDOF 5
ENDMDL
MODEL 3
REMARK VINA RESULT:      -5.7      0.615      1.038
REMARK  Name = *****
REMARK                            x       y       z     vdW  Elec       q    Type
REMARK                         _______ _______ _______ _____ _____    ______ ____
ROOT
ATOM      1  C   LIG    1       24.024 -29.699   8.269  0.00  0.00    +0.011 C 
ATOM      2  C   LIG    1       24.020 -30.337   9.449  0.00  0.00    -0.037 C 
ATOM      3  C   LIG    1       25.189 -31.066  10.071  0.00  0.00    +0.152 C 
ATOM      4  C   LIG    1       24.724 -31.384  11.538  0.00  0.00    +0.013 C 
ATOM      5  C   LIG    1       23.584 -30.357  11.797  0.00  0.00    +0.009 C 
ATOM      6  C   LIG    1       24.028 -28.956  12.314  0.00  0.00    +0.034 C 
ATOM      7  C   LIG    1       25.048 -29.027  13.478  0.00  0.00    +0.153 C 
ATOM      8  C   LIG    1       26.259 -29.889  13.031  0.00  0.00    +0.154 C 
ATOM      9  F   LIG    1       24.427 -29.745  14.485  0.00  0.00    -0.238 F 
ATOM     10  C   LIG    1       25.414 -27.595  14.093  0.00  0.00    +0.044 C 
ATOM     11  C   LIG    1       24.164 -26.680  14.255  0.00  0.00    -0.053 C 
ATOM     12  C   LIG    1       24.339 -25.424  14.736  0.00  0.00    +0.051 C 
ATOM     13  C   LIG    1       25.340 -24.656  13.903  0.00  0.00    +0.179 C 
ATOM     14  C   LIG    1       26.360 -25.446  13.154  0.00  0.00    +0.047 C 
ATOM     15  O   LIG    1       25.355 -23.430  13.901  0.00  0.00    -0.288 OA
ATOM     16  C   LIG    1       23.118 -26.772  13.166  0.00  0.00    +0.032 C 
ATOM     17  C   LIG    1       26.056 -27.790  15.498  0.00  0.00    +0.023 C 
ATOM     18  C   LIG    1       26.412 -26.787  13.256  0.00  0.00    -0.009 C 
ATOM     19  C   LIG    1       22.778 -28.198  12.794  0.00  0.00    +0.011 C 
ATOM     20  C   LIG    1       24.123 -32.812  11.667  0.00  0.00    +0.015 C 
ATOM     21  C   LIG    1       25.841 -31.294  12.594  0.00  0.00    +0.045 C 
ATOM     22  C   LIG    1       22.882 -30.268  10.426  0.00  0.00    +0.038 C 
ENDROOT
BRANCH   3  23
ATOM     23  O   LIG    1       26.276 -30.136  10.083  0.00  0.00    -0.376 OA
ATOM     24  H   LIG    1       26.711 -30.217   9.208  0.00  0.00    +0.211 HD
ENDBRANCH   3  23
BRANCH   3  25
ATOM     25  C   LIG    1       25.654 -32.311   9.277  0.00  0.00    +0.194 C 
ATOM     26  O   LIG    1       26.789 -32.775   9.461  0.00  0.00    -0.291 OA
BRANCH  25  27
ATOM     27  C   LIG    1       24.704 -32.974   8.288  0.00  0.00    +0.233 C 
BRANCH  27  28
ATOM     28  O   LIG    1       25.187 -32.823   6.960  0.00  0.00    -0.387 OA
ATOM     29  H   LIG    1       25.966 -32.236   7.014  0.00  0.00    +0.210 HD
ENDBRANCH  27  28
ENDBRANCH  25  27
ENDBRANCH   3  25
BRANCH   8  30
ATOM     30  O   LIG    1       27.223 -30.071  14.071  0.00  0.00    -0.389 OA
ATOM     31  H   LIG    1       27.460 -31.018  14.080  0.00  0.00    +0.210 HD
ENDBRANCH   8  30
TORSDOF 5
ENDMDL
MODEL 4
REMARK VINA RESULT:      -5.3      2.697      3.894
REMARK  Name = *****
REMARK                            x       y       z     vdW  Elec       q    Type
REMARK                         _______ _______ _______ _____ _____    ______ ____
ROOT
ATOM      1  C   LIG    1       23.155 -31.891  10.195  0.00  0.00    +0.011 C 
ATOM      2  C   LIG    1       23.809 -31.546  11.315  0.00  0.00    -0.037 C 
ATOM      3  C   LIG    1       24.919 -30.526  11.419  0.00  0.00    +0.152 C 
ATOM      4  C   LIG    1       25.129 -30.323  12.963  0.00  0.00    +0.013 C 
ATOM      5  C   LIG    1       23.789 -30.810  13.587  0.00  0.00    +0.009 C 
ATOM      6  C   LIG    1       22.648 -29.753  13.671  0.00  0.00    +0.034 C 
ATOM      7  C   LIG    1       23.116 -28.391  14.243  0.00  0.00    +0.153 C 
ATOM      8  C   LIG    1       24.315 -27.881  13.401  0.00  0.00    +0.154 C 
ATOM      9  F   LIG    1       23.626 -28.660  15.500  0.00  0.00    -0.238 F 
ATOM     10  C   LIG    1       21.923 -27.342  14.446  0.00  0.00    +0.044 C 
ATOM     11  C   LIG    1       20.647 -28.001  15.047  0.00  0.00    -0.053 C 
ATOM     12  C   LIG    1       19.549 -27.229  15.240  0.00  0.00    +0.051 C 
ATOM     13  C   LIG    1       19.128 -26.550  13.957  0.00  0.00    +0.179 C 
ATOM     14  C   LIG    1       20.181 -26.314  12.927  0.00  0.00    +0.047 C 
ATOM     15  O   LIG    1       17.982 -26.145  13.801  0.00  0.00    -0.288 OA
ATOM     16  C   LIG    1       20.327 -29.403  14.574  0.00  0.00    +0.032 C 
ATOM     17  C   LIG    1       22.390 -26.218  15.416  0.00  0.00    +0.023 C 
ATOM     18  C   LIG    1       21.463 -26.654  13.155  0.00  0.00    -0.009 C 
ATOM     19  C   LIG    1       21.534 -30.314  14.573  0.00  0.00    +0.011 C 
ATOM     20  C   LIG    1       26.273 -31.215  13.523  0.00  0.00    +0.015 C 
ATOM     21  C   LIG    1       25.473 -28.880  13.375  0.00  0.00    +0.045 C 
ATOM     22  C   LIG    1       23.404 -32.003  12.686  0.00  0.00    +0.038 C 
ENDROOT
BRANCH   3  23
ATOM     23  O   LIG    1       24.415 -29.328  10.822  0.00  0.00    -0.376 OA
ATOM     24  H   LIG    1       24.536 -29.435   9.855  0.00  0.00    +0.211 HD
ENDBRANCH   3  23
BRANCH   3  25
ATOM     25  C   LIG    1       26.210 -30.915  10.658  0.00  0.00    +0.194 C 
ATOM     26  O   LIG    1       26.366 -32.078  10.256  0.00  0.00    -0.291 OA
BRANCH  25  27
ATOM     27  C   LIG    1       27.275 -29.860  10.387  0.00  0.00    +0.233 C 
BRANCH  27  28
ATOM     28  O   LIG    1       27.035 -29.222   9.140  0.00  0.00    -0.387 OA
ATOM     29  H   LIG    1       26.167 -29.543   8.827  0.00  0.00    +0.210 HD
ENDBRANCH  27  28
ENDBRANCH  25  27
ENDBRANCH   3  25
BRANCH   8  30
ATOM     30  O   LIG    1       24.863 -26.658  13.901  0.00  0.00    -0.389 OA
ATOM     31  H   LIG    1       24.398 -25.929  13.448  0.00  0.00    +0.210 HD
ENDBRANCH   8  30
TORSDOF 5
ENDMDL
MODEL 5
REMARK VINA RESULT:      -5.2      2.225      3.388
REMARK  Name = *****
REMARK                            x       y       z     vdW  Elec       q    Type
REMARK                         _______ _______ _______ _____ _____    ______ ____
ROOT
ATOM      1  C   LIG    1       22.254 -33.186   8.880  0.00  0.00    +0.011 C 
ATOM      2  C   LIG    1       23.551 -32.918   9.095  0.00  0.00    -0.037 C 
ATOM      3  C   LIG    1       24.381 -31.893   8.356  0.00  0.00    +0.152 C 
ATOM      4  C   LIG    1       25.721 -31.804   9.173  0.00  0.00    +0.013 C 
ATOM      5  C   LIG    1       25.336 -32.355  10.577  0.00  0.00    +0.009 C 
ATOM      6  C   LIG    1       24.736 -31.322  11.577  0.00  0.00    +0.034 C 
ATOM      7  C   LIG    1       25.541 -30.000  11.650  0.00  0.00    +0.153 C 
ATOM      8  C   LIG    1       25.669 -29.412  10.220  0.00  0.00    +0.154 C 
ATOM      9  F   LIG    1       26.824 -30.356  12.027  0.00  0.00    -0.238 F 
ATOM     10  C   LIG    1       25.000 -28.985  12.764  0.00  0.00    +0.044 C 
ATOM     11  C   LIG    1       24.630 -29.705  14.095  0.00  0.00    -0.053 C 
ATOM     12  C   LIG    1       24.126 -28.963  15.113  0.00  0.00    +0.051 C 
ATOM     13  C   LIG    1       22.901 -28.195  14.674  0.00  0.00    +0.179 C 
ATOM     14  C   LIG    1       22.777 -27.870  13.223  0.00  0.00    +0.047 C 
ATOM     15  O   LIG    1       22.078 -27.795  15.490  0.00  0.00    -0.288 OA
ATOM     16  C   LIG    1       23.992 -31.070  13.966  0.00  0.00    +0.032 C 
ATOM     17  C   LIG    1       26.102 -27.930  13.075  0.00  0.00    +0.023 C 
ATOM     18  C   LIG    1       23.744 -28.209  12.351  0.00  0.00    -0.009 C 
ATOM     19  C   LIG    1       24.705 -31.963  12.976  0.00  0.00    +0.011 C 
ATOM     20  C   LIG    1       26.831 -32.720   8.585  0.00  0.00    +0.015 C 
ATOM     21  C   LIG    1       26.329 -30.392   9.247  0.00  0.00    +0.045 C 
ATOM     22  C   LIG    1       24.336 -33.481  10.243  0.00  0.00    +0.038 C 
ENDROOT
BRANCH   3  23
ATOM     23  O   LIG    1       23.661 -30.661   8.442  0.00  0.00    -0.376 OA
ATOM     24  H   LIG    1       22.831 -30.865   8.921  0.00  0.00    +0.211 HD
ENDBRANCH   3  23
BRANCH   3  25
ATOM     25  C   LIG    1       24.585 -32.207   6.853  0.00  0.00    +0.194 C 
ATOM     26  O   LIG    1       24.708 -33.382   6.477  0.00  0.00    -0.291 OA
BRANCH  25  27
ATOM     27  C   LIG    1       24.612 -31.070   5.841  0.00  0.00    +0.233 C 
BRANCH  27  28
ATOM     28  O   LIG    1       23.334 -30.454   5.752  0.00  0.00    -0.387 OA
ATOM     29  H   LIG    1       22.731 -30.987   6.307  0.00  0.00    +0.210 HD
ENDBRANCH  27  28
ENDBRANCH  25  27
ENDBRANCH   3  25
BRANCH   8  30
ATOM     30  O   LIG    1       26.463 -28.224  10.179  0.00  0.00    -0.389 OA
ATOM     31  H   LIG    1       25.865 -27.473  10.356  0.00  0.00    +0.210 HD
ENDBRANCH   8  30
TORSDOF 5
ENDMDL
MODEL 6
REMARK VINA RESULT:      -5.1      2.362      3.210
REMARK  Name = *****
REMARK                            x       y       z     vdW  Elec       q    Type
REMARK                         _______ _______ _______ _____ _____    ______ ____
ROOT
ATOM      1  C   LIG    1       24.080 -30.083   7.912  0.00  0.00    +0.011 C 
ATOM      2  C   LIG    1       24.212 -30.819   9.027  0.00  0.00    -0.037 C 
ATOM      3  C   LIG    1       25.338 -30.719  10.030  0.00  0.00    +0.152 C 
ATOM      4  C   LIG    1       24.864 -31.593  11.247  0.00  0.00    +0.013 C 
ATOM      5  C   LIG    1       23.319 -31.664  11.074  0.00  0.00    +0.009 C 
ATOM      6  C   LIG    1       22.506 -30.486  11.690  0.00  0.00    +0.034 C 
ATOM      7  C   LIG    1       22.933 -30.139  13.138  0.00  0.00    +0.153 C 
ATOM      8  C   LIG    1       24.459 -29.859  13.157  0.00  0.00    +0.154 C 
ATOM      9  F   LIG    1       22.753 -31.295  13.876  0.00  0.00    -0.238 F 
ATOM     10  C   LIG    1       22.020 -29.013  13.819  0.00  0.00    +0.044 C 
ATOM     11  C   LIG    1       20.505 -29.214  13.518  0.00  0.00    -0.053 C 
ATOM     12  C   LIG    1       19.623 -28.309  14.009  0.00  0.00    +0.051 C 
ATOM     13  C   LIG    1       19.976 -26.907  13.566  0.00  0.00    +0.179 C 
ATOM     14  C   LIG    1       21.404 -26.631  13.234  0.00  0.00    +0.047 C 
ATOM     15  O   LIG    1       19.133 -26.017  13.550  0.00  0.00    -0.288 OA
ATOM     16  C   LIG    1       20.154 -29.713  12.134  0.00  0.00    +0.032 C 
ATOM     17  C   LIG    1       22.217 -29.058  15.363  0.00  0.00    +0.023 C 
ATOM     18  C   LIG    1       22.344 -27.584  13.370  0.00  0.00    -0.009 C 
ATOM     19  C   LIG    1       21.016 -30.874  11.690  0.00  0.00    +0.011 C 
ATOM     20  C   LIG    1       25.422 -33.043  11.181  0.00  0.00    +0.015 C 
ATOM     21  C   LIG    1       25.272 -31.041  12.625  0.00  0.00    +0.045 C 
ATOM     22  C   LIG    1       23.147 -31.742   9.542  0.00  0.00    +0.038 C 
ENDROOT
BRANCH   3  23
ATOM     23  O   LIG    1       25.415 -29.341  10.405  0.00  0.00    -0.376 OA
ATOM     24  H   LIG    1       26.286 -29.022  10.091  0.00  0.00    +0.211 HD
ENDBRANCH   3  23
BRANCH   3  25
ATOM     25  C   LIG    1       26.723 -31.124   9.470  0.00  0.00    +0.194 C 
ATOM     26  O   LIG    1       27.748 -30.566   9.887  0.00  0.00    -0.291 OA
BRANCH  25  27
ATOM     27  C   LIG    1       26.821 -32.224   8.420  0.00  0.00    +0.233 C 
BRANCH  27  28
ATOM     28  O   LIG    1       27.030 -31.663   7.132  0.00  0.00    -0.387 OA
ATOM     29  H   LIG    1       26.240 -31.885   6.602  0.00  0.00    +0.210 HD
ENDBRANCH  27  28
ENDBRANCH  25  27
ENDBRANCH   3  25
BRANCH   8  30
ATOM     30  O   LIG    1       24.958 -29.600  14.472  0.00  0.00    -0.389 OA
ATOM     31  H   LIG    1       25.144 -30.465  14.884  0.00  0.00    +0.210 HD
ENDBRANCH   8  30
TORSDOF 5
ENDMDL
MODEL 7
REMARK VINA RESULT:      -5.1      3.432      6.459
REMARK  Name = *****
REMARK                            x       y       z     vdW  Elec       q    Type
REMARK                         _______ _______ _______ _____ _____    ______ ____
ROOT
ATOM      1  C   LIG    1       20.715 -26.693  12.874  0.00  0.00    +0.011 C 
ATOM      2  C   LIG    1       21.250 -27.799  13.414  0.00  0.00    -0.037 C 
ATOM      3  C   LIG    1       20.605 -29.164  13.466  0.00  0.00    +0.152 C 
ATOM      4  C   LIG    1       21.751 -30.126  13.948  0.00  0.00    +0.013 C 
ATOM      5  C   LIG    1       23.055 -29.350  13.606  0.00  0.00    +0.009 C 
ATOM      6  C   LIG    1       23.602 -29.532  12.158  0.00  0.00    +0.034 C 
ATOM      7  C   LIG    1       23.648 -31.012  11.703  0.00  0.00    +0.153 C 
ATOM      8  C   LIG    1       22.234 -31.631  11.868  0.00  0.00    +0.154 C 
ATOM      9  F   LIG    1       24.454 -31.668  12.616  0.00  0.00    -0.238 F 
ATOM     10  C   LIG    1       24.322 -31.216  10.265  0.00  0.00    +0.044 C 
ATOM     11  C   LIG    1       25.596 -30.341  10.076  0.00  0.00    -0.053 C 
ATOM     12  C   LIG    1       26.247 -30.393   8.888  0.00  0.00    +0.051 C 
ATOM     13  C   LIG    1       25.317 -30.066   7.742  0.00  0.00    +0.179 C 
ATOM     14  C   LIG    1       23.862 -30.324   7.943  0.00  0.00    +0.047 C 
ATOM     15  O   LIG    1       25.752 -29.671   6.666  0.00  0.00    -0.288 OA
ATOM     16  C   LIG    1       25.558 -28.957  10.686  0.00  0.00    +0.032 C 
ATOM     17  C   LIG    1       24.731 -32.709  10.097  0.00  0.00    +0.023 C 
ATOM     18  C   LIG    1       23.405 -30.870   9.085  0.00  0.00    -0.009 C 
ATOM     19  C   LIG    1       25.026 -28.951  12.102  0.00  0.00    +0.011 C 
ATOM     20  C   LIG    1       21.717 -30.358  15.485  0.00  0.00    +0.015 C 
ATOM     21  C   LIG    1       21.719 -31.525  13.306  0.00  0.00    +0.045 C 
ATOM     22  C   LIG    1       22.669 -27.884  13.895  0.00  0.00    +0.038 C 
ENDROOT
BRANCH   3  23
ATOM     23  O   LIG    1       20.223 -29.475  12.124  0.00  0.00    -0.376 OA
ATOM     24  H   LIG    1       19.649 -30.268  12.182  0.00  0.00    +0.211 HD
ENDBRANCH   3  23
BRANCH   3  25
ATOM     25  C   LIG    1       19.327 -29.228  14.338  0.00  0.00    +0.194 C 
ATOM     26  O   LIG    1       19.134 -28.376  15.218  0.00  0.00    -0.291 OA
BRANCH  25  27
ATOM     27  C   LIG    1       18.301 -30.327  14.096  0.00  0.00    +0.233 C 
BRANCH  27  28
ATOM     28  O   LIG    1       17.576 -30.074  12.900  0.00  0.00    -0.387 OA
ATOM     29  H   LIG    1       18.125 -30.412  12.166  0.00  0.00    +0.210 HD
ENDBRANCH  27  28
ENDBRANCH  25  27
ENDBRANCH   3  25
BRANCH   8  30
ATOM     30  O   LIG    1       22.196 -33.022  11.539  0.00  0.00    -0.389 OA
ATOM     31  H   LIG    1       21.494 -33.426  12.082  0.00  0.00    +0.210 HD
ENDBRANCH   8  30
TORSDOF 5
ENDMDL
MODEL 8
REMARK VINA RESULT:      -5.1      1.148      1.438
REMARK  Name = *****
REMARK                            x       y       z     vdW  Elec       q    Type
REMARK                         _______ _______ _______ _____ _____    ______ ____
ROOT
ATOM      1  C   LIG    1       24.861 -29.066   7.768  0.00  0.00    +0.011 C 
ATOM      2  C   LIG    1       24.614 -30.024   8.674  0.00  0.00    -0.037 C 
ATOM      3  C   LIG    1       25.639 -30.947   9.295  0.00  0.00    +0.152 C 
ATOM      4  C   LIG    1       24.869 -31.667  10.460  0.00  0.00    +0.013 C 
ATOM      5  C   LIG    1       23.669 -30.721  10.753  0.00  0.00    +0.009 C 
ATOM      6  C   LIG    1       23.943 -29.553  11.747  0.00  0.00    +0.034 C 
ATOM      7  C   LIG    1       24.679 -30.003  13.033  0.00  0.00    +0.153 C 
ATOM      8  C   LIG    1       25.986 -30.738  12.630  0.00  0.00    +0.154 C 
ATOM      9  F   LIG    1       23.874 -30.963  13.618  0.00  0.00    -0.238 F 
ATOM     10  C   LIG    1       24.854 -28.832  14.110  0.00  0.00    +0.044 C 
ATOM     11  C   LIG    1       23.572 -27.960  14.255  0.00  0.00    -0.053 C 
ATOM     12  C   LIG    1       23.597 -26.910  15.112  0.00  0.00    +0.051 C 
ATOM     13  C   LIG    1       24.733 -25.968  14.788  0.00  0.00    +0.179 C 
ATOM     14  C   LIG    1       25.919 -26.537  14.084  0.00  0.00    +0.047 C 
ATOM     15  O   LIG    1       24.710 -24.797  15.153  0.00  0.00    -0.288 OA
ATOM     16  C   LIG    1       22.798 -27.687  12.984  0.00  0.00    +0.032 C 
ATOM     17  C   LIG    1       25.174 -29.457  15.500  0.00  0.00    +0.023 C 
ATOM     18  C   LIG    1       25.988 -27.849  13.792  0.00  0.00    -0.009 C 
ATOM     19  C   LIG    1       22.594 -28.925  12.141  0.00  0.00    +0.011 C 
ATOM     20  C   LIG    1       24.300 -33.047  10.024  0.00  0.00    +0.015 C 
ATOM     21  C   LIG    1       25.720 -31.935  11.715  0.00  0.00    +0.045 C 
ATOM     22  C   LIG    1       23.286 -30.206   9.350  0.00  0.00    +0.038 C 
ENDROOT
BRANCH   3  23
ATOM     23  O   LIG    1       26.666 -30.103   9.822  0.00  0.00    -0.376 OA
ATOM     24  H   LIG    1       27.042 -29.623   9.055  0.00  0.00    +0.211 HD
ENDBRANCH   3  23
BRANCH   3  25
ATOM     25  C   LIG    1       26.307 -31.918   8.291  0.00  0.00    +0.194 C 
ATOM     26  O   LIG    1       27.334 -32.533   8.614  0.00  0.00    -0.291 OA
BRANCH  25  27
ATOM     27  C   LIG    1       25.686 -32.129   6.917  0.00  0.00    +0.233 C 
BRANCH  27  28
ATOM     28  O   LIG    1       26.487 -31.523   5.912  0.00  0.00    -0.387 OA
ATOM     29  H   LIG    1       26.181 -30.598   5.835  0.00  0.00    +0.210 HD
ENDBRANCH  27  28
ENDBRANCH  25  27
ENDBRANCH   3  25
BRANCH   8  30
ATOM     30  O   LIG    1       26.700 -31.255  13.756  0.00  0.00    -0.389 OA
ATOM     31  H   LIG    1       27.568 -31.558  13.431  0.00  0.00    +0.210 HD
ENDBRANCH   8  30
TORSDOF 5
ENDMDL
MODEL 9
REMARK VINA RESULT:      -4.7      3.177      7.054
REMARK  Name = *****
REMARK                            x       y       z     vdW  Elec       q    Type
REMARK                         _______ _______ _______ _____ _____    ______ ____
ROOT
ATOM      1  C   LIG    1       23.337 -26.132  14.185  0.00  0.00    +0.011 C 
ATOM      2  C   LIG    1       22.630 -27.263  14.336  0.00  0.00    -0.037 C 
ATOM      3  C   LIG    1       21.248 -27.527  13.785  0.00  0.00    +0.152 C 
ATOM      4  C   LIG    1       21.016 -29.064  14.018  0.00  0.00    +0.013 C 
ATOM      5  C   LIG    1       22.454 -29.638  14.170  0.00  0.00    +0.009 C 
ATOM      6  C   LIG    1       23.184 -30.017  12.847  0.00  0.00    +0.034 C 
ATOM      7  C   LIG    1       22.305 -30.849  11.879  0.00  0.00    +0.153 C 
ATOM      8  C   LIG    1       20.987 -30.075  11.610  0.00  0.00    +0.154 C 
ATOM      9  F   LIG    1       21.938 -31.985  12.577  0.00  0.00    -0.238 F 
ATOM     10  C   LIG    1       23.089 -31.344  10.573  0.00  0.00    +0.044 C 
ATOM     11  C   LIG    1       24.523 -31.855  10.899  0.00  0.00    -0.053 C 
ATOM     12  C   LIG    1       25.308 -32.274   9.876  0.00  0.00    +0.051 C 
ATOM     13  C   LIG    1       25.454 -31.198   8.824  0.00  0.00    +0.179 C 
ATOM     14  C   LIG    1       24.361 -30.189   8.718  0.00  0.00    +0.047 C 
ATOM     15  O   LIG    1       26.399 -31.199   8.043  0.00  0.00    -0.288 OA
ATOM     16  C   LIG    1       25.278 -31.102  11.973  0.00  0.00    +0.032 C 
ATOM     17  C   LIG    1       22.297 -32.512   9.914  0.00  0.00    +0.023 C 
ATOM     18  C   LIG    1       23.268 -30.265   9.499  0.00  0.00    -0.009 C 
ATOM     19  C   LIG    1       24.440 -30.833  13.203  0.00  0.00    +0.011 C 
ATOM     20  C   LIG    1       20.242 -29.349  15.337  0.00  0.00    +0.015 C 
ATOM     21  C   LIG    1       20.223 -29.765  12.900  0.00  0.00    +0.045 C 
ATOM     22  C   LIG    1       23.192 -28.519  14.934  0.00  0.00    +0.038 C 
ENDROOT
BRANCH   3  23
ATOM     23  O   LIG    1       21.315 -27.239  12.387  0.00  0.00    -0.376 OA
ATOM     24  H   LIG    1       20.593 -27.754  11.969  0.00  0.00    +0.211 HD
ENDBRANCH   3  23
BRANCH   3  25
ATOM     25  C   LIG    1       20.142 -26.629  14.391  0.00  0.00    +0.194 C 
ATOM     26  O   LIG    1       20.311 -26.100  15.500  0.00  0.00    -0.291 OA
BRANCH  25  27
ATOM     27  C   LIG    1       18.858 -26.381  13.610  0.00  0.00    +0.233 C 
BRANCH  27  28
ATOM     28  O   LIG    1       17.849 -27.298  14.012  0.00  0.00    -0.387 OA
ATOM     29  H   LIG    1       18.092 -28.162  13.626  0.00  0.00    +0.210 HD
ENDBRANCH  27  28
ENDBRANCH  25  27
ENDBRANCH   3  25
BRANCH   8  30
ATOM     30  O   LIG    1       20.077 -30.803  10.781  0.00  0.00    -0.389 OA
ATOM     31  H   LIG    1       20.604 -31.212  10.068  0.00  0.00    +0.210 HD
ENDBRANCH   8  30
TORSDOF 5
ENDMDL
