MODEL 1
REMARK VINA RESULT:       3.1      0.000      0.000
REMARK  Name = *****
REMARK                            x       y       z     vdW  Elec       q    Type
REMARK                         _______ _______ _______ _____ _____    ______ ____
ROOT
ATOM      1  C   LIG    1       25.154 -19.018   4.028  0.00  0.00    -0.007 A 
ATOM      2  C   LIG    1       24.807 -19.537   5.268  0.00  0.00    +0.122 A 
ATOM      3  N   LIG    1       23.774 -20.393   5.467  0.00  0.00    -0.221 NA
ATOM      4  C   LIG    1       23.070 -20.757   4.377  0.00  0.00    +0.215 A 
ATOM      5  C   LIG    1       23.411 -20.377   3.091  0.00  0.00    +0.068 A 
ATOM      6  C   LIG    1       24.452 -19.479   2.919  0.00  0.00    +0.015 A 
ENDROOT
BRANCH   1   8
ATOM      7  C   LIG    1       25.832 -16.750   3.419  0.00  0.00    +0.008 C 
ATOM      8  C   LIG    1       26.158 -17.976   3.851  0.00  0.00    +0.010 C 
BRANCH   7  12
ATOM      9  C   LIG    1       28.358 -13.255   3.393  0.00  0.00    +0.027 A 
ATOM     10  C   LIG    1       27.126 -13.292   2.736  0.00  0.00    +0.023 A 
ATOM     11  C   LIG    1       26.335 -14.445   2.740  0.00  0.00    +0.009 A 
ATOM     12  C   LIG    1       26.737 -15.591   3.432  0.00  0.00    -0.025 A 
ATOM     13  C   LIG    1       27.951 -15.553   4.124  0.00  0.00    +0.009 A 
ATOM     14  C   LIG    1       28.738 -14.392   4.117  0.00  0.00    +0.023 A 
BRANCH   9  16
ATOM     15  C   LIG    1       29.269 -11.450   4.771  0.00  0.00    +0.125 C 
ATOM     16  N   LIG    1       29.148 -12.102   3.477  0.00  0.00    -0.347 N 
ATOM     17  H   LIG    1       28.938 -11.446   2.730  0.00  0.00    +0.146 HD
ENDBRANCH   9  16
ENDBRANCH   7  12
ENDBRANCH   1   8
BRANCH   4  18
ATOM     18  O   LIG    1       21.998 -21.572   4.615  0.00  0.00    -0.474 OA
BRANCH  18  19
ATOM     19  C   LIG    1       20.751 -20.861   4.682  0.00  0.00    +0.259 C 
BRANCH  19  20
ATOM     20  C   LIG    1       20.359 -20.212   3.343  0.00  0.00    +0.201 C 
BRANCH  20  21
ATOM     21  O   LIG    1       19.640 -18.980   3.462  0.00  0.00    -0.374 OA
BRANCH  21  22
ATOM     22  C   LIG    1       20.453 -17.820   3.245  0.00  0.00    +0.188 C 
BRANCH  22  23
ATOM     23  C   LIG    1       21.552 -17.741   4.297  0.00  0.00    +0.188 C 
BRANCH  23  24
ATOM     24  O   LIG    1       22.564 -16.806   3.911  0.00  0.00    -0.375 OA
BRANCH  24  25
ATOM     25  C   LIG    1       22.740 -15.808   4.919  0.00  0.00    +0.193 C 
BRANCH  25  26
ATOM     26  C   LIG    1       23.306 -14.535   4.313  0.00  0.00    +0.241 C 
ATOM     27  F   LIG    1       24.134 -13.932   5.212  0.00  0.00    -0.247 F 
ENDBRANCH  25  26
ENDBRANCH  24  25
ENDBRANCH  23  24
ENDBRANCH  22  23
ENDBRANCH  21  22
ENDBRANCH  20  21
ENDBRANCH  19  20
ENDBRANCH  18  19
ENDBRANCH   4  18
TORSDOF 12
ENDMDL
MODEL 2
REMARK VINA RESULT:       3.8      3.053      7.827
REMARK  Name = *****
REMARK                            x       y       z     vdW  Elec       q    Type
REMARK                         _______ _______ _______ _____ _____    ______ ____
ROOT
ATOM      1  C   LIG    1       26.787 -16.037   3.212  0.00  0.00    -0.007 A 
ATOM      2  C   LIG    1       26.748 -15.024   2.264  0.00  0.00    +0.122 A 
ATOM      3  N   LIG    1       27.479 -13.884   2.347  0.00  0.00    -0.221 NA
ATOM      4  C   LIG    1       28.294 -13.762   3.414  0.00  0.00    +0.215 A 
ATOM      5  C   LIG    1       28.477 -14.766   4.348  0.00  0.00    +0.068 A 
ATOM      6  C   LIG    1       27.697 -15.908   4.256  0.00  0.00    +0.015 A 
ENDROOT
BRANCH   1   8
ATOM      7  C   LIG    1       25.332 -17.657   4.324  0.00  0.00    +0.008 C 
ATOM      8  C   LIG    1       25.880 -17.178   3.198  0.00  0.00    +0.010 C 
BRANCH   7  12
ATOM      9  C   LIG    1       22.236 -20.648   4.568  0.00  0.00    +0.027 A 
ATOM     10  C   LIG    1       23.526 -20.865   5.058  0.00  0.00    +0.023 A 
ATOM     11  C   LIG    1       24.519 -19.887   4.948  0.00  0.00    +0.009 A 
ATOM     12  C   LIG    1       24.244 -18.644   4.371  0.00  0.00    -0.025 A 
ATOM     13  C   LIG    1       22.946 -18.402   3.909  0.00  0.00    +0.009 A 
ATOM     14  C   LIG    1       21.955 -19.387   4.026  0.00  0.00    +0.023 A 
BRANCH   9  16
ATOM     15  C   LIG    1       19.837 -21.119   4.440  0.00  0.00    +0.125 C 
ATOM     16  N   LIG    1       21.191 -21.568   4.722  0.00  0.00    -0.347 N 
ATOM     17  H   LIG    1       21.258 -22.069   5.604  0.00  0.00    +0.146 HD
ENDBRANCH   9  16
ENDBRANCH   7  12
ENDBRANCH   1   8
BRANCH   4  18
ATOM     18  O   LIG    1       28.972 -12.578   3.503  0.00  0.00    -0.474 OA
BRANCH  18  19
ATOM     19  C   LIG    1       29.159 -12.133   4.856  0.00  0.00    +0.259 C 
BRANCH  19  20
ATOM     20  C   LIG    1       27.879 -12.238   5.704  0.00  0.00    +0.201 C 
BRANCH  20  21
ATOM     21  O   LIG    1       26.688 -11.793   5.048  0.00  0.00    -0.374 OA
BRANCH  21  22
ATOM     22  C   LIG    1       25.532 -12.579   5.363  0.00  0.00    +0.188 C 
BRANCH  22  23
ATOM     23  C   LIG    1       24.300 -11.689   5.467  0.00  0.00    +0.188 C 
BRANCH  23  24
ATOM     24  O   LIG    1       23.517 -11.756   4.272  0.00  0.00    -0.375 OA
BRANCH  24  25
ATOM     25  C   LIG    1       23.957 -12.832   3.439  0.00  0.00    +0.193 C 
BRANCH  25  26
ATOM     26  C   LIG    1       23.120 -14.074   3.690  0.00  0.00    +0.241 C 
ATOM     27  F   LIG    1       23.937 -15.119   4.002  0.00  0.00    -0.247 F 
ENDBRANCH  25  26
ENDBRANCH  24  25
ENDBRANCH  23  24
ENDBRANCH  22  23
ENDBRANCH  21  22
ENDBRANCH  20  21
ENDBRANCH  19  20
ENDBRANCH  18  19
ENDBRANCH   4  18
TORSDOF 12
ENDMDL
MODEL 3
REMARK VINA RESULT:       5.8      3.426      5.110
REMARK  Name = *****
REMARK                            x       y       z     vdW  Elec       q    Type
REMARK                         _______ _______ _______ _____ _____    ______ ____
ROOT
ATOM      1  C   LIG    1       28.468 -17.189   5.033  0.00  0.00    -0.007 A 
ATOM      2  C   LIG    1       28.777 -17.224   6.386  0.00  0.00    +0.122 A 
ATOM      3  N   LIG    1       29.110 -18.356   7.055  0.00  0.00    -0.221 NA
ATOM      4  C   LIG    1       29.151 -19.495   6.336  0.00  0.00    +0.215 A 
ATOM      5  C   LIG    1       28.965 -19.535   4.966  0.00  0.00    +0.068 A 
ATOM      6  C   LIG    1       28.597 -18.370   4.312  0.00  0.00    +0.015 A 
ENDROOT
BRANCH   1   8
ATOM      7  C   LIG    1       26.762 -15.998   3.748  0.00  0.00    +0.008 C 
ATOM      8  C   LIG    1       27.953 -16.000   4.363  0.00  0.00    +0.010 C 
BRANCH   7  12
ATOM      9  C   LIG    1       24.635 -12.567   2.234  0.00  0.00    +0.027 A 
ATOM     10  C   LIG    1       24.307 -13.873   1.863  0.00  0.00    +0.023 A 
ATOM     11  C   LIG    1       25.026 -14.968   2.351  0.00  0.00    +0.009 A 
ATOM     12  C   LIG    1       26.079 -14.794   3.254  0.00  0.00    -0.025 A 
ATOM     13  C   LIG    1       26.392 -13.493   3.660  0.00  0.00    +0.009 A 
ATOM     14  C   LIG    1       25.664 -12.399   3.169  0.00  0.00    +0.023 A 
BRANCH   9  16
ATOM     15  C   LIG    1       22.458 -11.464   2.038  0.00  0.00    +0.125 C 
ATOM     16  N   LIG    1       23.897 -11.447   1.830  0.00  0.00    -0.347 N 
ATOM     17  H   LIG    1       24.150 -11.148   0.892  0.00  0.00    +0.146 HD
ENDBRANCH   9  16
ENDBRANCH   7  12
ENDBRANCH   1   8
BRANCH   4  18
ATOM     18  O   LIG    1       29.430 -20.629   7.049  0.00  0.00    -0.474 OA
BRANCH  18  19
ATOM     19  C   LIG    1       28.345 -21.571   7.061  0.00  0.00    +0.259 C 
BRANCH  19  20
ATOM     20  C   LIG    1       27.398 -21.409   5.859  0.00  0.00    +0.201 C 
BRANCH  20  21
ATOM     21  O   LIG    1       26.005 -21.426   6.186  0.00  0.00    -0.374 OA
BRANCH  21  22
ATOM     22  C   LIG    1       25.148 -21.238   5.053  0.00  0.00    +0.188 C 
BRANCH  22  23
ATOM     23  C   LIG    1       25.431 -19.892   4.396  0.00  0.00    +0.188 C 
BRANCH  23  24
ATOM     24  O   LIG    1       24.348 -19.500   3.547  0.00  0.00    -0.375 OA
BRANCH  24  25
ATOM     25  C   LIG    1       23.091 -19.756   4.179  0.00  0.00    +0.193 C 
BRANCH  25  26
ATOM     26  C   LIG    1       22.458 -18.458   4.648  0.00  0.00    +0.241 C 
ATOM     27  F   LIG    1       21.255 -18.290   4.031  0.00  0.00    -0.247 F 
ENDBRANCH  25  26
ENDBRANCH  24  25
ENDBRANCH  23  24
ENDBRANCH  22  23
ENDBRANCH  21  22
ENDBRANCH  20  21
ENDBRANCH  19  20
ENDBRANCH  18  19
ENDBRANCH   4  18
TORSDOF 12
ENDMDL
