MODEL 1
REMARK VINA RESULT:      -7.4      0.000      0.000
REMARK  Name = *****
REMARK                            x       y       z     vdW  Elec       q    Type
REMARK                         _______ _______ _______ _____ _____    ______ ____
ROOT
ATOM      1  C   LIG    1       26.018 -22.602   6.759  0.00  0.00    +0.243 C 
ATOM      2  N   LIG    1       26.011 -21.248   6.399  0.00  0.00    -0.268 N 
ATOM      3  O   LIG    1       26.771 -23.073   7.601  0.00  0.00    -0.270 OA
ENDROOT
BRANCH   2   4
ATOM      4  C   LIG    1       24.967 -20.634   5.644  0.00  0.00    +0.039 A 
ATOM      5  C   LIG    1       23.679 -20.445   6.185  0.00  0.00    -0.029 A 
ATOM      6  C   LIG    1       23.308 -20.838   7.589  0.00  0.00    +0.045 C 
ATOM      7  C   LIG    1       22.692 -19.826   5.396  0.00  0.00    +0.005 A 
ATOM      8  C   LIG    1       22.976 -19.376   4.109  0.00  0.00    +0.000 A 
ATOM      9  C   LIG    1       24.249 -19.552   3.582  0.00  0.00    +0.002 A 
ATOM     10  C   LIG    1       25.239 -20.180   4.342  0.00  0.00    +0.024 A 
ENDBRANCH   2   4
BRANCH   1  13
ATOM     11  C   LIG    1       24.096 -25.761   5.656  0.00  0.00    +0.035 C 
ATOM     12  C   LIG    1       25.011 -24.801   6.337  0.00  0.00    -0.025 C 
ATOM     13  C   LIG    1       25.089 -23.503   6.009  0.00  0.00    +0.063 C 
ENDBRANCH   1  13
BRANCH   2  14
ATOM     14  C   LIG    1       26.927 -20.362   7.128  0.00  0.00    +0.111 C 
ATOM     15  C   LIG    1       28.237 -20.089   6.394  0.00  0.00    +0.025 C 
ENDBRANCH   2  14
TORSDOF 3
ENDMDL
MODEL 2
REMARK VINA RESULT:      -7.0      1.980      4.860
REMARK  Name = *****
REMARK                            x       y       z     vdW  Elec       q    Type
REMARK                         _______ _______ _______ _____ _____    ______ ____
ROOT
ATOM      1  C   LIG    1       22.700 -21.401   5.738  0.00  0.00    +0.243 C 
ATOM      2  N   LIG    1       23.878 -22.083   6.068  0.00  0.00    -0.268 N 
ATOM      3  O   LIG    1       21.658 -21.963   5.429  0.00  0.00    -0.270 OA
ENDROOT
BRANCH   2   4
ATOM      4  C   LIG    1       25.001 -21.466   6.699  0.00  0.00    +0.039 A 
ATOM      5  C   LIG    1       25.947 -20.728   5.960  0.00  0.00    -0.029 A 
ATOM      6  C   LIG    1       25.844 -20.503   4.476  0.00  0.00    +0.045 C 
ATOM      7  C   LIG    1       27.030 -20.136   6.637  0.00  0.00    +0.005 A 
ATOM      8  C   LIG    1       27.162 -20.246   8.019  0.00  0.00    +0.000 A 
ATOM      9  C   LIG    1       26.221 -20.963   8.748  0.00  0.00    +0.002 A 
ATOM     10  C   LIG    1       25.149 -21.573   8.093  0.00  0.00    +0.024 A 
ENDBRANCH   2   4
BRANCH   1  13
ATOM     11  C   LIG    1       22.289 -17.751   4.554  0.00  0.00    +0.035 C 
ATOM     12  C   LIG    1       22.277 -19.239   4.654  0.00  0.00    -0.025 C 
ATOM     13  C   LIG    1       22.773 -19.907   5.706  0.00  0.00    +0.063 C 
ENDBRANCH   1  13
BRANCH   2  14
ATOM     14  C   LIG    1       23.813 -23.548   6.093  0.00  0.00    +0.111 C 
ATOM     15  C   LIG    1       25.034 -24.233   5.485  0.00  0.00    +0.025 C 
ENDBRANCH   2  14
TORSDOF 3
ENDMDL
MODEL 3
REMARK VINA RESULT:      -6.9      1.654      3.390
REMARK  Name = *****
REMARK                            x       y       z     vdW  Elec       q    Type
REMARK                         _______ _______ _______ _____ _____    ______ ____
ROOT
ATOM      1  C   LIG    1       23.740 -22.652   6.634  0.00  0.00    +0.243 C 
ATOM      2  N   LIG    1       24.078 -21.296   6.713  0.00  0.00    -0.268 N 
ATOM      3  O   LIG    1       22.594 -23.056   6.484  0.00  0.00    -0.270 OA
ENDROOT
BRANCH   2   4
ATOM      4  C   LIG    1       25.414 -20.804   6.600  0.00  0.00    +0.039 A 
ATOM      5  C   LIG    1       26.236 -20.637   7.733  0.00  0.00    -0.029 A 
ATOM      6  C   LIG    1       25.798 -20.984   9.130  0.00  0.00    +0.045 C 
ATOM      7  C   LIG    1       27.547 -20.155   7.561  0.00  0.00    +0.005 A 
ATOM      8  C   LIG    1       28.048 -19.871   6.292  0.00  0.00    +0.000 A 
ATOM      9  C   LIG    1       27.241 -20.048   5.175  0.00  0.00    +0.002 A 
ATOM     10  C   LIG    1       25.931 -20.508   5.327  0.00  0.00    +0.024 A 
ENDBRANCH   2   4
BRANCH   1  13
ATOM     11  C   LIG    1       25.724 -25.963   6.619  0.00  0.00    +0.035 C 
ATOM     12  C   LIG    1       24.661 -24.924   6.492  0.00  0.00    -0.025 C 
ATOM     13  C   LIG    1       24.853 -23.636   6.813  0.00  0.00    +0.063 C 
ENDBRANCH   1  13
BRANCH   2  14
ATOM     14  C   LIG    1       22.988 -20.328   6.545  0.00  0.00    +0.111 C 
ATOM     15  C   LIG    1       22.632 -20.045   5.088  0.00  0.00    +0.025 C 
ENDBRANCH   2  14
TORSDOF 3
ENDMDL
MODEL 4
REMARK VINA RESULT:      -6.9      1.491      3.682
REMARK  Name = *****
REMARK                            x       y       z     vdW  Elec       q    Type
REMARK                         _______ _______ _______ _____ _____    ______ ____
ROOT
ATOM      1  C   LIG    1       24.267 -22.837   6.697  0.00  0.00    +0.243 C 
ATOM      2  N   LIG    1       24.579 -21.518   7.051  0.00  0.00    -0.268 N 
ATOM      3  O   LIG    1       23.122 -23.254   6.586  0.00  0.00    -0.270 OA
ENDROOT
BRANCH   2   4
ATOM      4  C   LIG    1       25.879 -20.946   6.908  0.00  0.00    +0.039 A 
ATOM      5  C   LIG    1       26.332 -20.447   5.670  0.00  0.00    -0.029 A 
ATOM      6  C   LIG    1       25.492 -20.446   4.422  0.00  0.00    +0.045 C 
ATOM      7  C   LIG    1       27.621 -19.886   5.590  0.00  0.00    +0.005 A 
ATOM      8  C   LIG    1       28.436 -19.793   6.716  0.00  0.00    +0.000 A 
ATOM      9  C   LIG    1       27.983 -20.273   7.938  0.00  0.00    +0.002 A 
ATOM     10  C   LIG    1       26.714 -20.849   8.035  0.00  0.00    +0.024 A 
ENDBRANCH   2   4
BRANCH   1  13
ATOM     11  C   LIG    1       26.279 -26.097   6.229  0.00  0.00    +0.035 C 
ATOM     12  C   LIG    1       25.192 -25.096   6.432  0.00  0.00    -0.025 C 
ATOM     13  C   LIG    1       25.417 -23.776   6.517  0.00  0.00    +0.063 C 
ENDBRANCH   1  13
BRANCH   2  14
ATOM     14  C   LIG    1       23.453 -20.596   7.237  0.00  0.00    +0.111 C 
ATOM     15  C   LIG    1       22.799 -20.148   5.932  0.00  0.00    +0.025 C 
ENDBRANCH   2  14
TORSDOF 3
ENDMDL
MODEL 5
REMARK VINA RESULT:      -6.9      1.738      4.325
REMARK  Name = *****
REMARK                            x       y       z     vdW  Elec       q    Type
REMARK                         _______ _______ _______ _____ _____    ______ ____
ROOT
ATOM      1  C   LIG    1       23.248 -21.783   6.318  0.00  0.00    +0.243 C 
ATOM      2  N   LIG    1       24.570 -22.246   6.303  0.00  0.00    -0.268 N 
ATOM      3  O   LIG    1       22.277 -22.516   6.449  0.00  0.00    -0.270 OA
ENDROOT
BRANCH   2   4
ATOM      4  C   LIG    1       25.709 -21.397   6.437  0.00  0.00    +0.039 A 
ATOM      5  C   LIG    1       26.317 -21.171   7.689  0.00  0.00    -0.029 A 
ATOM      6  C   LIG    1       25.847 -21.818   8.963  0.00  0.00    +0.045 C 
ATOM      7  C   LIG    1       27.443 -20.330   7.760  0.00  0.00    +0.005 A 
ATOM      8  C   LIG    1       27.977 -19.744   6.614  0.00  0.00    +0.000 A 
ATOM      9  C   LIG    1       27.385 -19.978   5.379  0.00  0.00    +0.002 A 
ATOM     10  C   LIG    1       26.256 -20.795   5.290  0.00  0.00    +0.024 A 
ENDBRANCH   2   4
BRANCH   1  13
ATOM     11  C   LIG    1       22.272 -18.450   4.635  0.00  0.00    +0.035 C 
ATOM     12  C   LIG    1       22.528 -19.889   4.931  0.00  0.00    -0.025 C 
ATOM     13  C   LIG    1       23.045 -20.319   6.092  0.00  0.00    +0.063 C 
ENDBRANCH   1  13
BRANCH   2  14
ATOM     14  C   LIG    1       24.773 -23.684   6.516  0.00  0.00    +0.111 C 
ATOM     15  C   LIG    1       25.069 -24.464   5.237  0.00  0.00    +0.025 C 
ENDBRANCH   2  14
TORSDOF 3
ENDMDL
MODEL 6
REMARK VINA RESULT:      -6.8      0.872      3.493
REMARK  Name = *****
REMARK                            x       y       z     vdW  Elec       q    Type
REMARK                         _______ _______ _______ _____ _____    ______ ____
ROOT
ATOM      1  C   LIG    1       27.205 -21.380   6.850  0.00  0.00    +0.243 C 
ATOM      2  N   LIG    1       25.871 -21.715   6.586  0.00  0.00    -0.268 N 
ATOM      3  O   LIG    1       28.006 -22.150   7.363  0.00  0.00    -0.270 OA
ENDROOT
BRANCH   2   4
ATOM      4  C   LIG    1       25.013 -20.946   5.743  0.00  0.00    +0.039 A 
ATOM      5  C   LIG    1       23.733 -20.537   6.169  0.00  0.00    -0.029 A 
ATOM      6  C   LIG    1       23.181 -20.843   7.535  0.00  0.00    +0.045 C 
ATOM      7  C   LIG    1       22.934 -19.775   5.297  0.00  0.00    +0.005 A 
ATOM      8  C   LIG    1       23.400 -19.397   4.039  0.00  0.00    +0.000 A 
ATOM      9  C   LIG    1       24.666 -19.790   3.625  0.00  0.00    +0.002 A 
ATOM     10  C   LIG    1       25.468 -20.562   4.469  0.00  0.00    +0.024 A 
ENDBRANCH   2   4
BRANCH   1  13
ATOM     11  C   LIG    1       29.345 -18.374   5.720  0.00  0.00    +0.035 C 
ATOM     12  C   LIG    1       28.858 -19.738   6.076  0.00  0.00    -0.025 C 
ATOM     13  C   LIG    1       27.622 -19.978   6.539  0.00  0.00    +0.063 C 
ENDBRANCH   1  13
BRANCH   2  14
ATOM     14  C   LIG    1       25.456 -23.087   6.897  0.00  0.00    +0.111 C 
ATOM     15  C   LIG    1       25.079 -23.913   5.669  0.00  0.00    +0.025 C 
ENDBRANCH   2  14
TORSDOF 3
ENDMDL
MODEL 7
REMARK VINA RESULT:      -6.8      1.548      3.887
REMARK  Name = *****
REMARK                            x       y       z     vdW  Elec       q    Type
REMARK                         _______ _______ _______ _____ _____    ______ ____
ROOT
ATOM      1  C   LIG    1       26.380 -20.520   5.484  0.00  0.00    +0.243 C 
ATOM      2  N   LIG    1       26.125 -21.336   6.593  0.00  0.00    -0.268 N 
ATOM      3  O   LIG    1       27.354 -19.784   5.396  0.00  0.00    -0.270 OA
ENDROOT
BRANCH   2   4
ATOM      4  C   LIG    1       25.168 -22.395   6.595  0.00  0.00    +0.039 A 
ATOM      5  C   LIG    1       23.820 -22.170   6.938  0.00  0.00    -0.029 A 
ATOM      6  C   LIG    1       23.274 -20.815   7.296  0.00  0.00    +0.045 C 
ATOM      7  C   LIG    1       22.920 -23.252   6.915  0.00  0.00    +0.005 A 
ATOM      8  C   LIG    1       23.335 -24.526   6.533  0.00  0.00    +0.000 A 
ATOM      9  C   LIG    1       24.661 -24.743   6.182  0.00  0.00    +0.002 A 
ATOM     10  C   LIG    1       25.574 -23.687   6.216  0.00  0.00    +0.024 A 
ENDBRANCH   2   4
BRANCH   1  13
ATOM     11  C   LIG    1       23.472 -19.399   3.208  0.00  0.00    +0.035 C 
ATOM     12  C   LIG    1       24.508 -19.486   4.277  0.00  0.00    -0.025 C 
ATOM     13  C   LIG    1       25.353 -20.521   4.397  0.00  0.00    +0.063 C 
ENDBRANCH   1  13
BRANCH   2  14
ATOM     14  C   LIG    1       27.127 -21.331   7.666  0.00  0.00    +0.111 C 
ATOM     15  C   LIG    1       26.806 -20.370   8.808  0.00  0.00    +0.025 C 
ENDBRANCH   2  14
TORSDOF 3
ENDMDL
MODEL 8
REMARK VINA RESULT:      -6.8      0.970      3.318
REMARK  Name = *****
REMARK                            x       y       z     vdW  Elec       q    Type
REMARK                         _______ _______ _______ _____ _____    ______ ____
ROOT
ATOM      1  C   LIG    1       26.175 -22.423   6.704  0.00  0.00    +0.243 C 
ATOM      2  N   LIG    1       24.947 -22.471   6.033  0.00  0.00    -0.268 N 
ATOM      3  O   LIG    1       26.796 -23.419   7.049  0.00  0.00    -0.270 OA
ENDROOT
BRANCH   2   4
ATOM      4  C   LIG    1       24.356 -21.348   5.379  0.00  0.00    +0.039 A 
ATOM      5  C   LIG    1       23.424 -20.519   6.036  0.00  0.00    -0.029 A 
ATOM      6  C   LIG    1       23.003 -20.721   7.466  0.00  0.00    +0.045 C 
ATOM      7  C   LIG    1       22.880 -19.421   5.343  0.00  0.00    +0.005 A 
ATOM      8  C   LIG    1       23.268 -19.130   4.037  0.00  0.00    +0.000 A 
ATOM      9  C   LIG    1       24.196 -19.941   3.396  0.00  0.00    +0.002 A 
ATOM     10  C   LIG    1       24.734 -21.046   4.059  0.00  0.00    +0.024 A 
ENDBRANCH   2   4
BRANCH   1  13
ATOM     11  C   LIG    1       28.602 -19.577   7.654  0.00  0.00    +0.035 C 
ATOM     12  C   LIG    1       28.001 -20.898   7.313  0.00  0.00    -0.025 C 
ATOM     13  C   LIG    1       26.693 -21.066   7.063  0.00  0.00    +0.063 C 
ENDBRANCH   1  13
BRANCH   2  14
ATOM     14  C   LIG    1       24.431 -23.801   5.686  0.00  0.00    +0.111 C 
ATOM     15  C   LIG    1       23.376 -24.327   6.657  0.00  0.00    +0.025 C 
ENDBRANCH   2  14
TORSDOF 3
ENDMDL
MODEL 9
REMARK VINA RESULT:      -6.6      1.841      3.544
REMARK  Name = *****
REMARK                            x       y       z     vdW  Elec       q    Type
REMARK                         _______ _______ _______ _____ _____    ______ ____
ROOT
ATOM      1  C   LIG    1       24.379 -21.962   4.378  0.00  0.00    +0.243 C 
ATOM      2  N   LIG    1       24.532 -20.774   5.103  0.00  0.00    -0.268 N 
ATOM      3  O   LIG    1       23.801 -22.028   3.302  0.00  0.00    -0.270 OA
ENDROOT
BRANCH   2   4
ATOM      4  C   LIG    1       25.435 -20.624   6.198  0.00  0.00    +0.039 A 
ATOM      5  C   LIG    1       25.005 -20.765   7.533  0.00  0.00    -0.029 A 
ATOM      6  C   LIG    1       23.591 -21.110   7.913  0.00  0.00    +0.045 C 
ATOM      7  C   LIG    1       25.942 -20.614   8.572  0.00  0.00    +0.005 A 
ATOM      8  C   LIG    1       27.284 -20.357   8.299  0.00  0.00    +0.000 A 
ATOM      9  C   LIG    1       27.709 -20.231   6.983  0.00  0.00    +0.002 A 
ATOM     10  C   LIG    1       26.791 -20.360   5.938  0.00  0.00    +0.024 A 
ENDBRANCH   2   4
BRANCH   1  13
ATOM     11  C   LIG    1       24.546 -25.210   6.455  0.00  0.00    +0.035 C 
ATOM     12  C   LIG    1       24.107 -23.943   5.804  0.00  0.00    -0.025 C 
ATOM     13  C   LIG    1       24.905 -23.211   5.012  0.00  0.00    +0.063 C 
ENDBRANCH   1  13
BRANCH   2  14
ATOM     14  C   LIG    1       24.011 -19.548   4.488  0.00  0.00    +0.111 C 
ATOM     15  C   LIG    1       22.574 -19.219   4.886  0.00  0.00    +0.025 C 
ENDBRANCH   2  14
TORSDOF 3
ENDMDL
