MODEL 1
REMARK VINA RESULT:      -5.1      0.000      0.000
REMARK  Name = *****
REMARK                            x       y       z     vdW  Elec       q    Type
REMARK                         _______ _______ _______ _____ _____    ______ ____
ROOT
ATOM      1  C   LIG    1       25.252 -20.266   5.429  0.00  0.00    -0.014 C 
ATOM      2  C   LIG    1       24.990 -21.572   4.626  0.00  0.00    +0.012 C 
ATOM      3  C   LIG    1       23.627 -21.516   3.910  0.00  0.00    -0.010 C 
ATOM      4  C   LIG    1       22.511 -21.340   4.952  0.00  0.00    +0.007 C 
ATOM      5  C   LIG    1       22.724 -20.035   5.734  0.00  0.00    -0.010 C 
ATOM      6  C   LIG    1       22.708 -18.849   4.759  0.00  0.00    +0.007 C 
ATOM      7  C   LIG    1       23.823 -19.015   3.717  0.00  0.00    -0.010 C 
ATOM      8  C   LIG    1       23.608 -20.324   2.942  0.00  0.00    +0.007 C 
ATOM      9  C   LIG    1       24.086 -20.093   6.447  0.00  0.00    +0.012 C 
ATOM     10  C   LIG    1       25.182 -19.069   4.432  0.00  0.00    +0.012 C 
ENDROOT
BRANCH   1  12
ATOM     11  C   LIG    1       26.898 -21.497   7.039  0.00  0.00    +0.024 C 
ATOM     12  C   LIG    1       26.632 -20.265   6.169  0.00  0.00    +0.054 C 
BRANCH  12  13
ATOM     13  N   LIG    1       27.756 -20.114   5.235  0.00  0.00    -0.327 NA
ATOM     14  H   LIG    1       27.775 -19.161   4.873  0.00  0.00    +0.118 HD
ATOM     15  H   LIG    1       28.637 -20.241   5.730  0.00  0.00    +0.118 HD
ENDBRANCH  12  13
ENDBRANCH   1  12
TORSDOF 2
ENDMDL
MODEL 2
REMARK VINA RESULT:      -4.5      5.895      7.280
REMARK  Name = *****
REMARK                            x       y       z     vdW  Elec       q    Type
REMARK                         _______ _______ _______ _____ _____    ______ ____
ROOT
ATOM      1  C   LIG    1       26.253 -13.698   3.595  0.00  0.00    -0.014 C 
ATOM      2  C   LIG    1       25.724 -12.774   2.462  0.00  0.00    +0.012 C 
ATOM      3  C   LIG    1       24.239 -12.426   2.680  0.00  0.00    -0.010 C 
ATOM      4  C   LIG    1       23.409 -13.719   2.696  0.00  0.00    +0.007 C 
ATOM      5  C   LIG    1       23.886 -14.634   3.835  0.00  0.00    -0.010 C 
ATOM      6  C   LIG    1       23.725 -13.905   5.176  0.00  0.00    +0.007 C 
ATOM      7  C   LIG    1       24.554 -12.613   5.170  0.00  0.00    -0.010 C 
ATOM      8  C   LIG    1       24.078 -11.704   4.026  0.00  0.00    +0.007 C 
ATOM      9  C   LIG    1       25.369 -14.980   3.614  0.00  0.00    +0.012 C 
ATOM     10  C   LIG    1       26.036 -12.961   4.953  0.00  0.00    +0.012 C 
ENDROOT
BRANCH   1  12
ATOM     11  C   LIG    1       28.750 -12.993   3.883  0.00  0.00    +0.024 C 
ATOM     12  C   LIG    1       27.763 -14.074   3.429  0.00  0.00    +0.054 C 
BRANCH  12  13
ATOM     13  N   LIG    1       28.100 -15.321   4.128  0.00  0.00    -0.327 NA
ATOM     14  H   LIG    1       28.033 -16.105   3.480  0.00  0.00    +0.118 HD
ATOM     15  H   LIG    1       29.071 -15.296   4.434  0.00  0.00    +0.118 HD
ENDBRANCH  12  13
ENDBRANCH   1  12
TORSDOF 2
ENDMDL
MODEL 3
REMARK VINA RESULT:      -4.5      5.918      7.432
REMARK  Name = *****
REMARK                            x       y       z     vdW  Elec       q    Type
REMARK                         _______ _______ _______ _____ _____    ______ ____
ROOT
ATOM      1  C   LIG    1       26.266 -13.668   3.645  0.00  0.00    -0.014 C 
ATOM      2  C   LIG    1       26.003 -12.923   4.984  0.00  0.00    +0.012 C 
ATOM      3  C   LIG    1       24.510 -12.578   5.142  0.00  0.00    -0.010 C 
ATOM      4  C   LIG    1       24.069 -11.678   3.977  0.00  0.00    +0.007 C 
ATOM      5  C   LIG    1       24.281 -12.407   2.641  0.00  0.00    -0.010 C 
ATOM      6  C   LIG    1       23.455 -13.702   2.631  0.00  0.00    +0.007 C 
ATOM      7  C   LIG    1       23.891 -14.609   3.790  0.00  0.00    -0.010 C 
ATOM      8  C   LIG    1       23.684 -13.873   5.122  0.00  0.00    +0.007 C 
ATOM      9  C   LIG    1       25.773 -12.751   2.487  0.00  0.00    +0.012 C 
ATOM     10  C   LIG    1       25.381 -14.953   3.631  0.00  0.00    +0.012 C 
ENDROOT
BRANCH   1  12
ATOM     11  C   LIG    1       28.774 -12.985   3.880  0.00  0.00    +0.024 C 
ATOM     12  C   LIG    1       27.769 -14.054   3.439  0.00  0.00    +0.054 C 
BRANCH  12  13
ATOM     13  N   LIG    1       28.112 -15.310   4.117  0.00  0.00    -0.327 NA
ATOM     14  H   LIG    1       27.918 -16.097   3.498  0.00  0.00    +0.118 HD
ATOM     15  H   LIG    1       29.114 -15.342   4.302  0.00  0.00    +0.118 HD
ENDBRANCH  12  13
ENDBRANCH   1  12
TORSDOF 2
ENDMDL
MODEL 4
REMARK VINA RESULT:      -4.5      5.899      7.101
REMARK  Name = *****
REMARK                            x       y       z     vdW  Elec       q    Type
REMARK                         _______ _______ _______ _____ _____    ______ ____
ROOT
ATOM      1  C   LIG    1       26.246 -13.741   3.631  0.00  0.00    -0.014 C 
ATOM      2  C   LIG    1       25.330 -14.998   3.634  0.00  0.00    +0.012 C 
ATOM      3  C   LIG    1       23.851 -14.603   3.807  0.00  0.00    -0.010 C 
ATOM      4  C   LIG    1       23.675 -13.857   5.139  0.00  0.00    +0.007 C 
ATOM      5  C   LIG    1       24.541 -12.587   5.146  0.00  0.00    -0.010 C 
ATOM      6  C   LIG    1       24.117 -11.675   3.987  0.00  0.00    +0.007 C 
ATOM      7  C   LIG    1       24.293 -12.411   2.652  0.00  0.00    -0.010 C 
ATOM      8  C   LIG    1       23.431 -13.683   2.651  0.00  0.00    +0.007 C 
ATOM      9  C   LIG    1       26.017 -12.984   4.973  0.00  0.00    +0.012 C 
ATOM     10  C   LIG    1       25.769 -12.804   2.479  0.00  0.00    +0.012 C 
ENDROOT
BRANCH   1  12
ATOM     11  C   LIG    1       28.731 -12.984   3.891  0.00  0.00    +0.024 C 
ATOM     12  C   LIG    1       27.763 -14.085   3.446  0.00  0.00    +0.054 C 
BRANCH  12  13
ATOM     13  N   LIG    1       28.134 -15.325   4.138  0.00  0.00    -0.327 NA
ATOM     14  H   LIG    1       29.031 -15.201   4.605  0.00  0.00    +0.118 HD
ATOM     15  H   LIG    1       27.461 -15.525   4.877  0.00  0.00    +0.118 HD
ENDBRANCH  12  13
ENDBRANCH   1  12
TORSDOF 2
ENDMDL
MODEL 5
REMARK VINA RESULT:      -3.9      6.378      8.061
REMARK  Name = *****
REMARK                            x       y       z     vdW  Elec       q    Type
REMARK                         _______ _______ _______ _____ _____    ______ ____
ROOT
ATOM      1  C   LIG    1       25.225 -13.058   4.030  0.00  0.00    -0.014 C 
ATOM      2  C   LIG    1       26.122 -13.073   5.300  0.00  0.00    +0.012 C 
ATOM      3  C   LIG    1       27.459 -13.786   5.025  0.00  0.00    -0.010 C 
ATOM      4  C   LIG    1       27.185 -15.235   4.592  0.00  0.00    +0.007 C 
ATOM      5  C   LIG    1       26.333 -15.248   3.313  0.00  0.00    -0.010 C 
ATOM      6  C   LIG    1       27.082 -14.511   2.194  0.00  0.00    +0.007 C 
ATOM      7  C   LIG    1       27.358 -13.061   2.617  0.00  0.00    -0.010 C 
ATOM      8  C   LIG    1       28.204 -13.054   3.899  0.00  0.00    +0.007 C 
ATOM      9  C   LIG    1       24.998 -14.535   3.591  0.00  0.00    +0.012 C 
ATOM     10  C   LIG    1       26.022 -12.350   2.891  0.00  0.00    +0.012 C 
ENDROOT
BRANCH   1  12
ATOM     11  C   LIG    1       23.758 -11.521   5.547  0.00  0.00    +0.024 C 
ATOM     12  C   LIG    1       23.855 -12.333   4.251  0.00  0.00    +0.054 C 
BRANCH  12  13
ATOM     13  N   LIG    1       23.515 -11.447   3.131  0.00  0.00    -0.327 NA
ATOM     14  H   LIG    1       23.410 -11.998   2.279  0.00  0.00    +0.118 HD
ATOM     15  H   LIG    1       22.607 -11.014   3.294  0.00  0.00    +0.118 HD
ENDBRANCH  12  13
ENDBRANCH   1  12
TORSDOF 2
ENDMDL
MODEL 6
REMARK VINA RESULT:      -3.8      6.412      8.132
REMARK  Name = *****
REMARK                            x       y       z     vdW  Elec       q    Type
REMARK                         _______ _______ _______ _____ _____    ______ ____
ROOT
ATOM      1  C   LIG    1       25.204 -13.054   3.924  0.00  0.00    -0.014 C 
ATOM      2  C   LIG    1       25.013 -14.547   3.533  0.00  0.00    +0.012 C 
ATOM      3  C   LIG    1       26.372 -15.241   3.319  0.00  0.00    -0.010 C 
ATOM      4  C   LIG    1       27.138 -14.526   2.195  0.00  0.00    +0.007 C 
ATOM      5  C   LIG    1       27.375 -13.056   2.575  0.00  0.00    -0.010 C 
ATOM      6  C   LIG    1       28.191 -12.990   3.874  0.00  0.00    +0.007 C 
ATOM      7  C   LIG    1       27.431 -13.699   5.003  0.00  0.00    -0.010 C 
ATOM      8  C   LIG    1       27.191 -15.167   4.616  0.00  0.00    +0.007 C 
ATOM      9  C   LIG    1       26.016 -12.366   2.788  0.00  0.00    +0.012 C 
ATOM     10  C   LIG    1       26.076 -13.006   5.217  0.00  0.00    +0.012 C 
ENDROOT
BRANCH   1  12
ATOM     11  C   LIG    1       23.808 -11.447   5.436  0.00  0.00    +0.024 C 
ATOM     12  C   LIG    1       23.851 -12.303   4.165  0.00  0.00    +0.054 C 
BRANCH  12  13
ATOM     13  N   LIG    1       23.486 -11.450   3.028  0.00  0.00    -0.327 NA
ATOM     14  H   LIG    1       23.970 -11.771   2.190  0.00  0.00    +0.118 HD
ATOM     15  H   LIG    1       22.491 -11.545   2.828  0.00  0.00    +0.118 HD
ENDBRANCH  12  13
ENDBRANCH   1  12
TORSDOF 2
ENDMDL
MODEL 7
REMARK VINA RESULT:      -3.7      5.151      6.628
REMARK  Name = *****
REMARK                            x       y       z     vdW  Elec       q    Type
REMARK                         _______ _______ _______ _____ _____    ______ ____
ROOT
ATOM      1  C   LIG    1       26.244 -15.389   3.451  0.00  0.00    -0.014 C 
ATOM      2  C   LIG    1       26.477 -14.568   2.151  0.00  0.00    +0.012 C 
ATOM      3  C   LIG    1       26.314 -13.058   2.414  0.00  0.00    -0.010 C 
ATOM      4  C   LIG    1       24.894 -12.781   2.930  0.00  0.00    +0.007 C 
ATOM      5  C   LIG    1       24.651 -13.551   4.238  0.00  0.00    -0.010 C 
ATOM      6  C   LIG    1       25.676 -13.104   5.290  0.00  0.00    +0.007 C 
ATOM      7  C   LIG    1       27.098 -13.381   4.784  0.00  0.00    -0.010 C 
ATOM      8  C   LIG    1       27.334 -12.614   3.474  0.00  0.00    +0.007 C 
ATOM      9  C   LIG    1       24.815 -15.058   3.972  0.00  0.00    +0.012 C 
ATOM     10  C   LIG    1       27.260 -14.887   4.522  0.00  0.00    +0.012 C 
ENDROOT
BRANCH   1  12
ATOM     11  C   LIG    1       27.471 -17.592   4.128  0.00  0.00    +0.024 C 
ATOM     12  C   LIG    1       26.409 -16.932   3.242  0.00  0.00    +0.054 C 
BRANCH  12  13
ATOM     13  N   LIG    1       25.143 -17.651   3.435  0.00  0.00    -0.327 NA
ATOM     14  H   LIG    1       25.099 -18.444   2.795  0.00  0.00    +0.118 HD
ATOM     15  H   LIG    1       25.109 -18.048   4.372  0.00  0.00    +0.118 HD
ENDBRANCH  12  13
ENDBRANCH   1  12
TORSDOF 2
ENDMDL
MODEL 8
REMARK VINA RESULT:      -3.6      6.395      8.137
REMARK  Name = *****
REMARK                            x       y       z     vdW  Elec       q    Type
REMARK                         _______ _______ _______ _____ _____    ______ ____
ROOT
ATOM      1  C   LIG    1       25.210 -13.016   3.852  0.00  0.00    -0.014 C 
ATOM      2  C   LIG    1       26.053 -12.522   2.642  0.00  0.00    +0.012 C 
ATOM      3  C   LIG    1       27.399 -13.268   2.565  0.00  0.00    -0.010 C 
ATOM      4  C   LIG    1       28.193 -13.023   3.858  0.00  0.00    +0.007 C 
ATOM      5  C   LIG    1       27.397 -13.539   5.067  0.00  0.00    -0.010 C 
ATOM      6  C   LIG    1       27.138 -15.043   4.902  0.00  0.00    +0.007 C 
ATOM      7  C   LIG    1       26.342 -15.297   3.614  0.00  0.00    -0.010 C 
ATOM      8  C   LIG    1       27.138 -14.774   2.408  0.00  0.00    +0.007 C 
ATOM      9  C   LIG    1       26.054 -12.793   5.141  0.00  0.00    +0.012 C 
ATOM     10  C   LIG    1       24.999 -14.553   3.692  0.00  0.00    +0.012 C 
ENDROOT
BRANCH   1  12
ATOM     11  C   LIG    1       23.645 -11.448   5.234  0.00  0.00    +0.024 C 
ATOM     12  C   LIG    1       23.824 -12.297   3.971  0.00  0.00    +0.054 C 
BRANCH  12  13
ATOM     13  N   LIG    1       23.544 -11.447   2.807  0.00  0.00    -0.327 NA
ATOM     14  H   LIG    1       24.142 -11.724   2.029  0.00  0.00    +0.118 HD
ATOM     15  H   LIG    1       22.588 -11.597   2.489  0.00  0.00    +0.118 HD
ENDBRANCH  12  13
ENDBRANCH   1  12
TORSDOF 2
ENDMDL
MODEL 9
REMARK VINA RESULT:      -3.6      5.144      6.548
REMARK  Name = *****
REMARK                            x       y       z     vdW  Elec       q    Type
REMARK                         _______ _______ _______ _____ _____    ______ ____
ROOT
ATOM      1  C   LIG    1       26.414 -15.344   3.503  0.00  0.00    -0.014 C 
ATOM      2  C   LIG    1       24.907 -15.263   3.876  0.00  0.00    +0.012 C 
ATOM      3  C   LIG    1       24.454 -13.798   4.035  0.00  0.00    -0.010 C 
ATOM      4  C   LIG    1       25.279 -13.128   5.145  0.00  0.00    +0.007 C 
ATOM      5  C   LIG    1       26.772 -13.160   4.782  0.00  0.00    -0.010 C 
ATOM      6  C   LIG    1       26.990 -12.412   3.459  0.00  0.00    +0.007 C 
ATOM      7  C   LIG    1       26.173 -13.078   2.343  0.00  0.00    -0.010 C 
ATOM      8  C   LIG    1       24.682 -13.050   2.714  0.00  0.00    +0.007 C 
ATOM      9  C   LIG    1       27.220 -14.623   4.624  0.00  0.00    +0.012 C 
ATOM     10  C   LIG    1       26.625 -14.538   2.184  0.00  0.00    +0.012 C 
ENDROOT
BRANCH   1  12
ATOM     11  C   LIG    1       27.872 -17.309   4.415  0.00  0.00    +0.024 C 
ATOM     12  C   LIG    1       26.924 -16.813   3.318  0.00  0.00    +0.054 C 
BRANCH  12  13
ATOM     13  N   LIG    1       25.816 -17.770   3.205  0.00  0.00    -0.327 NA
ATOM     14  H   LIG    1       24.984 -17.291   2.861  0.00  0.00    +0.118 HD
ATOM     15  H   LIG    1       26.038 -18.478   2.507  0.00  0.00    +0.118 HD
ENDBRANCH  12  13
ENDBRANCH   1  12
TORSDOF 2
ENDMDL
