MODEL 1
REMARK VINA RESULT:      -5.6      0.000      0.000
REMARK  Name = *****
REMARK                            x       y       z     vdW  Elec       q    Type
REMARK                         _______ _______ _______ _____ _____    ______ ____
ROOT
ATOM      1  C   LIG    1       30.663 -19.680   7.834  0.00  0.00    +0.150 C 
ATOM      2  N   LIG    1       29.609 -19.512   6.865  0.00  0.00    -0.328 N 
ATOM      3  C   LIG    1       28.427 -20.196   6.823  0.00  0.00    +0.151 A 
ATOM      4  C   LIG    1       27.898 -21.217   7.656  0.00  0.00    +0.282 C 
ATOM      5  N   LIG    1       26.635 -21.650   7.246  0.00  0.00    -0.262 N 
ATOM      6  C   LIG    1       25.916 -21.156   6.139  0.00  0.00    +0.333 C 
ATOM      7  N   LIG    1       26.521 -20.152   5.381  0.00  0.00    -0.280 N 
ATOM      8  C   LIG    1       25.840 -19.600   4.225  0.00  0.00    +0.155 C 
ATOM      9  O   LIG    1       24.800 -21.601   5.860  0.00  0.00    -0.246 OA
ATOM     10  C   LIG    1       25.988 -22.696   8.010  0.00  0.00    +0.157 C 
ATOM     11  O   LIG    1       28.502 -21.660   8.631  0.00  0.00    -0.265 OA
ATOM     12  C   LIG    1       27.767 -19.696   5.742  0.00  0.00    +0.168 A 
ATOM     13  N   LIG    1       28.489 -18.727   5.110  0.00  0.00    -0.218 NA
ATOM     14  C   LIG    1       29.602 -18.637   5.812  0.00  0.00    +0.202 A 
ENDROOT
TORSDOF 0
ENDMDL
MODEL 2
REMARK VINA RESULT:      -5.5      1.780      2.290
REMARK  Name = *****
REMARK                            x       y       z     vdW  Elec       q    Type
REMARK                         _______ _______ _______ _____ _____    ______ ____
ROOT
ATOM      1  C   LIG    1       28.514 -21.473   7.820  0.00  0.00    +0.150 C 
ATOM      2  N   LIG    1       27.738 -20.858   6.772  0.00  0.00    -0.328 N 
ATOM      3  C   LIG    1       26.425 -21.099   6.484  0.00  0.00    +0.151 A 
ATOM      4  C   LIG    1       25.473 -21.969   7.079  0.00  0.00    +0.282 C 
ATOM      5  N   LIG    1       24.223 -21.908   6.460  0.00  0.00    -0.262 N 
ATOM      6  C   LIG    1       23.886 -21.084   5.367  0.00  0.00    +0.333 C 
ATOM      7  N   LIG    1       24.891 -20.263   4.853  0.00  0.00    -0.280 N 
ATOM      8  C   LIG    1       24.616 -19.392   3.725  0.00  0.00    +0.155 C 
ATOM      9  O   LIG    1       22.748 -21.097   4.892  0.00  0.00    -0.246 OA
ATOM     10  C   LIG    1       23.164 -22.755   6.969  0.00  0.00    +0.157 C 
ATOM     11  O   LIG    1       25.740 -22.692   8.036  0.00  0.00    -0.265 OA
ATOM     12  C   LIG    1       26.141 -20.291   5.425  0.00  0.00    +0.168 A 
ATOM     13  N   LIG    1       27.224 -19.557   5.042  0.00  0.00    -0.218 NA
ATOM     14  C   LIG    1       28.179 -19.921   5.876  0.00  0.00    +0.202 A 
ENDROOT
TORSDOF 0
ENDMDL
MODEL 3
REMARK VINA RESULT:      -5.5      2.326      4.219
REMARK  Name = *****
REMARK                            x       y       z     vdW  Elec       q    Type
REMARK                         _______ _______ _______ _____ _____    ______ ____
ROOT
ATOM      1  C   LIG    1       25.531 -18.496   3.455  0.00  0.00    +0.150 C 
ATOM      2  N   LIG    1       24.849 -19.562   4.144  0.00  0.00    -0.328 N 
ATOM      3  C   LIG    1       25.367 -20.359   5.124  0.00  0.00    +0.151 A 
ATOM      4  C   LIG    1       26.650 -20.392   5.734  0.00  0.00    +0.282 C 
ATOM      5  N   LIG    1       26.761 -21.386   6.708  0.00  0.00    -0.262 N 
ATOM      6  C   LIG    1       25.741 -22.282   7.089  0.00  0.00    +0.333 C 
ATOM      7  N   LIG    1       24.515 -22.171   6.431  0.00  0.00    -0.280 N 
ATOM      8  C   LIG    1       23.421 -23.063   6.769  0.00  0.00    +0.155 C 
ATOM      9  O   LIG    1       25.935 -23.126   7.968  0.00  0.00    -0.246 OA
ATOM     10  C   LIG    1       28.025 -21.529   7.401  0.00  0.00    +0.157 C 
ATOM     11  O   LIG    1       27.553 -19.618   5.424  0.00  0.00    -0.265 OA
ATOM     12  C   LIG    1       24.358 -21.210   5.460  0.00  0.00    +0.168 A 
ATOM     13  N   LIG    1       23.231 -20.974   4.729  0.00  0.00    -0.218 NA
ATOM     14  C   LIG    1       23.558 -19.970   3.938  0.00  0.00    +0.202 A 
ENDROOT
TORSDOF 0
ENDMDL
MODEL 4
REMARK VINA RESULT:      -5.5      1.860      4.257
REMARK  Name = *****
REMARK                            x       y       z     vdW  Elec       q    Type
REMARK                         _______ _______ _______ _____ _____    ______ ____
ROOT
ATOM      1  C   LIG    1       22.260 -20.844   4.978  0.00  0.00    +0.150 C 
ATOM      2  N   LIG    1       23.660 -20.510   4.909  0.00  0.00    -0.328 N 
ATOM      3  C   LIG    1       24.586 -20.678   5.898  0.00  0.00    +0.151 A 
ATOM      4  C   LIG    1       24.476 -21.196   7.216  0.00  0.00    +0.282 C 
ATOM      5  N   LIG    1       25.689 -21.183   7.906  0.00  0.00    -0.262 N 
ATOM      6  C   LIG    1       26.921 -20.725   7.396  0.00  0.00    +0.333 C 
ATOM      7  N   LIG    1       26.928 -20.234   6.090  0.00  0.00    -0.280 N 
ATOM      8  C   LIG    1       28.160 -19.742   5.501  0.00  0.00    +0.155 C 
ATOM      9  O   LIG    1       27.944 -20.760   8.085  0.00  0.00    -0.246 OA
ATOM     10  C   LIG    1       25.710 -21.680   9.267  0.00  0.00    +0.157 C 
ATOM     11  O   LIG    1       23.415 -21.607   7.681  0.00  0.00    -0.265 OA
ATOM     12  C   LIG    1       25.756 -20.221   5.370  0.00  0.00    +0.168 A 
ATOM     13  N   LIG    1       25.595 -19.776   4.091  0.00  0.00    -0.218 NA
ATOM     14  C   LIG    1       24.315 -19.962   3.837  0.00  0.00    +0.202 A 
ENDROOT
TORSDOF 0
ENDMDL
MODEL 5
REMARK VINA RESULT:      -5.5      2.317      4.019
REMARK  Name = *****
REMARK                            x       y       z     vdW  Elec       q    Type
REMARK                         _______ _______ _______ _____ _____    ______ ____
ROOT
ATOM      1  C   LIG    1       28.487 -20.379   6.282  0.00  0.00    +0.150 C 
ATOM      2  N   LIG    1       27.259 -21.057   6.612  0.00  0.00    -0.328 N 
ATOM      3  C   LIG    1       26.042 -20.870   6.019  0.00  0.00    +0.151 A 
ATOM      4  C   LIG    1       25.627 -20.010   4.968  0.00  0.00    +0.282 C 
ATOM      5  N   LIG    1       24.269 -20.135   4.671  0.00  0.00    -0.262 N 
ATOM      6  C   LIG    1       23.365 -21.008   5.309  0.00  0.00    +0.333 C 
ATOM      7  N   LIG    1       23.868 -21.814   6.331  0.00  0.00    -0.280 N 
ATOM      8  C   LIG    1       22.993 -22.734   7.034  0.00  0.00    +0.155 C 
ATOM      9  O   LIG    1       22.179 -21.050   4.970  0.00  0.00    -0.246 OA
ATOM     10  C   LIG    1       23.717 -19.305   3.619  0.00  0.00    +0.157 C 
ATOM     11  O   LIG    1       26.398 -19.245   4.392  0.00  0.00    -0.265 OA
ATOM     12  C   LIG    1       25.199 -21.724   6.664  0.00  0.00    +0.168 A 
ATOM     13  N   LIG    1       25.842 -22.436   7.633  0.00  0.00    -0.218 NA
ATOM     14  C   LIG    1       27.090 -22.011   7.579  0.00  0.00    +0.202 A 
ENDROOT
TORSDOF 0
ENDMDL
MODEL 6
REMARK VINA RESULT:      -5.4      1.535      3.014
REMARK  Name = *****
REMARK                            x       y       z     vdW  Elec       q    Type
REMARK                         _______ _______ _______ _____ _____    ______ ____
ROOT
ATOM      1  C   LIG    1       30.850 -19.198   6.761  0.00  0.00    +0.150 C 
ATOM      2  N   LIG    1       29.828 -20.104   7.222  0.00  0.00    -0.328 N 
ATOM      3  C   LIG    1       28.580 -20.258   6.689  0.00  0.00    +0.151 A 
ATOM      4  C   LIG    1       27.935 -19.624   5.594  0.00  0.00    +0.282 C 
ATOM      5  N   LIG    1       26.633 -20.084   5.392  0.00  0.00    -0.262 N 
ATOM      6  C   LIG    1       25.983 -21.075   6.155  0.00  0.00    +0.333 C 
ATOM      7  N   LIG    1       26.699 -21.639   7.211  0.00  0.00    -0.280 N 
ATOM      8  C   LIG    1       26.091 -22.662   8.042  0.00  0.00    +0.155 C 
ATOM      9  O   LIG    1       24.827 -21.419   5.893  0.00  0.00    -0.246 OA
ATOM     10  C   LIG    1       25.863 -19.510   4.307  0.00  0.00    +0.157 C 
ATOM     11  O   LIG    1       28.483 -18.762   4.910  0.00  0.00    -0.265 OA
ATOM     12  C   LIG    1       27.984 -21.216   7.454  0.00  0.00    +0.168 A 
ATOM     13  N   LIG    1       28.813 -21.664   8.441  0.00  0.00    -0.218 NA
ATOM     14  C   LIG    1       29.923 -20.972   8.277  0.00  0.00    +0.202 A 
ENDROOT
TORSDOF 0
ENDMDL
MODEL 7
REMARK VINA RESULT:      -5.3      1.824      3.222
REMARK  Name = *****
REMARK                            x       y       z     vdW  Elec       q    Type
REMARK                         _______ _______ _______ _____ _____    ______ ____
ROOT
ATOM      1  C   LIG    1       29.076 -18.524   5.529  0.00  0.00    +0.150 C 
ATOM      2  N   LIG    1       28.483 -19.668   6.174  0.00  0.00    -0.328 N 
ATOM      3  C   LIG    1       27.273 -20.231   5.879  0.00  0.00    +0.151 A 
ATOM      4  C   LIG    1       26.285 -19.894   4.916  0.00  0.00    +0.282 C 
ATOM      5  N   LIG    1       25.178 -20.743   4.957  0.00  0.00    -0.262 N 
ATOM      6  C   LIG    1       25.011 -21.835   5.833  0.00  0.00    +0.333 C 
ATOM      7  N   LIG    1       26.038 -22.086   6.744  0.00  0.00    -0.280 N 
ATOM      8  C   LIG    1       25.931 -23.192   7.678  0.00  0.00    +0.155 C 
ATOM      9  O   LIG    1       23.994 -22.533   5.788  0.00  0.00    -0.246 OA
ATOM     10  C   LIG    1       24.093 -20.501   4.028  0.00  0.00    +0.157 C 
ATOM     11  O   LIG    1       26.411 -18.951   4.138  0.00  0.00    -0.265 OA
ATOM     12  C   LIG    1       27.148 -21.274   6.746  0.00  0.00    +0.168 A 
ATOM     13  N   LIG    1       28.230 -21.384   7.568  0.00  0.00    -0.218 NA
ATOM     14  C   LIG    1       29.024 -20.397   7.199  0.00  0.00    +0.202 A 
ENDROOT
TORSDOF 0
ENDMDL
MODEL 8
REMARK VINA RESULT:      -5.2      1.648      4.252
REMARK  Name = *****
REMARK                            x       y       z     vdW  Elec       q    Type
REMARK                         _______ _______ _______ _____ _____    ______ ____
ROOT
ATOM      1  C   LIG    1       25.540 -18.938   3.463  0.00  0.00    +0.150 C 
ATOM      2  N   LIG    1       25.484 -19.899   4.536  0.00  0.00    -0.328 N 
ATOM      3  C   LIG    1       26.468 -20.161   5.446  0.00  0.00    +0.151 A 
ATOM      4  C   LIG    1       27.768 -19.613   5.614  0.00  0.00    +0.282 C 
ATOM      5  N   LIG    1       28.459 -20.180   6.686  0.00  0.00    -0.262 N 
ATOM      6  C   LIG    1       27.966 -21.183   7.545  0.00  0.00    +0.333 C 
ATOM      7  N   LIG    1       26.678 -21.658   7.298  0.00  0.00    -0.280 N 
ATOM      8  C   LIG    1       26.108 -22.693   8.140  0.00  0.00    +0.155 C 
ATOM      9  O   LIG    1       28.655 -21.617   8.472  0.00  0.00    -0.246 OA
ATOM     10  C   LIG    1       29.803 -19.711   6.960  0.00  0.00    +0.157 C 
ATOM     11  O   LIG    1       28.217 -18.733   4.883  0.00  0.00    -0.265 OA
ATOM     12  C   LIG    1       25.957 -21.134   6.250  0.00  0.00    +0.168 A 
ATOM     13  N   LIG    1       24.694 -21.488   5.879  0.00  0.00    -0.218 NA
ATOM     14  C   LIG    1       24.432 -20.724   4.836  0.00  0.00    +0.202 A 
ENDROOT
TORSDOF 0
ENDMDL
MODEL 9
REMARK VINA RESULT:      -5.2      1.636      3.819
REMARK  Name = *****
REMARK                            x       y       z     vdW  Elec       q    Type
REMARK                         _______ _______ _______ _____ _____    ______ ____
ROOT
ATOM      1  C   LIG    1       26.145 -22.594   7.619  0.00  0.00    +0.150 C 
ATOM      2  N   LIG    1       26.671 -21.489   6.857  0.00  0.00    -0.328 N 
ATOM      3  C   LIG    1       27.866 -20.859   7.058  0.00  0.00    +0.151 A 
ATOM      4  C   LIG    1       28.897 -21.071   8.012  0.00  0.00    +0.282 C 
ATOM      5  N   LIG    1       29.963 -20.182   7.863  0.00  0.00    -0.262 N 
ATOM      6  C   LIG    1       30.061 -19.172   6.886  0.00  0.00    +0.333 C 
ATOM      7  N   LIG    1       28.997 -19.042   5.993  0.00  0.00    -0.280 N 
ATOM      8  C   LIG    1       29.028 -18.019   4.963  0.00  0.00    +0.155 C 
ATOM      9  O   LIG    1       31.051 -18.437   6.832  0.00  0.00    -0.246 OA
ATOM     10  C   LIG    1       31.078 -20.290   8.782  0.00  0.00    +0.157 C 
ATOM     11  O   LIG    1       28.837 -21.950   8.869  0.00  0.00    -0.265 OA
ATOM     12  C   LIG    1       27.920 -19.890   6.101  0.00  0.00    +0.168 A 
ATOM     13  N   LIG    1       26.808 -19.894   5.313  0.00  0.00    -0.218 NA
ATOM     14  C   LIG    1       26.067 -20.873   5.794  0.00  0.00    +0.202 A 
ENDROOT
TORSDOF 0
ENDMDL
