MODEL 1
REMARK VINA RESULT:      -6.3      0.000      0.000
REMARK  Name = *****
REMARK                            x       y       z     vdW  Elec       q    Type
REMARK                         _______ _______ _______ _____ _____    ______ ____
ROOT
ATOM      1  C   LIG    1       23.002 -20.145   6.490  0.00  0.00    +0.105 C 
ATOM      2  N   LIG    1       22.533 -20.493   5.140  0.00  0.00    -0.297 NA
ENDROOT
BRANCH   2   3
ATOM      3  C   LIG    1       23.699 -20.937   4.346  0.00  0.00    +0.120 C 
BRANCH   3   4
ATOM      4  C   LIG    1       25.061 -20.678   4.973  0.00  0.00    -0.026 A 
ATOM      5  C   LIG    1       25.899 -19.593   4.588  0.00  0.00    -0.013 A 
ATOM      6  C   LIG    1       27.150 -19.432   5.240  0.00  0.00    -0.018 A 
ATOM      7  C   LIG    1       27.973 -18.340   4.926  0.00  0.00    +0.008 A 
ATOM      8  C   LIG    1       27.578 -17.387   3.990  0.00  0.00    +0.001 A 
ATOM      9  C   LIG    1       26.371 -17.542   3.322  0.00  0.00    +0.001 A 
ATOM     10  C   LIG    1       27.559 -20.357   6.211  0.00  0.00    +0.008 A 
ATOM     11  C   LIG    1       26.738 -21.417   6.579  0.00  0.00    +0.001 A 
ATOM     12  C   LIG    1       25.554 -18.640   3.603  0.00  0.00    +0.009 A 
ATOM     13  C   LIG    1       25.497 -21.571   5.973  0.00  0.00    +0.005 A 
ENDBRANCH   3   4
ENDBRANCH   2   3
BRANCH   2  14
ATOM     14  C   LIG    1       21.852 -19.356   4.495  0.00  0.00    +0.112 C 
BRANCH  14  15
ATOM     15  C   LIG    1       22.712 -18.124   4.416  0.00  0.00    -0.003 C 
ATOM     16  C   LIG    1       22.230 -16.896   4.658  0.00  0.00    +0.057 C 
BRANCH  16  17
ATOM     17  C   LIG    1       23.013 -15.722   4.531  0.00  0.00    -0.074 C 
ATOM     18  C   LIG    1       23.706 -14.768   4.342  0.00  0.00    -0.092 C 
BRANCH  18  19
ATOM     19  C   LIG    1       24.582 -13.612   4.038  0.00  0.00    +0.024 C 
ATOM     20  C   LIG    1       23.925 -12.322   4.545  0.00  0.00    +0.024 C 
ATOM     21  C   LIG    1       24.791 -13.528   2.519  0.00  0.00    +0.024 C 
ATOM     22  C   LIG    1       25.936 -13.812   4.732  0.00  0.00    +0.024 C 
ENDBRANCH  18  19
ENDBRANCH  16  17
ENDBRANCH  14  15
ENDBRANCH   2  14
TORSDOF 6
ENDMDL
MODEL 2
REMARK VINA RESULT:      -5.3      0.842      2.558
REMARK  Name = *****
REMARK                            x       y       z     vdW  Elec       q    Type
REMARK                         _______ _______ _______ _____ _____    ______ ____
ROOT
ATOM      1  C   LIG    1       21.235 -21.191   4.422  0.00  0.00    +0.105 C 
ATOM      2  N   LIG    1       22.305 -20.185   4.344  0.00  0.00    -0.297 NA
ENDROOT
BRANCH   2   3
ATOM      3  C   LIG    1       23.516 -20.748   4.978  0.00  0.00    +0.120 C 
BRANCH   3   4
ATOM      4  C   LIG    1       24.813 -20.003   4.697  0.00  0.00    -0.026 A 
ATOM      5  C   LIG    1       26.019 -20.247   5.415  0.00  0.00    -0.013 A 
ATOM      6  C   LIG    1       27.180 -19.504   5.072  0.00  0.00    -0.018 A 
ATOM      7  C   LIG    1       28.398 -19.762   5.720  0.00  0.00    +0.008 A 
ATOM      8  C   LIG    1       28.500 -20.754   6.692  0.00  0.00    +0.001 A 
ATOM      9  C   LIG    1       27.370 -21.470   7.061  0.00  0.00    +0.001 A 
ATOM     10  C   LIG    1       27.115 -18.523   4.073  0.00  0.00    +0.008 A 
ATOM     11  C   LIG    1       25.934 -18.287   3.378  0.00  0.00    +0.001 A 
ATOM     12  C   LIG    1       26.144 -21.206   6.446  0.00  0.00    +0.009 A 
ATOM     13  C   LIG    1       24.796 -19.027   3.681  0.00  0.00    +0.005 A 
ENDBRANCH   3   4
ENDBRANCH   2   3
BRANCH   2  14
ATOM     14  C   LIG    1       21.905 -18.921   4.987  0.00  0.00    +0.112 C 
BRANCH  14  15
ATOM     15  C   LIG    1       22.682 -17.735   4.484  0.00  0.00    -0.003 C 
ATOM     16  C   LIG    1       22.496 -16.498   4.967  0.00  0.00    +0.057 C 
BRANCH  16  17
ATOM     17  C   LIG    1       23.179 -15.363   4.462  0.00  0.00    -0.074 C 
ATOM     18  C   LIG    1       23.813 -14.415   4.110  0.00  0.00    -0.092 C 
BRANCH  18  19
ATOM     19  C   LIG    1       24.653 -13.256   3.728  0.00  0.00    +0.024 C 
ATOM     20  C   LIG    1       25.118 -13.415   2.274  0.00  0.00    +0.024 C 
ATOM     21  C   LIG    1       25.872 -13.191   4.659  0.00  0.00    +0.024 C 
ATOM     22  C   LIG    1       23.829 -11.969   3.871  0.00  0.00    +0.024 C 
ENDBRANCH  18  19
ENDBRANCH  16  17
ENDBRANCH  14  15
ENDBRANCH   2  14
TORSDOF 6
ENDMDL
MODEL 3
REMARK VINA RESULT:      -4.1      0.997      1.612
REMARK  Name = *****
REMARK                            x       y       z     vdW  Elec       q    Type
REMARK                         _______ _______ _______ _____ _____    ______ ____
ROOT
ATOM      1  C   LIG    1       21.274 -21.053   4.492  0.00  0.00    +0.105 C 
ATOM      2  N   LIG    1       21.944 -19.876   3.920  0.00  0.00    -0.297 NA
ENDROOT
BRANCH   2   3
ATOM      3  C   LIG    1       23.339 -20.249   3.598  0.00  0.00    +0.120 C 
BRANCH   3   4
ATOM      4  C   LIG    1       24.248 -20.494   4.794  0.00  0.00    -0.026 A 
ATOM      5  C   LIG    1       25.570 -19.971   4.883  0.00  0.00    -0.013 A 
ATOM      6  C   LIG    1       26.337 -20.250   6.045  0.00  0.00    -0.018 A 
ATOM      7  C   LIG    1       27.621 -19.701   6.191  0.00  0.00    +0.008 A 
ATOM      8  C   LIG    1       28.160 -18.864   5.216  0.00  0.00    +0.001 A 
ATOM      9  C   LIG    1       27.436 -18.603   4.061  0.00  0.00    +0.001 A 
ATOM     10  C   LIG    1       25.807 -21.061   7.058  0.00  0.00    +0.008 A 
ATOM     11  C   LIG    1       24.517 -21.571   6.963  0.00  0.00    +0.001 A 
ATOM     12  C   LIG    1       26.169 -19.165   3.888  0.00  0.00    +0.009 A 
ATOM     13  C   LIG    1       23.741 -21.283   5.846  0.00  0.00    +0.005 A 
ENDBRANCH   3   4
ENDBRANCH   2   3
BRANCH   2  14
ATOM     14  C   LIG    1       21.900 -18.728   4.843  0.00  0.00    +0.112 C 
BRANCH  14  15
ATOM     15  C   LIG    1       22.647 -17.530   4.326  0.00  0.00    -0.003 C 
ATOM     16  C   LIG    1       22.637 -16.349   4.961  0.00  0.00    +0.057 C 
BRANCH  16  17
ATOM     17  C   LIG    1       23.288 -15.195   4.455  0.00  0.00    -0.074 C 
ATOM     18  C   LIG    1       23.899 -14.233   4.100  0.00  0.00    -0.092 C 
BRANCH  18  19
ATOM     19  C   LIG    1       24.711 -13.057   3.711  0.00  0.00    +0.024 C 
ATOM     20  C   LIG    1       25.899 -12.912   4.671  0.00  0.00    +0.024 C 
ATOM     21  C   LIG    1       23.834 -11.799   3.776  0.00  0.00    +0.024 C 
ATOM     22  C   LIG    1       25.224 -13.252   2.278  0.00  0.00    +0.024 C 
ENDBRANCH  18  19
ENDBRANCH  16  17
ENDBRANCH  14  15
ENDBRANCH   2  14
TORSDOF 6
ENDMDL
MODEL 4
REMARK VINA RESULT:      -4.0      1.332      2.600
REMARK  Name = *****
REMARK                            x       y       z     vdW  Elec       q    Type
REMARK                         _______ _______ _______ _____ _____    ______ ____
ROOT
ATOM      1  C   LIG    1       20.768 -19.548   4.010  0.00  0.00    +0.105 C 
ATOM      2  N   LIG    1       21.830 -18.618   3.599  0.00  0.00    -0.297 NA
ENDROOT
BRANCH   2   3
ATOM      3  C   LIG    1       23.092 -19.381   3.482  0.00  0.00    +0.120 C 
BRANCH   3   4
ATOM      4  C   LIG    1       23.528 -20.129   4.733  0.00  0.00    -0.026 A 
ATOM      5  C   LIG    1       24.888 -20.227   5.144  0.00  0.00    -0.013 A 
ATOM      6  C   LIG    1       25.193 -20.942   6.332  0.00  0.00    -0.018 A 
ATOM      7  C   LIG    1       26.516 -21.008   6.797  0.00  0.00    +0.008 A 
ATOM      8  C   LIG    1       27.548 -20.364   6.118  0.00  0.00    +0.001 A 
ATOM      9  C   LIG    1       27.274 -19.685   4.939  0.00  0.00    +0.001 A 
ATOM     10  C   LIG    1       24.169 -21.570   7.055  0.00  0.00    +0.008 A 
ATOM     11  C   LIG    1       22.843 -21.474   6.646  0.00  0.00    +0.001 A 
ATOM     12  C   LIG    1       25.967 -19.635   4.449  0.00  0.00    +0.009 A 
ATOM     13  C   LIG    1       22.525 -20.752   5.501  0.00  0.00    +0.005 A 
ENDBRANCH   3   4
ENDBRANCH   2   3
BRANCH   2  14
ATOM     14  C   LIG    1       21.969 -17.502   4.551  0.00  0.00    +0.112 C 
BRANCH  14  15
ATOM     15  C   LIG    1       23.207 -16.681   4.316  0.00  0.00    -0.003 C 
ATOM     16  C   LIG    1       23.221 -15.347   4.453  0.00  0.00    +0.057 C 
BRANCH  16  17
ATOM     17  C   LIG    1       24.363 -14.555   4.178  0.00  0.00    -0.074 C 
ATOM     18  C   LIG    1       25.327 -13.926   3.861  0.00  0.00    -0.092 C 
BRANCH  18  19
ATOM     19  C   LIG    1       26.514 -13.172   3.394  0.00  0.00    +0.024 C 
ATOM     20  C   LIG    1       26.082 -12.115   2.369  0.00  0.00    +0.024 C 
ATOM     21  C   LIG    1       27.506 -14.148   2.748  0.00  0.00    +0.024 C 
ATOM     22  C   LIG    1       27.178 -12.486   4.596  0.00  0.00    +0.024 C 
ENDBRANCH  18  19
ENDBRANCH  16  17
ENDBRANCH  14  15
ENDBRANCH   2  14
TORSDOF 6
ENDMDL
MODEL 5
REMARK VINA RESULT:      -3.7      1.850      4.536
REMARK  Name = *****
REMARK                            x       y       z     vdW  Elec       q    Type
REMARK                         _______ _______ _______ _____ _____    ______ ____
ROOT
ATOM      1  C   LIG    1       29.450 -19.321   6.920  0.00  0.00    +0.105 C 
ATOM      2  N   LIG    1       28.421 -18.874   5.971  0.00  0.00    -0.297 NA
ENDROOT
BRANCH   2   3
ATOM      3  C   LIG    1       27.649 -20.057   5.534  0.00  0.00    +0.120 C 
BRANCH   3   4
ATOM      4  C   LIG    1       26.292 -19.766   4.910  0.00  0.00    -0.026 A 
ATOM      5  C   LIG    1       25.074 -20.302   5.417  0.00  0.00    -0.013 A 
ATOM      6  C   LIG    1       23.857 -19.964   4.768  0.00  0.00    -0.018 A 
ATOM      7  C   LIG    1       22.634 -20.427   5.277  0.00  0.00    +0.008 A 
ATOM      8  C   LIG    1       22.584 -21.207   6.430  0.00  0.00    +0.001 A 
ATOM      9  C   LIG    1       23.765 -21.572   7.062  0.00  0.00    +0.001 A 
ATOM     10  C   LIG    1       23.873 -19.151   3.626  0.00  0.00    +0.008 A 
ATOM     11  C   LIG    1       25.067 -18.634   3.133  0.00  0.00    +0.001 A 
ATOM     12  C   LIG    1       24.992 -21.142   6.550  0.00  0.00    +0.009 A 
ATOM     13  C   LIG    1       26.264 -18.931   3.775  0.00  0.00    +0.005 A 
ENDBRANCH   3   4
ENDBRANCH   2   3
BRANCH   2  14
ATOM     14  C   LIG    1       29.015 -18.172   4.820  0.00  0.00    +0.112 C 
BRANCH  14  15
ATOM     15  C   LIG    1       28.110 -17.118   4.243  0.00  0.00    -0.003 C 
ATOM     16  C   LIG    1       27.934 -15.924   4.828  0.00  0.00    +0.057 C 
BRANCH  16  17
ATOM     17  C   LIG    1       27.040 -14.944   4.328  0.00  0.00    -0.074 C 
ATOM     18  C   LIG    1       26.219 -14.162   3.956  0.00  0.00    -0.092 C 
BRANCH  18  19
ATOM     19  C   LIG    1       25.150 -13.223   3.544  0.00  0.00    +0.024 C 
ATOM     20  C   LIG    1       24.929 -12.179   4.646  0.00  0.00    +0.024 C 
ATOM     21  C   LIG    1       23.854 -14.011   3.306  0.00  0.00    +0.024 C 
ATOM     22  C   LIG    1       25.570 -12.522   2.244  0.00  0.00    +0.024 C 
ENDBRANCH  18  19
ENDBRANCH  16  17
ENDBRANCH  14  15
ENDBRANCH   2  14
TORSDOF 6
ENDMDL
MODEL 6
REMARK VINA RESULT:      -3.7      1.891      3.961
REMARK  Name = *****
REMARK                            x       y       z     vdW  Elec       q    Type
REMARK                         _______ _______ _______ _____ _____    ______ ____
ROOT
ATOM      1  C   LIG    1       29.068 -20.194   7.061  0.00  0.00    +0.105 C 
ATOM      2  N   LIG    1       27.968 -19.839   6.153  0.00  0.00    -0.297 NA
ENDROOT
BRANCH   2   3
ATOM      3  C   LIG    1       27.189 -21.064   5.870  0.00  0.00    +0.120 C 
BRANCH   3   4
ATOM      4  C   LIG    1       25.676 -20.896   5.867  0.00  0.00    -0.026 A 
ATOM      5  C   LIG    1       24.968 -20.256   4.810  0.00  0.00    -0.013 A 
ATOM      6  C   LIG    1       23.555 -20.156   4.897  0.00  0.00    -0.018 A 
ATOM      7  C   LIG    1       22.822 -19.585   3.845  0.00  0.00    +0.008 A 
ATOM      8  C   LIG    1       23.457 -19.124   2.694  0.00  0.00    +0.001 A 
ATOM      9  C   LIG    1       24.841 -19.188   2.602  0.00  0.00    +0.001 A 
ATOM     10  C   LIG    1       22.885 -20.643   6.029  0.00  0.00    +0.008 A 
ATOM     11  C   LIG    1       23.583 -21.262   7.060  0.00  0.00    +0.001 A 
ATOM     12  C   LIG    1       25.586 -19.727   3.654  0.00  0.00    +0.009 A 
ATOM     13  C   LIG    1       24.964 -21.396   6.976  0.00  0.00    +0.005 A 
ENDBRANCH   3   4
ENDBRANCH   2   3
BRANCH   2  14
ATOM     14  C   LIG    1       28.470 -19.230   4.909  0.00  0.00    +0.112 C 
BRANCH  14  15
ATOM     15  C   LIG    1       28.082 -17.784   4.765  0.00  0.00    -0.003 C 
ATOM     16  C   LIG    1       27.241 -17.358   3.812  0.00  0.00    +0.057 C 
BRANCH  16  17
ATOM     17  C   LIG    1       26.912 -15.991   3.628  0.00  0.00    -0.074 C 
ATOM     18  C   LIG    1       26.645 -14.829   3.567  0.00  0.00    -0.092 C 
BRANCH  18  19
ATOM     19  C   LIG    1       26.334 -13.381   3.565  0.00  0.00    +0.024 C 
ATOM     20  C   LIG    1       27.639 -12.574   3.585  0.00  0.00    +0.024 C 
ATOM     21  C   LIG    1       25.496 -13.047   4.808  0.00  0.00    +0.024 C 
ATOM     22  C   LIG    1       25.533 -13.040   2.300  0.00  0.00    +0.024 C 
ENDBRANCH  18  19
ENDBRANCH  16  17
ENDBRANCH  14  15
ENDBRANCH   2  14
TORSDOF 6
ENDMDL
