MODEL 1
REMARK VINA RESULT:      -1.2      0.000      0.000
REMARK  Name = *****
REMARK                            x       y       z     vdW  Elec       q    Type
REMARK                         _______ _______ _______ _____ _____    ______ ____
ROOT
ATOM      1  C   LIG    1       27.270 -19.386   5.025  0.00  0.00    +0.110 A 
ATOM      2  N   LIG    1       27.210 -18.263   4.194  0.00  0.00    -0.324 N 
ATOM      3  C   LIG    1       28.283 -17.443   4.579  0.00  0.00    +0.062 A 
ATOM      4  C   LIG    1       28.973 -18.198   5.498  0.00  0.00    +0.138 A 
ATOM      5  N   LIG    1       28.405 -19.409   5.688  0.00  0.00    -0.240 NA
ENDROOT
BRANCH   3   6
ATOM      6  C   LIG    1       28.486 -16.129   4.078  0.00  0.00    +0.038 C 
ATOM      7  C   LIG    1       27.528 -15.168   3.968  0.00  0.00    +0.043 C 
BRANCH   7   8
ATOM      8  C   LIG    1       27.972 -13.862   3.388  0.00  0.00    +0.333 C 
ATOM      9  O   LIG    1       28.748 -13.110   3.940  0.00  0.00    -0.245 OA
BRANCH   8  10
ATOM     10  O   LIG    1       27.415 -13.520   2.205  0.00  0.00    -0.477 OA
ATOM     11  H   LIG    1       27.121 -12.605   2.071  0.00  0.00    +0.295 HD
ENDBRANCH   8  10
ENDBRANCH   7   8
BRANCH   7  12
ATOM     12  C   LIG    1       26.074 -15.216   4.501  0.00  0.00    +0.084 C 
BRANCH  12  13
ATOM     13  C   LIG    1       25.016 -14.119   4.300  0.00  0.00    -0.006 A 
ATOM     14  S   LIG    1       25.010 -12.780   5.409  0.00  0.00    -0.101 S 
ATOM     15  C   LIG    1       24.040 -11.827   4.370  0.00  0.00    +0.045 A 
ATOM     16  C   LIG    1       23.550 -12.570   3.324  0.00  0.00    +0.008 A 
ATOM     17  C   LIG    1       24.037 -13.915   3.343  0.00  0.00    +0.011 A 
ENDBRANCH  12  13
ENDBRANCH   7  12
ENDBRANCH   3   6
BRANCH   1  18
ATOM     18  C   LIG    1       26.215 -20.404   5.332  0.00  0.00    +0.074 C 
BRANCH  18  19
ATOM     19  C   LIG    1       25.894 -20.522   6.815  0.00  0.00    +0.007 C 
BRANCH  19  21
ATOM     20  C   LIG    1       23.405 -20.693   7.032  0.00  0.00    +0.004 C 
ATOM     21  C   LIG    1       24.716 -21.445   7.061  0.00  0.00    -0.003 C 
ENDBRANCH  19  21
ENDBRANCH  18  19
ENDBRANCH   1  18
BRANCH   2  22
ATOM     22  C   LIG    1       26.116 -17.901   3.275  0.00  0.00    +0.158 C 
BRANCH  22  23
ATOM     23  C   LIG    1       24.715 -18.364   3.663  0.00  0.00    -0.028 A 
ATOM     24  C   LIG    1       24.341 -19.693   3.381  0.00  0.00    +0.006 A 
ATOM     25  C   LIG    1       23.006 -20.115   3.513  0.00  0.00    +0.015 A 
ATOM     26  C   LIG    1       22.023 -19.212   3.932  0.00  0.00    +0.059 A 
ATOM     27  C   LIG    1       22.401 -17.913   4.284  0.00  0.00    +0.015 A 
ATOM     28  C   LIG    1       23.742 -17.513   4.204  0.00  0.00    +0.006 A 
BRANCH  26  29
ATOM     29  C   LIG    1       20.597 -19.658   3.891  0.00  0.00    +0.337 C 
ATOM     30  O   LIG    1       19.722 -19.011   3.400  0.00  0.00    -0.245 OA
BRANCH  29  31
ATOM     31  O   LIG    1       20.403 -20.886   4.450  0.00  0.00    -0.477 OA
ATOM     32  H   LIG    1       19.851 -21.504   3.951  0.00  0.00    +0.295 HD
ENDBRANCH  29  31
ENDBRANCH  26  29
ENDBRANCH  22  23
ENDBRANCH   2  22
TORSDOF 12
ENDMDL
MODEL 2
REMARK VINA RESULT:      -0.8      3.093      5.471
REMARK  Name = *****
REMARK                            x       y       z     vdW  Elec       q    Type
REMARK                         _______ _______ _______ _____ _____    ______ ____
ROOT
ATOM      1  C   LIG    1       23.069 -20.100   4.163  0.00  0.00    +0.110 A 
ATOM      2  N   LIG    1       23.259 -18.716   4.113  0.00  0.00    -0.324 N 
ATOM      3  C   LIG    1       24.552 -18.525   3.599  0.00  0.00    +0.062 A 
ATOM      4  C   LIG    1       24.969 -19.789   3.254  0.00  0.00    +0.138 A 
ATOM      5  N   LIG    1       24.026 -20.722   3.512  0.00  0.00    -0.240 NA
ENDROOT
BRANCH   3   6
ATOM      6  C   LIG    1       25.191 -17.258   3.530  0.00  0.00    +0.038 C 
ATOM      7  C   LIG    1       26.525 -17.034   3.693  0.00  0.00    +0.043 C 
BRANCH   7   8
ATOM      8  C   LIG    1       26.967 -15.607   3.602  0.00  0.00    +0.333 C 
ATOM      9  O   LIG    1       27.545 -15.024   4.494  0.00  0.00    -0.245 OA
BRANCH   8  10
ATOM     10  O   LIG    1       26.639 -14.958   2.462  0.00  0.00    -0.477 OA
ATOM     11  H   LIG    1       26.454 -14.008   2.500  0.00  0.00    +0.295 HD
ENDBRANCH   8  10
ENDBRANCH   7   8
BRANCH   7  12
ATOM     12  C   LIG    1       27.652 -18.089   3.820  0.00  0.00    +0.084 C 
BRANCH  12  13
ATOM     13  C   LIG    1       28.128 -18.729   5.135  0.00  0.00    -0.006 A 
ATOM     14  S   LIG    1       27.303 -20.156   5.691  0.00  0.00    -0.101 S 
ATOM     15  C   LIG    1       28.565 -20.553   6.776  0.00  0.00    +0.045 A 
ATOM     16  C   LIG    1       29.474 -19.529   6.881  0.00  0.00    +0.008 A 
ATOM     17  C   LIG    1       29.164 -18.440   6.006  0.00  0.00    +0.011 A 
ENDBRANCH  12  13
ENDBRANCH   7  12
ENDBRANCH   3   6
BRANCH   1  18
ATOM     18  C   LIG    1       22.064 -20.898   4.937  0.00  0.00    +0.074 C 
BRANCH  18  19
ATOM     19  C   LIG    1       22.620 -21.503   6.217  0.00  0.00    +0.007 C 
BRANCH  19  21
ATOM     20  C   LIG    1       24.928 -21.021   7.061  0.00  0.00    +0.004 C 
ATOM     21  C   LIG    1       23.505 -20.522   6.962  0.00  0.00    -0.003 C 
ENDBRANCH  19  21
ENDBRANCH  18  19
ENDBRANCH   1  18
BRANCH   2  22
ATOM     22  C   LIG    1       22.388 -17.681   4.698  0.00  0.00    +0.158 C 
BRANCH  22  23
ATOM     23  C   LIG    1       22.748 -16.231   4.392  0.00  0.00    -0.028 A 
ATOM     24  C   LIG    1       22.477 -15.725   3.105  0.00  0.00    +0.006 A 
ATOM     25  C   LIG    1       22.979 -14.477   2.695  0.00  0.00    +0.015 A 
ATOM     26  C   LIG    1       23.760 -13.713   3.569  0.00  0.00    +0.059 A 
ATOM     27  C   LIG    1       23.969 -14.175   4.871  0.00  0.00    +0.015 A 
ATOM     28  C   LIG    1       23.421 -15.394   5.293  0.00  0.00    +0.006 A 
BRANCH  26  29
ATOM     29  C   LIG    1       24.411 -12.479   3.033  0.00  0.00    +0.337 C 
ATOM     30  O   LIG    1       25.574 -12.414   2.770  0.00  0.00    -0.245 OA
BRANCH  29  31
ATOM     31  O   LIG    1       23.539 -11.447   2.855  0.00  0.00    -0.477 OA
ATOM     32  H   LIG    1       23.406 -10.860   3.613  0.00  0.00    +0.295 HD
ENDBRANCH  29  31
ENDBRANCH  26  29
ENDBRANCH  22  23
ENDBRANCH   2  22
TORSDOF 12
ENDMDL
