MODEL 1
REMARK VINA RESULT:      -4.7      0.000      0.000
REMARK  Name = *****
REMARK                            x       y       z     vdW  Elec       q    Type
REMARK                         _______ _______ _______ _____ _____    ______ ____
ROOT
ATOM      1  C   LIG    1       24.282 -20.505   4.644  0.00  0.00    +0.146 C 
ENDROOT
BRANCH   1   2
ATOM      2  C   LIG    1       25.324 -21.092   5.564  0.00  0.00    +0.032 C 
ATOM      3  C   LIG    1       26.414 -20.461   6.021  0.00  0.00    +0.079 C 
ATOM      4 CL   LIG    1       27.548 -21.210   7.062  0.00  0.00    -0.092 Cl
ENDBRANCH   1   2
BRANCH   1   6
ATOM      5  C   LIG    1       25.337 -18.494   3.309  0.00  0.00    +0.007 C 
ATOM      6  C   LIG    1       24.860 -19.403   3.912  0.00  0.00    -0.067 C 
ENDBRANCH   1   6
BRANCH   1   7
ATOM      7  C   LIG    1       23.054 -20.048   5.459  0.00  0.00    +0.049 C 
ATOM      8  C   LIG    1       22.254 -18.924   4.800  0.00  0.00    +0.008 C 
ENDBRANCH   1   7
BRANCH   1   9
ATOM      9  O   LIG    1       23.856 -21.504   3.719  0.00  0.00    -0.373 OA
ATOM     10  H   LIG    1       24.027 -21.151   2.830  0.00  0.00    +0.212 HD
ENDBRANCH   1   9
TORSDOF 4
ENDMDL
MODEL 2
REMARK VINA RESULT:      -4.6      6.127      7.561
REMARK  Name = *****
REMARK                            x       y       z     vdW  Elec       q    Type
REMARK                         _______ _______ _______ _____ _____    ______ ____
ROOT
ATOM      1  C   LIG    1       26.666 -14.503   3.219  0.00  0.00    +0.146 C 
ENDROOT
BRANCH   1   2
ATOM      2  C   LIG    1       25.538 -13.590   3.632  0.00  0.00    +0.032 C 
ATOM      3  C   LIG    1       24.884 -12.738   2.832  0.00  0.00    +0.079 C 
ATOM      4 CL   LIG    1       23.614 -11.734   3.391  0.00  0.00    -0.092 Cl
ENDBRANCH   1   2
BRANCH   1   6
ATOM      5  C   LIG    1       25.842 -17.003   3.324  0.00  0.00    +0.007 C 
ATOM      6  C   LIG    1       26.215 -15.873   3.277  0.00  0.00    -0.067 C 
ENDBRANCH   1   6
BRANCH   1   7
ATOM      7  C   LIG    1       27.888 -14.281   4.134  0.00  0.00    +0.049 C 
ATOM      8  C   LIG    1       28.677 -13.009   3.821  0.00  0.00    +0.008 C 
ENDBRANCH   1   7
BRANCH   1   9
ATOM      9  O   LIG    1       27.052 -14.196   1.880  0.00  0.00    -0.373 OA
ATOM     10  H   LIG    1       26.395 -14.615   1.299  0.00  0.00    +0.212 HD
ENDBRANCH   1   9
TORSDOF 4
ENDMDL
MODEL 3
REMARK VINA RESULT:      -4.5      6.386      7.534
REMARK  Name = *****
REMARK                            x       y       z     vdW  Elec       q    Type
REMARK                         _______ _______ _______ _____ _____    ______ ____
ROOT
ATOM      1  C   LIG    1       24.548 -13.183   3.735  0.00  0.00    +0.146 C 
ENDROOT
BRANCH   1   2
ATOM      2  C   LIG    1       25.999 -13.355   4.109  0.00  0.00    +0.032 C 
ATOM      3  C   LIG    1       27.038 -13.316   3.265  0.00  0.00    +0.079 C 
ATOM      4 CL   LIG    1       28.658 -13.527   3.781  0.00  0.00    -0.092 Cl
ENDBRANCH   1   2
BRANCH   1   6
ATOM      5  C   LIG    1       23.207 -15.337   4.444  0.00  0.00    +0.007 C 
ATOM      6  C   LIG    1       23.813 -14.364   4.124  0.00  0.00    -0.067 C 
ENDBRANCH   1   6
BRANCH   1   7
ATOM      7  C   LIG    1       24.420 -12.923   2.220  0.00  0.00    +0.049 C 
ATOM      8  C   LIG    1       24.254 -11.447   1.854  0.00  0.00    +0.008 C 
ENDBRANCH   1   7
BRANCH   1   9
ATOM      9  O   LIG    1       24.015 -12.055   4.427  0.00  0.00    -0.373 OA
ATOM     10  H   LIG    1       24.219 -11.275   3.885  0.00  0.00    +0.212 HD
ENDBRANCH   1   9
TORSDOF 4
ENDMDL
MODEL 4
REMARK VINA RESULT:      -4.4      5.275      6.425
REMARK  Name = *****
REMARK                            x       y       z     vdW  Elec       q    Type
REMARK                         _______ _______ _______ _____ _____    ______ ____
ROOT
ATOM      1  C   LIG    1       26.197 -14.109   3.046  0.00  0.00    +0.146 C 
ENDROOT
BRANCH   1   2
ATOM      2  C   LIG    1       25.606 -15.480   3.259  0.00  0.00    +0.032 C 
ATOM      3  C   LIG    1       26.280 -16.638   3.238  0.00  0.00    +0.079 C 
ATOM      4 CL   LIG    1       25.523 -18.154   3.486  0.00  0.00    -0.092 Cl
ENDBRANCH   1   2
BRANCH   1   6
ATOM      5  C   LIG    1       27.432 -13.346   5.244  0.00  0.00    +0.007 C 
ATOM      6  C   LIG    1       26.874 -13.690   4.251  0.00  0.00    -0.067 C 
ENDBRANCH   1   6
BRANCH   1   7
ATOM      7  C   LIG    1       25.088 -13.110   2.656  0.00  0.00    +0.049 C 
ATOM      8  C   LIG    1       23.979 -12.973   3.701  0.00  0.00    +0.008 C 
ENDBRANCH   1   7
BRANCH   1   9
ATOM      9  O   LIG    1       27.141 -14.165   1.978  0.00  0.00    -0.373 OA
ATOM     10  H   LIG    1       27.138 -15.080   1.652  0.00  0.00    +0.212 HD
ENDBRANCH   1   9
TORSDOF 4
ENDMDL
MODEL 5
REMARK VINA RESULT:      -4.4      5.330      6.461
REMARK  Name = *****
REMARK                            x       y       z     vdW  Elec       q    Type
REMARK                         _______ _______ _______ _____ _____    ______ ____
ROOT
ATOM      1  C   LIG    1       26.544 -14.152   3.187  0.00  0.00    +0.146 C 
ENDROOT
BRANCH   1   2
ATOM      2  C   LIG    1       26.713 -15.645   3.320  0.00  0.00    +0.032 C 
ATOM      3  C   LIG    1       25.727 -16.552   3.316  0.00  0.00    +0.079 C 
ATOM      4 CL   LIG    1       26.013 -18.232   3.478  0.00  0.00    -0.092 Cl
ENDBRANCH   1   2
BRANCH   1   6
ATOM      5  C   LIG    1       28.721 -12.951   4.056  0.00  0.00    +0.007 C 
ATOM      6  C   LIG    1       27.738 -13.494   3.663  0.00  0.00    -0.067 C 
ENDBRANCH   1   6
BRANCH   1   7
ATOM      7  C   LIG    1       25.301 -13.688   3.974  0.00  0.00    +0.049 C 
ATOM      8  C   LIG    1       24.237 -13.007   3.111  0.00  0.00    +0.008 C 
ENDBRANCH   1   7
BRANCH   1   9
ATOM      9  O   LIG    1       26.349 -13.823   1.812  0.00  0.00    -0.373 OA
ATOM     10  H   LIG    1       27.232 -13.666   1.436  0.00  0.00    +0.212 HD
ENDBRANCH   1   9
TORSDOF 4
ENDMDL
MODEL 6
REMARK VINA RESULT:      -4.3      6.293      7.326
REMARK  Name = *****
REMARK                            x       y       z     vdW  Elec       q    Type
REMARK                         _______ _______ _______ _____ _____    ______ ____
ROOT
ATOM      1  C   LIG    1       25.835 -13.766   2.874  0.00  0.00    +0.146 C 
ENDROOT
BRANCH   1   2
ATOM      2  C   LIG    1       26.765 -13.113   3.866  0.00  0.00    +0.032 C 
ATOM      3  C   LIG    1       28.097 -13.016   3.749  0.00  0.00    +0.079 C 
ATOM      4 CL   LIG    1       29.076 -12.257   4.931  0.00  0.00    -0.092 Cl
ENDBRANCH   1   2
BRANCH   1   6
ATOM      5  C   LIG    1       24.271 -11.932   1.812  0.00  0.00    +0.007 C 
ATOM      6  C   LIG    1       24.978 -12.761   2.292  0.00  0.00    -0.067 C 
ENDBRANCH   1   6
BRANCH   1   7
ATOM      7  C   LIG    1       25.009 -14.867   3.570  0.00  0.00    +0.049 C 
ATOM      8  C   LIG    1       23.824 -14.337   4.380  0.00  0.00    +0.008 C 
ENDBRANCH   1   7
BRANCH   1   9
ATOM      9  O   LIG    1       26.606 -14.376   1.839  0.00  0.00    -0.373 OA
ATOM     10  H   LIG    1       26.831 -15.269   2.150  0.00  0.00    +0.212 HD
ENDBRANCH   1   9
TORSDOF 4
ENDMDL
MODEL 7
REMARK VINA RESULT:      -4.3      6.059      7.297
REMARK  Name = *****
REMARK                            x       y       z     vdW  Elec       q    Type
REMARK                         _______ _______ _______ _____ _____    ______ ____
ROOT
ATOM      1  C   LIG    1       25.687 -13.721   3.686  0.00  0.00    +0.146 C 
ENDROOT
BRANCH   1   2
ATOM      2  C   LIG    1       24.741 -14.863   3.961  0.00  0.00    +0.032 C 
ATOM      3  C   LIG    1       23.483 -14.752   4.408  0.00  0.00    +0.079 C 
ATOM      4 CL   LIG    1       22.479 -16.108   4.697  0.00  0.00    -0.092 Cl
ENDBRANCH   1   2
BRANCH   1   6
ATOM      5  C   LIG    1       24.552 -12.038   2.009  0.00  0.00    +0.007 C 
ATOM      6  C   LIG    1       25.065 -12.798   2.767  0.00  0.00    -0.067 C 
ENDBRANCH   1   6
BRANCH   1   7
ATOM      7  C   LIG    1       27.016 -14.261   3.118  0.00  0.00    +0.049 C 
ATOM      8  C   LIG    1       28.257 -13.542   3.649  0.00  0.00    +0.008 C 
ENDBRANCH   1   7
BRANCH   1   9
ATOM      9  O   LIG    1       25.970 -13.041   4.908  0.00  0.00    -0.373 OA
ATOM     10  H   LIG    1       25.155 -12.575   5.161  0.00  0.00    +0.212 HD
ENDBRANCH   1   9
TORSDOF 4
ENDMDL
MODEL 8
REMARK VINA RESULT:      -4.3      5.629      7.024
REMARK  Name = *****
REMARK                            x       y       z     vdW  Elec       q    Type
REMARK                         _______ _______ _______ _____ _____    ______ ____
ROOT
ATOM      1  C   LIG    1       26.151 -13.761   3.565  0.00  0.00    +0.146 C 
ENDROOT
BRANCH   1   2
ATOM      2  C   LIG    1       25.641 -15.181   3.552  0.00  0.00    +0.032 C 
ATOM      3  C   LIG    1       26.374 -16.277   3.315  0.00  0.00    +0.079 C 
ATOM      4 CL   LIG    1       25.708 -17.854   3.317  0.00  0.00    -0.092 Cl
ENDBRANCH   1   2
BRANCH   1   6
ATOM      5  C   LIG    1       24.600 -12.269   2.046  0.00  0.00    +0.007 C 
ATOM      6  C   LIG    1       25.301 -12.943   2.732  0.00  0.00    -0.067 C 
ENDBRANCH   1   6
BRANCH   1   7
ATOM      7  C   LIG    1       27.613 -13.720   3.077  0.00  0.00    +0.049 C 
ATOM      8  C   LIG    1       28.554 -12.937   3.994  0.00  0.00    +0.008 C 
ENDBRANCH   1   7
BRANCH   1   9
ATOM      9  O   LIG    1       26.113 -13.261   4.901  0.00  0.00    -0.373 OA
ATOM     10  H   LIG    1       25.404 -12.596   4.928  0.00  0.00    +0.212 HD
ENDBRANCH   1   9
TORSDOF 4
ENDMDL
MODEL 9
REMARK VINA RESULT:      -4.2      2.941      4.061
REMARK  Name = *****
REMARK                            x       y       z     vdW  Elec       q    Type
REMARK                         _______ _______ _______ _____ _____    ______ ____
ROOT
ATOM      1  C   LIG    1       22.881 -20.647   4.931  0.00  0.00    +0.146 C 
ENDROOT
BRANCH   1   2
ATOM      2  C   LIG    1       22.385 -19.245   5.185  0.00  0.00    +0.032 C 
ATOM      3  C   LIG    1       22.592 -18.183   4.395  0.00  0.00    +0.079 C 
ATOM      4 CL   LIG    1       21.992 -16.622   4.767  0.00  0.00    -0.092 Cl
ENDBRANCH   1   2
BRANCH   1   6
ATOM      5  C   LIG    1       24.164 -21.513   7.062  0.00  0.00    +0.007 C 
ATOM      6  C   LIG    1       23.585 -21.122   6.099  0.00  0.00    -0.067 C 
ENDBRANCH   1   6
BRANCH   1   7
ATOM      7  C   LIG    1       23.793 -20.667   3.687  0.00  0.00    +0.049 C 
ATOM      8  C   LIG    1       25.230 -20.221   3.961  0.00  0.00    +0.008 C 
ENDBRANCH   1   7
BRANCH   1   9
ATOM      9  O   LIG    1       21.766 -21.501   4.680  0.00  0.00    -0.373 OA
ATOM     10  H   LIG    1       21.690 -21.582   3.714  0.00  0.00    +0.212 HD
ENDBRANCH   1   9
TORSDOF 4
ENDMDL
