MODEL 1
REMARK VINA RESULT:      -3.5      0.000      0.000
REMARK  Name = *****
REMARK                            x       y       z     vdW  Elec       q    Type
REMARK                         _______ _______ _______ _____ _____    ______ ____
ROOT
ATOM      1  C   LIG    1       24.983 -14.227   3.938  0.00  0.00    -0.024 C 
ATOM      2  C   LIG    1       24.857 -15.629   3.872  0.00  0.00    +0.050 C 
ATOM      3  C   LIG    1       25.933 -16.482   3.613  0.00  0.00    +0.004 C 
ATOM      4  C   LIG    1       25.415 -17.803   3.575  0.00  0.00    -0.014 C 
ATOM      5  C   LIG    1       26.067 -19.104   3.295  0.00  0.00    +0.065 C 
ATOM      6  C   LIG    1       25.194 -20.223   3.883  0.00  0.00    +0.166 C 
ATOM      7  O   LIG    1       23.806 -20.109   3.487  0.00  0.00    -0.366 OA
ATOM      8  C   LIG    1       23.106 -18.901   3.918  0.00  0.00    +0.119 C 
ATOM      9  C   LIG    1       24.064 -17.742   3.838  0.00  0.00    +0.053 C 
ATOM     10  C   LIG    1       27.213 -15.927   3.436  0.00  0.00    +0.010 C 
ATOM     11  C   LIG    1       27.377 -14.544   3.529  0.00  0.00    +0.001 C 
ATOM     12  N   LIG    1       23.738 -16.424   4.021  0.00  0.00    -0.355 NA
ATOM     13  H   LIG    1       22.815 -16.066   4.224  0.00  0.00    +0.166 HD
ATOM     14  C   LIG    1       26.283 -13.714   3.773  0.00  0.00    +0.006 C 
ENDROOT
BRANCH   1  16
ATOM     15  C   LIG    1       23.903 -12.046   3.290  0.00  0.00    +0.009 C 
ATOM     16  C   LIG    1       23.823 -13.289   4.160  0.00  0.00    +0.034 C 
ENDBRANCH   1  16
BRANCH   8  17
ATOM     17  C   LIG    1       21.910 -18.701   2.955  0.00  0.00    +0.038 C 
ATOM     18  C   LIG    1       20.565 -18.506   3.656  0.00  0.00    +0.007 C 
ENDBRANCH   8  17
BRANCH   8  19
ATOM     19  C   LIG    1       22.632 -19.089   5.370  0.00  0.00    +0.161 C 
BRANCH  19  20
ATOM     20  C   LIG    1       22.712 -20.502   5.894  0.00  0.00    +0.308 C 
ATOM     21  O   LIG    1       23.371 -20.800   6.879  0.00  0.00    -0.251 OA
BRANCH  20  22
ATOM     22  O   LIG    1       22.076 -21.435   5.154  0.00  0.00    -0.480 OA
ATOM     23  H   LIG    1       22.561 -21.686   4.334  0.00  0.00    +0.295 HD
ENDBRANCH  20  22
ENDBRANCH  19  20
ENDBRANCH   8  19
TORSDOF 5
ENDMDL
MODEL 2
REMARK VINA RESULT:      -2.4      3.593      6.771
REMARK  Name = *****
REMARK                            x       y       z     vdW  Elec       q    Type
REMARK                         _______ _______ _______ _____ _____    ______ ____
ROOT
ATOM      1  C   LIG    1       24.215 -18.351   3.740  0.00  0.00    -0.024 C 
ATOM      2  C   LIG    1       24.304 -16.961   3.956  0.00  0.00    +0.050 C 
ATOM      3  C   LIG    1       23.237 -16.191   4.427  0.00  0.00    +0.004 C 
ATOM      4  C   LIG    1       23.685 -14.844   4.469  0.00  0.00    -0.014 C 
ATOM      5  C   LIG    1       22.985 -13.590   4.834  0.00  0.00    +0.065 C 
ATOM      6  C   LIG    1       24.039 -12.535   5.203  0.00  0.00    +0.166 C 
ATOM      7  O   LIG    1       25.078 -12.415   4.203  0.00  0.00    -0.366 OA
ATOM      8  C   LIG    1       25.891 -13.606   3.968  0.00  0.00    +0.119 C 
ATOM      9  C   LIG    1       25.000 -14.817   4.063  0.00  0.00    +0.053 C 
ATOM     10  C   LIG    1       22.020 -16.828   4.729  0.00  0.00    +0.010 C 
ATOM     11  C   LIG    1       21.911 -18.209   4.558  0.00  0.00    +0.001 C 
ATOM     12  N   LIG    1       25.367 -16.102   3.760  0.00  0.00    -0.355 NA
ATOM     13  H   LIG    1       26.275 -16.395   3.428  0.00  0.00    +0.166 HD
ATOM     14  C   LIG    1       22.986 -18.952   4.071  0.00  0.00    +0.006 C 
ENDROOT
BRANCH   1  16
ATOM     15  C   LIG    1       26.049 -20.001   4.246  0.00  0.00    +0.009 C 
ATOM     16  C   LIG    1       25.338 -19.186   3.178  0.00  0.00    +0.034 C 
ENDBRANCH   1  16
BRANCH   8  17
ATOM     17  C   LIG    1       26.495 -13.472   2.547  0.00  0.00    +0.038 C 
ATOM     18  C   LIG    1       26.090 -12.194   1.812  0.00  0.00    +0.007 C 
ENDBRANCH   8  17
BRANCH   8  19
ATOM     19  C   LIG    1       26.992 -13.680   5.040  0.00  0.00    +0.161 C 
BRANCH  19  20
ATOM     20  C   LIG    1       28.280 -12.978   4.687  0.00  0.00    +0.308 C 
ATOM     21  O   LIG    1       28.966 -13.306   3.729  0.00  0.00    -0.251 OA
BRANCH  20  22
ATOM     22  O   LIG    1       28.673 -12.014   5.546  0.00  0.00    -0.480 OA
ATOM     23  H   LIG    1       27.963 -11.722   6.164  0.00  0.00    +0.295 HD
ENDBRANCH  20  22
ENDBRANCH  19  20
ENDBRANCH   8  19
TORSDOF 5
ENDMDL
MODEL 3
REMARK VINA RESULT:      -2.0      3.292      6.280
REMARK  Name = *****
REMARK                            x       y       z     vdW  Elec       q    Type
REMARK                         _______ _______ _______ _____ _____    ______ ____
ROOT
ATOM      1  C   LIG    1       23.626 -18.800   3.849  0.00  0.00    -0.024 C 
ATOM      2  C   LIG    1       24.410 -17.634   3.750  0.00  0.00    +0.050 C 
ATOM      3  C   LIG    1       25.808 -17.652   3.728  0.00  0.00    +0.004 C 
ATOM      4  C   LIG    1       26.239 -16.301   3.673  0.00  0.00    -0.014 C 
ATOM      5  C   LIG    1       27.595 -15.704   3.678  0.00  0.00    +0.065 C 
ATOM      6  C   LIG    1       27.506 -14.288   3.090  0.00  0.00    +0.166 C 
ATOM      7  O   LIG    1       26.461 -13.497   3.705  0.00  0.00    -0.366 OA
ATOM      8  C   LIG    1       25.096 -13.992   3.547  0.00  0.00    +0.119 C 
ATOM      9  C   LIG    1       25.122 -15.496   3.630  0.00  0.00    +0.053 C 
ATOM     10  C   LIG    1       26.473 -18.891   3.778  0.00  0.00    +0.010 C 
ATOM     11  C   LIG    1       25.722 -20.067   3.842  0.00  0.00    +0.001 C 
ATOM     12  N   LIG    1       24.023 -16.311   3.673  0.00  0.00    -0.355 NA
ATOM     13  H   LIG    1       23.060 -16.006   3.661  0.00  0.00    +0.166 HD
ATOM     14  C   LIG    1       24.329 -20.019   3.878  0.00  0.00    +0.006 C 
ENDROOT
BRANCH   1  16
ATOM     15  C   LIG    1       21.553 -20.141   4.350  0.00  0.00    +0.009 C 
ATOM     16  C   LIG    1       22.120 -18.794   3.932  0.00  0.00    +0.034 C 
ENDBRANCH   1  16
BRANCH   8  17
ATOM     17  C   LIG    1       24.257 -13.387   4.700  0.00  0.00    +0.038 C 
ATOM     18  C   LIG    1       24.718 -12.002   5.152  0.00  0.00    +0.007 C 
ENDBRANCH   8  17
BRANCH   8  19
ATOM     19  C   LIG    1       24.560 -13.553   2.173  0.00  0.00    +0.161 C 
BRANCH  19  20
ATOM     20  C   LIG    1       24.604 -12.067   1.912  0.00  0.00    +0.308 C 
ATOM     21  O   LIG    1       25.654 -11.447   1.827  0.00  0.00    -0.251 OA
BRANCH  20  22
ATOM     22  O   LIG    1       23.405 -11.448   1.861  0.00  0.00    -0.480 OA
ATOM     23  H   LIG    1       23.226 -11.006   0.999  0.00  0.00    +0.295 HD
ENDBRANCH  20  22
ENDBRANCH  19  20
ENDBRANCH   8  19
TORSDOF 5
ENDMDL
MODEL 4
REMARK VINA RESULT:      -1.2      1.525      2.070
REMARK  Name = *****
REMARK                            x       y       z     vdW  Elec       q    Type
REMARK                         _______ _______ _______ _____ _____    ______ ____
ROOT
ATOM      1  C   LIG    1       25.518 -14.233   3.087  0.00  0.00    -0.024 C 
ATOM      2  C   LIG    1       25.787 -15.568   3.448  0.00  0.00    +0.050 C 
ATOM      3  C   LIG    1       27.041 -16.003   3.886  0.00  0.00    +0.004 C 
ATOM      4  C   LIG    1       26.940 -17.402   4.106  0.00  0.00    -0.014 C 
ATOM      5  C   LIG    1       27.949 -18.403   4.524  0.00  0.00    +0.065 C 
ATOM      6  C   LIG    1       27.216 -19.624   5.098  0.00  0.00    +0.166 C 
ATOM      7  O   LIG    1       26.168 -20.104   4.222  0.00  0.00    -0.366 OA
ATOM      8  C   LIG    1       25.074 -19.175   3.951  0.00  0.00    +0.119 C 
ATOM      9  C   LIG    1       25.646 -17.787   3.837  0.00  0.00    +0.053 C 
ATOM     10  C   LIG    1       28.084 -15.066   4.002  0.00  0.00    +0.010 C 
ATOM     11  C   LIG    1       27.839 -13.729   3.683  0.00  0.00    +0.001 C 
ATOM     12  N   LIG    1       24.956 -16.670   3.444  0.00  0.00    -0.355 NA
ATOM     13  H   LIG    1       23.982 -16.641   3.177  0.00  0.00    +0.166 HD
ATOM     14  C   LIG    1       26.582 -13.325   3.234  0.00  0.00    +0.006 C 
ENDROOT
BRANCH   1  16
ATOM     15  C   LIG    1       23.900 -12.310   2.916  0.00  0.00    +0.009 C 
ATOM     16  C   LIG    1       24.187 -13.759   2.559  0.00  0.00    +0.034 C 
ENDBRANCH   1  16
BRANCH   8  17
ATOM     17  C   LIG    1       24.421 -19.618   2.618  0.00  0.00    +0.038 C 
ATOM     18  C   LIG    1       24.081 -21.107   2.550  0.00  0.00    +0.007 C 
ENDBRANCH   8  17
BRANCH   8  19
ATOM     19  C   LIG    1       24.068 -19.233   5.114  0.00  0.00    +0.161 C 
BRANCH  19  20
ATOM     20  C   LIG    1       22.629 -18.982   4.732  0.00  0.00    +0.308 C 
ATOM     21  O   LIG    1       22.208 -17.867   4.460  0.00  0.00    -0.251 OA
BRANCH  20  22
ATOM     22  O   LIG    1       21.815 -20.056   4.790  0.00  0.00    -0.480 OA
ATOM     23  H   LIG    1       22.296 -20.912   4.874  0.00  0.00    +0.295 HD
ENDBRANCH  20  22
ENDBRANCH  19  20
ENDBRANCH   8  19
TORSDOF 5
ENDMDL
MODEL 5
REMARK VINA RESULT:      -1.0      2.486      4.063
REMARK  Name = *****
REMARK                            x       y       z     vdW  Elec       q    Type
REMARK                         _______ _______ _______ _____ _____    ______ ____
ROOT
ATOM      1  C   LIG    1       27.860 -18.001   4.618  0.00  0.00    -0.024 C 
ATOM      2  C   LIG    1       26.793 -18.823   5.029  0.00  0.00    +0.050 C 
ATOM      3  C   LIG    1       26.913 -19.788   6.033  0.00  0.00    +0.004 C 
ATOM      4  C   LIG    1       25.658 -20.443   6.131  0.00  0.00    -0.014 C 
ATOM      5  C   LIG    1       25.205 -21.572   6.976  0.00  0.00    +0.065 C 
ATOM      6  C   LIG    1       23.671 -21.533   7.062  0.00  0.00    +0.166 C 
ATOM      7  O   LIG    1       23.046 -21.422   5.761  0.00  0.00    -0.366 OA
ATOM      8  C   LIG    1       23.353 -20.215   4.995  0.00  0.00    +0.119 C 
ATOM      9  C   LIG    1       24.797 -19.858   5.228  0.00  0.00    +0.053 C 
ATOM     10  C   LIG    1       28.148 -19.934   6.691  0.00  0.00    +0.010 C 
ATOM     11  C   LIG    1       29.216 -19.111   6.329  0.00  0.00    +0.001 C 
ATOM     12  N   LIG    1       25.491 -18.878   4.570  0.00  0.00    -0.355 NA
ATOM     13  H   LIG    1       25.124 -18.279   3.844  0.00  0.00    +0.166 HD
ATOM     14  C   LIG    1       29.073 -18.166   5.314  0.00  0.00    +0.006 C 
ENDROOT
BRANCH   1  16
ATOM     15  C   LIG    1       27.507 -15.584   4.002  0.00  0.00    +0.009 C 
ATOM     16  C   LIG    1       27.763 -16.995   3.499  0.00  0.00    +0.034 C 
ENDBRANCH   1  16
BRANCH   8  17
ATOM     17  C   LIG    1       23.096 -20.546   3.504  0.00  0.00    +0.038 C 
ATOM     18  C   LIG    1       24.141 -21.469   2.877  0.00  0.00    +0.007 C 
ENDBRANCH   8  17
BRANCH   8  19
ATOM     19  C   LIG    1       22.445 -19.071   5.480  0.00  0.00    +0.161 C 
BRANCH  19  20
ATOM     20  C   LIG    1       22.100 -18.039   4.435  0.00  0.00    +0.308 C 
ATOM     21  O   LIG    1       22.734 -17.003   4.301  0.00  0.00    -0.251 OA
BRANCH  20  22
ATOM     22  O   LIG    1       20.991 -18.294   3.708  0.00  0.00    -0.480 OA
ATOM     23  H   LIG    1       20.595 -17.491   3.298  0.00  0.00    +0.295 HD
ENDBRANCH  20  22
ENDBRANCH  19  20
ENDBRANCH   8  19
TORSDOF 5
ENDMDL
MODEL 6
REMARK VINA RESULT:      -0.6      1.476      3.330
REMARK  Name = *****
REMARK                            x       y       z     vdW  Elec       q    Type
REMARK                         _______ _______ _______ _____ _____    ______ ____
ROOT
ATOM      1  C   LIG    1       26.009 -14.317   3.095  0.00  0.00    -0.024 C 
ATOM      2  C   LIG    1       25.221 -15.417   3.485  0.00  0.00    +0.050 C 
ATOM      3  C   LIG    1       23.884 -15.300   3.876  0.00  0.00    +0.004 C 
ATOM      4  C   LIG    1       23.443 -16.598   4.242  0.00  0.00    -0.014 C 
ATOM      5  C   LIG    1       22.148 -17.079   4.776  0.00  0.00    +0.065 C 
ATOM      6  C   LIG    1       22.038 -18.587   4.506  0.00  0.00    +0.166 C 
ATOM      7  O   LIG    1       23.213 -19.314   4.937  0.00  0.00    -0.366 OA
ATOM      8  C   LIG    1       24.470 -18.964   4.279  0.00  0.00    +0.119 C 
ATOM      9  C   LIG    1       24.485 -17.477   4.043  0.00  0.00    +0.053 C 
ATOM     10  C   LIG    1       23.278 -14.030   3.854  0.00  0.00    +0.010 C 
ATOM     11  C   LIG    1       24.024 -12.925   3.439  0.00  0.00    +0.001 C 
ATOM     12  N   LIG    1       25.553 -16.754   3.581  0.00  0.00    -0.355 NA
ATOM     13  H   LIG    1       26.463 -17.126   3.350  0.00  0.00    +0.166 HD
ATOM     14  C   LIG    1       25.361 -13.068   3.070  0.00  0.00    +0.006 C 
ENDROOT
BRANCH   1  16
ATOM     15  C   LIG    1       28.368 -13.662   3.688  0.00  0.00    +0.009 C 
ATOM     16  C   LIG    1       27.468 -14.419   2.726  0.00  0.00    +0.034 C 
ENDBRANCH   1  16
BRANCH   8  17
ATOM     17  C   LIG    1       25.616 -19.386   5.233  0.00  0.00    +0.038 C 
ATOM     18  C   LIG    1       25.218 -20.444   6.262  0.00  0.00    +0.007 C 
ENDBRANCH   8  17
BRANCH   8  19
ATOM     19  C   LIG    1       24.555 -19.709   2.935  0.00  0.00    +0.161 C 
BRANCH  19  20
ATOM     20  C   LIG    1       23.823 -21.028   2.885  0.00  0.00    +0.308 C 
ATOM     21  O   LIG    1       23.461 -21.538   1.835  0.00  0.00    -0.251 OA
BRANCH  20  22
ATOM     22  O   LIG    1       23.518 -21.571   4.083  0.00  0.00    -0.480 OA
ATOM     23  H   LIG    1       24.286 -21.626   4.698  0.00  0.00    +0.295 HD
ENDBRANCH  20  22
ENDBRANCH  19  20
ENDBRANCH   8  19
TORSDOF 5
ENDMDL
