MODEL 1
REMARK VINA RESULT:      -5.3      0.000      0.000
REMARK  Name = *****
REMARK                            x       y       z     vdW  Elec       q    Type
REMARK                         _______ _______ _______ _____ _____    ______ ____
ROOT
ATOM      1  C   LIG    1       26.546 -18.003   3.459  0.00  0.00    +0.165 C 
ENDROOT
BRANCH   1   4
ATOM      2  C   LIG    1       23.404 -19.865   4.689  0.00  0.00    +0.121 A 
ATOM      3  C   LIG    1       24.255 -18.965   4.044  0.00  0.00    +0.055 A 
ATOM      4  C   LIG    1       25.659 -18.998   4.212  0.00  0.00    +0.027 A 
ATOM      5  C   LIG    1       26.189 -19.996   5.063  0.00  0.00    +0.126 A 
ATOM      6  C   LIG    1       25.325 -20.919   5.669  0.00  0.00    +0.049 A 
ATOM      7  C   LIG    1       23.950 -20.851   5.492  0.00  0.00    +0.049 A 
BRANCH   2   9
ATOM      8  C   LIG    1       21.676 -18.355   4.149  0.00  0.00    +0.277 C 
ATOM      9  O   LIG    1       22.069 -19.687   4.461  0.00  0.00    -0.495 OA
ENDBRANCH   2   9
BRANCH   5  10
ATOM     10  O   LIG    1       27.547 -20.011   5.290  0.00  0.00    -0.495 OA
ATOM     11  C   LIG    1       27.943 -20.396   6.615  0.00  0.00    +0.277 C 
ENDBRANCH   5  10
ENDBRANCH   1   4
BRANCH   1  12
ATOM     12  O   LIG    1       27.810 -17.848   4.123  0.00  0.00    -0.386 OA
ATOM     13  H   LIG    1       28.416 -17.476   3.456  0.00  0.00    +0.210 HD
ENDBRANCH   1  12
BRANCH   1  14
ATOM     14  C   LIG    1       25.934 -16.591   3.274  0.00  0.00    +0.140 C 
BRANCH  14  15
ATOM     15  N   LIG    1       26.785 -15.508   3.741  0.00  0.00    -0.311 N 
ATOM     16  H   LIG    1       26.964 -15.475   4.741  0.00  0.00    +0.149 HD
ATOM     17  C   LIG    1       26.936 -14.365   2.984  0.00  0.00    +0.227 C 
ATOM     18  O   LIG    1       26.526 -14.271   1.814  0.00  0.00    -0.274 OA
BRANCH  17  19
ATOM     19  C   LIG    1       27.717 -13.242   3.673  0.00  0.00    +0.174 C 
BRANCH  19  20
ATOM     20  N   LIG    1       29.153 -13.347   3.383  0.00  0.00    -0.323 NA
ATOM     21  H   LIG    1       29.689 -12.858   4.094  0.00  0.00    +0.119 HD
ATOM     22  H   LIG    1       29.412 -14.337   3.441  0.00  0.00    +0.119 HD
ENDBRANCH  19  20
ENDBRANCH  17  19
ENDBRANCH  14  15
ENDBRANCH   1  14
TORSDOF 8
ENDMDL
MODEL 2
REMARK VINA RESULT:      -5.1      1.981      3.902
REMARK  Name = *****
REMARK                            x       y       z     vdW  Elec       q    Type
REMARK                         _______ _______ _______ _____ _____    ______ ____
ROOT
ATOM      1  C   LIG    1       24.985 -19.359   3.908  0.00  0.00    +0.165 C 
ENDROOT
BRANCH   1   4
ATOM      2  C   LIG    1       27.919 -20.358   6.197  0.00  0.00    +0.121 A 
ATOM      3  C   LIG    1       27.152 -19.759   5.197  0.00  0.00    +0.055 A 
ATOM      4  C   LIG    1       25.785 -20.066   5.005  0.00  0.00    +0.027 A 
ATOM      5  C   LIG    1       25.202 -21.012   5.881  0.00  0.00    +0.126 A 
ATOM      6  C   LIG    1       25.975 -21.572   6.908  0.00  0.00    +0.049 A 
ATOM      7  C   LIG    1       27.317 -21.257   7.061  0.00  0.00    +0.049 A 
BRANCH   2   9
ATOM      8  C   LIG    1       29.475 -18.591   6.326  0.00  0.00    +0.277 C 
ATOM      9  O   LIG    1       29.235 -19.991   6.237  0.00  0.00    -0.495 OA
ENDBRANCH   2   9
BRANCH   5  10
ATOM     10  O   LIG    1       23.888 -21.371   5.677  0.00  0.00    -0.495 OA
ATOM     11  C   LIG    1       23.079 -21.433   6.861  0.00  0.00    +0.277 C 
ENDBRANCH   5  10
ENDBRANCH   1   4
BRANCH   1  12
ATOM     12  O   LIG    1       24.530 -20.301   2.925  0.00  0.00    -0.386 OA
ATOM     13  H   LIG    1       24.752 -21.182   3.278  0.00  0.00    +0.210 HD
ENDBRANCH   1  12
BRANCH   1  14
ATOM     14  C   LIG    1       25.748 -18.232   3.164  0.00  0.00    +0.140 C 
BRANCH  14  15
ATOM     15  N   LIG    1       25.185 -16.905   3.356  0.00  0.00    -0.311 N 
ATOM     16  H   LIG    1       24.192 -16.805   3.164  0.00  0.00    +0.149 HD
ATOM     17  C   LIG    1       26.000 -15.792   3.330  0.00  0.00    +0.227 C 
ATOM     18  O   LIG    1       27.242 -15.865   3.334  0.00  0.00    -0.274 OA
BRANCH  17  19
ATOM     19  C   LIG    1       25.255 -14.455   3.372  0.00  0.00    +0.174 C 
BRANCH  19  20
ATOM     20  N   LIG    1       25.670 -13.588   2.263  0.00  0.00    -0.323 NA
ATOM     21  H   LIG    1       26.141 -12.763   2.623  0.00  0.00    +0.119 HD
ATOM     22  H   LIG    1       26.355 -14.103   1.703  0.00  0.00    +0.119 HD
ENDBRANCH  19  20
ENDBRANCH  17  19
ENDBRANCH  14  15
ENDBRANCH   1  14
TORSDOF 8
ENDMDL
MODEL 3
REMARK VINA RESULT:      -5.0      1.072      1.297
REMARK  Name = *****
REMARK                            x       y       z     vdW  Elec       q    Type
REMARK                         _______ _______ _______ _____ _____    ______ ____
ROOT
ATOM      1  C   LIG    1       26.030 -18.493   3.459  0.00  0.00    +0.165 C 
ENDROOT
BRANCH   1   4
ATOM      2  C   LIG    1       22.307 -18.922   4.356  0.00  0.00    +0.121 A 
ATOM      3  C   LIG    1       23.508 -18.422   3.850  0.00  0.00    +0.055 A 
ATOM      4  C   LIG    1       24.746 -19.072   4.059  0.00  0.00    +0.027 A 
ATOM      5  C   LIG    1       24.732 -20.273   4.806  0.00  0.00    +0.126 A 
ATOM      6  C   LIG    1       23.512 -20.785   5.270  0.00  0.00    +0.049 A 
ATOM      7  C   LIG    1       22.315 -20.115   5.056  0.00  0.00    +0.049 A 
BRANCH   2   9
ATOM      8  C   LIG    1       20.219 -18.775   3.271  0.00  0.00    +0.277 C 
ATOM      9  O   LIG    1       21.196 -18.165   4.106  0.00  0.00    -0.495 OA
ENDBRANCH   2   9
BRANCH   5  10
ATOM     10  O   LIG    1       25.932 -20.893   5.074  0.00  0.00    -0.495 OA
ATOM     11  C   LIG    1       26.157 -21.219   6.454  0.00  0.00    +0.277 C 
ENDBRANCH   5  10
ENDBRANCH   1   4
BRANCH   1  12
ATOM     12  O   LIG    1       27.112 -18.576   4.398  0.00  0.00    -0.386 OA
ATOM     13  H   LIG    1       27.821 -19.069   3.944  0.00  0.00    +0.210 HD
ENDBRANCH   1  12
BRANCH   1  14
ATOM     14  C   LIG    1       25.925 -17.018   2.990  0.00  0.00    +0.140 C 
BRANCH  14  15
ATOM     15  N   LIG    1       26.825 -16.109   3.681  0.00  0.00    -0.311 N 
ATOM     16  H   LIG    1       27.008 -16.313   4.659  0.00  0.00    +0.149 HD
ATOM     17  C   LIG    1       27.026 -14.830   3.202  0.00  0.00    +0.227 C 
ATOM     18  O   LIG    1       26.618 -14.454   2.089  0.00  0.00    -0.274 OA
BRANCH  17  19
ATOM     19  C   LIG    1       27.859 -13.930   4.119  0.00  0.00    +0.174 C 
BRANCH  19  20
ATOM     20  N   LIG    1       28.739 -13.055   3.336  0.00  0.00    -0.323 NA
ATOM     21  H   LIG    1       29.481 -12.688   3.926  0.00  0.00    +0.119 HD
ATOM     22  H   LIG    1       29.186 -13.626   2.613  0.00  0.00    +0.119 HD
ENDBRANCH  19  20
ENDBRANCH  17  19
ENDBRANCH  14  15
ENDBRANCH   1  14
TORSDOF 8
ENDMDL
MODEL 4
REMARK VINA RESULT:      -4.7      1.281      1.388
REMARK  Name = *****
REMARK                            x       y       z     vdW  Elec       q    Type
REMARK                         _______ _______ _______ _____ _____    ______ ____
ROOT
ATOM      1  C   LIG    1       26.698 -18.421   3.697  0.00  0.00    +0.165 C 
ENDROOT
BRANCH   1   4
ATOM      2  C   LIG    1       24.220 -20.774   5.478  0.00  0.00    +0.121 A 
ATOM      3  C   LIG    1       24.772 -19.815   4.626  0.00  0.00    +0.055 A 
ATOM      4  C   LIG    1       26.141 -19.461   4.672  0.00  0.00    +0.027 A 
ATOM      5  C   LIG    1       26.953 -20.125   5.621  0.00  0.00    +0.126 A 
ATOM      6  C   LIG    1       26.392 -21.116   6.439  0.00  0.00    +0.049 A 
ATOM      7  C   LIG    1       25.042 -21.432   6.375  0.00  0.00    +0.049 A 
BRANCH   2   9
ATOM      8  C   LIG    1       22.134 -19.879   4.840  0.00  0.00    +0.277 C 
ATOM      9  O   LIG    1       22.876 -20.984   5.343  0.00  0.00    -0.495 OA
ENDBRANCH   2   9
BRANCH   5  10
ATOM     10  O   LIG    1       28.275 -19.754   5.726  0.00  0.00    -0.495 OA
ATOM     11  C   LIG    1       29.064 -20.548   6.625  0.00  0.00    +0.277 C 
ENDBRANCH   5  10
ENDBRANCH   1   4
BRANCH   1  12
ATOM     12  O   LIG    1       27.889 -17.817   4.225  0.00  0.00    -0.386 OA
ATOM     13  H   LIG    1       28.236 -17.248   3.513  0.00  0.00    +0.210 HD
ENDBRANCH   1  12
BRANCH   1  14
ATOM     14  C   LIG    1       25.716 -17.280   3.324  0.00  0.00    +0.140 C 
BRANCH  14  15
ATOM     15  N   LIG    1       26.331 -15.964   3.255  0.00  0.00    -0.311 N 
ATOM     16  H   LIG    1       27.347 -15.943   3.236  0.00  0.00    +0.149 HD
ATOM     17  C   LIG    1       25.633 -14.847   3.663  0.00  0.00    +0.227 C 
ATOM     18  O   LIG    1       24.417 -14.868   3.923  0.00  0.00    -0.274 OA
BRANCH  17  19
ATOM     19  C   LIG    1       26.458 -13.557   3.698  0.00  0.00    +0.174 C 
BRANCH  19  20
ATOM     20  N   LIG    1       27.661 -13.681   2.866  0.00  0.00    -0.323 NA
ATOM     21  H   LIG    1       27.452 -14.215   2.028  0.00  0.00    +0.119 HD
ATOM     22  H   LIG    1       27.929 -12.740   2.563  0.00  0.00    +0.119 HD
ENDBRANCH  19  20
ENDBRANCH  17  19
ENDBRANCH  14  15
ENDBRANCH   1  14
TORSDOF 8
ENDMDL
MODEL 5
REMARK VINA RESULT:      -4.5      2.330      4.823
REMARK  Name = *****
REMARK                            x       y       z     vdW  Elec       q    Type
REMARK                         _______ _______ _______ _____ _____    ______ ____
ROOT
ATOM      1  C   LIG    1       25.183 -19.735   3.457  0.00  0.00    +0.165 C 
ENDROOT
BRANCH   1   4
ATOM      2  C   LIG    1       23.636 -16.264   4.099  0.00  0.00    +0.121 A 
ATOM      3  C   LIG    1       24.520 -17.287   3.750  0.00  0.00    +0.055 A 
ATOM      4  C   LIG    1       24.184 -18.655   3.881  0.00  0.00    +0.027 A 
ATOM      5  C   LIG    1       22.897 -18.964   4.380  0.00  0.00    +0.126 A 
ATOM      6  C   LIG    1       22.006 -17.925   4.685  0.00  0.00    +0.049 A 
ATOM      7  C   LIG    1       22.371 -16.593   4.555  0.00  0.00    +0.049 A 
BRANCH   2   9
ATOM      8  C   LIG    1       25.504 -14.891   3.672  0.00  0.00    +0.277 C 
ATOM      9  O   LIG    1       24.113 -14.992   3.954  0.00  0.00    -0.495 OA
ENDBRANCH   2   9
BRANCH   5  10
ATOM     10  O   LIG    1       22.570 -20.287   4.573  0.00  0.00    -0.495 OA
ATOM     11  C   LIG    1       22.732 -20.768   5.916  0.00  0.00    +0.277 C 
ENDBRANCH   5  10
ENDBRANCH   1   4
BRANCH   1  12
ATOM     12  O   LIG    1       24.514 -20.803   2.771  0.00  0.00    -0.386 OA
ATOM     13  H   LIG    1       23.891 -21.186   3.416  0.00  0.00    +0.210 HD
ENDBRANCH   1  12
BRANCH   1  14
ATOM     14  C   LIG    1       26.002 -20.359   4.617  0.00  0.00    +0.140 C 
BRANCH  14  15
ATOM     15  N   LIG    1       27.290 -19.724   4.844  0.00  0.00    -0.311 N 
ATOM     16  H   LIG    1       27.831 -19.491   4.016  0.00  0.00    +0.149 HD
ATOM     17  C   LIG    1       27.930 -19.862   6.059  0.00  0.00    +0.227 C 
ATOM     18  O   LIG    1       27.380 -20.356   7.059  0.00  0.00    -0.274 OA
BRANCH  17  19
ATOM     19  C   LIG    1       29.349 -19.288   6.101  0.00  0.00    +0.174 C 
BRANCH  19  20
ATOM     20  N   LIG    1       29.459 -18.097   5.250  0.00  0.00    -0.323 NA
ATOM     21  H   LIG    1       28.599 -17.557   5.293  0.00  0.00    +0.119 HD
ATOM     22  H   LIG    1       30.202 -17.506   5.634  0.00  0.00    +0.119 HD
ENDBRANCH  19  20
ENDBRANCH  17  19
ENDBRANCH  14  15
ENDBRANCH   1  14
TORSDOF 8
ENDMDL
MODEL 6
REMARK VINA RESULT:      -3.9      1.476      3.463
REMARK  Name = *****
REMARK                            x       y       z     vdW  Elec       q    Type
REMARK                         _______ _______ _______ _____ _____    ______ ____
ROOT
ATOM      1  C   LIG    1       25.615 -18.246   3.465  0.00  0.00    +0.165 C 
ENDROOT
BRANCH   1   4
ATOM      2  C   LIG    1       26.194 -20.986   6.112  0.00  0.00    +0.121 A 
ATOM      3  C   LIG    1       26.395 -19.946   5.203  0.00  0.00    +0.055 A 
ATOM      4  C   LIG    1       25.343 -19.404   4.428  0.00  0.00    +0.027 A 
ATOM      5  C   LIG    1       24.052 -19.952   4.611  0.00  0.00    +0.126 A 
ATOM      6  C   LIG    1       23.859 -20.967   5.559  0.00  0.00    +0.049 A 
ATOM      7  C   LIG    1       24.916 -21.483   6.295  0.00  0.00    +0.049 A 
BRANCH   2   9
ATOM      8  C   LIG    1       28.471 -20.622   6.602  0.00  0.00    +0.277 C 
ATOM      9  O   LIG    1       27.311 -21.431   6.761  0.00  0.00    -0.495 OA
ENDBRANCH   2   9
BRANCH   5  10
ATOM     10  O   LIG    1       23.023 -19.483   3.825  0.00  0.00    -0.495 OA
ATOM     11  C   LIG    1       22.159 -18.525   4.455  0.00  0.00    +0.277 C 
ENDBRANCH   5  10
ENDBRANCH   1   4
BRANCH   1  12
ATOM     12  O   LIG    1       25.857 -18.736   2.137  0.00  0.00    -0.386 OA
ATOM     13  H   LIG    1       25.570 -19.669   2.142  0.00  0.00    +0.210 HD
ENDBRANCH   1  12
BRANCH   1  14
ATOM     14  C   LIG    1       26.809 -17.336   3.856  0.00  0.00    +0.140 C 
BRANCH  14  15
ATOM     15  N   LIG    1       26.809 -16.039   3.198  0.00  0.00    -0.311 N 
ATOM     16  H   LIG    1       27.714 -15.687   2.898  0.00  0.00    +0.149 HD
ATOM     17  C   LIG    1       25.765 -15.159   3.393  0.00  0.00    +0.227 C 
ATOM     18  O   LIG    1       24.709 -15.481   3.966  0.00  0.00    -0.274 OA
BRANCH  17  19
ATOM     19  C   LIG    1       25.977 -13.772   2.781  0.00  0.00    +0.174 C 
BRANCH  19  20
ATOM     20  N   LIG    1       27.408 -13.475   2.638  0.00  0.00    -0.323 NA
ATOM     21  H   LIG    1       27.581 -13.015   1.748  0.00  0.00    +0.119 HD
ATOM     22  H   LIG    1       27.664 -12.810   3.373  0.00  0.00    +0.119 HD
ENDBRANCH  19  20
ENDBRANCH  17  19
ENDBRANCH  14  15
ENDBRANCH   1  14
TORSDOF 8
ENDMDL
MODEL 7
REMARK VINA RESULT:      -3.6      2.704      6.660
REMARK  Name = *****
REMARK                            x       y       z     vdW  Elec       q    Type
REMARK                         _______ _______ _______ _____ _____    ______ ____
ROOT
ATOM      1  C   LIG    1       26.602 -17.028   4.031  0.00  0.00    +0.165 C 
ENDROOT
BRANCH   1   4
ATOM      2  C   LIG    1       27.479 -13.336   3.360  0.00  0.00    +0.121 A 
ATOM      3  C   LIG    1       27.575 -14.701   3.636  0.00  0.00    +0.055 A 
ATOM      4  C   LIG    1       26.436 -15.532   3.753  0.00  0.00    +0.027 A 
ATOM      5  C   LIG    1       25.170 -14.929   3.569  0.00  0.00    +0.126 A 
ATOM      6  C   LIG    1       25.092 -13.566   3.249  0.00  0.00    +0.049 A 
ATOM      7  C   LIG    1       26.230 -12.777   3.153  0.00  0.00    +0.049 A 
BRANCH   2   9
ATOM      8  C   LIG    1       29.101 -12.113   4.556  0.00  0.00    +0.277 C 
ATOM      9  O   LIG    1       28.662 -12.654   3.315  0.00  0.00    -0.495 OA
ENDBRANCH   2   9
BRANCH   5  10
ATOM     10  O   LIG    1       24.044 -15.705   3.737  0.00  0.00    -0.495 OA
ATOM     11  C   LIG    1       23.091 -15.202   4.685  0.00  0.00    +0.277 C 
ENDBRANCH   5  10
ENDBRANCH   1   4
BRANCH   1  12
ATOM     12  O   LIG    1       27.988 -17.401   3.991  0.00  0.00    -0.386 OA
ATOM     13  H   LIG    1       28.354 -17.158   4.861  0.00  0.00    +0.210 HD
ENDBRANCH   1  12
BRANCH   1  14
ATOM     14  C   LIG    1       25.833 -17.964   3.062  0.00  0.00    +0.140 C 
BRANCH  14  15
ATOM     15  N   LIG    1       25.589 -19.296   3.590  0.00  0.00    -0.311 N 
ATOM     16  H   LIG    1       26.328 -19.979   3.448  0.00  0.00    +0.149 HD
ATOM     17  C   LIG    1       24.300 -19.726   3.828  0.00  0.00    +0.227 C 
ATOM     18  O   LIG    1       23.317 -18.966   3.789  0.00  0.00    -0.274 OA
BRANCH  17  19
ATOM     19  C   LIG    1       24.182 -21.202   4.217  0.00  0.00    +0.174 C 
BRANCH  19  20
ATOM     20  N   LIG    1       25.212 -21.571   5.196  0.00  0.00    -0.323 NA
ATOM     21  H   LIG    1       24.942 -21.254   6.122  0.00  0.00    +0.119 HD
ATOM     22  H   LIG    1       25.257 -22.594   5.231  0.00  0.00    +0.119 HD
ENDBRANCH  19  20
ENDBRANCH  17  19
ENDBRANCH  14  15
ENDBRANCH   1  14
TORSDOF 8
ENDMDL
MODEL 8
REMARK VINA RESULT:      -3.5      2.684      6.479
REMARK  Name = *****
REMARK                            x       y       z     vdW  Elec       q    Type
REMARK                         _______ _______ _______ _____ _____    ______ ____
ROOT
ATOM      1  C   LIG    1       25.341 -17.521   3.194  0.00  0.00    +0.165 C 
ENDROOT
BRANCH   1   4
ATOM      2  C   LIG    1       27.133 -14.154   3.747  0.00  0.00    +0.121 A 
ATOM      3  C   LIG    1       26.872 -15.495   3.459  0.00  0.00    +0.055 A 
ATOM      4  C   LIG    1       25.574 -16.049   3.547  0.00  0.00    +0.027 A 
ATOM      5  C   LIG    1       24.523 -15.186   3.935  0.00  0.00    +0.126 A 
ATOM      6  C   LIG    1       24.794 -13.832   4.178  0.00  0.00    +0.049 A 
ATOM      7  C   LIG    1       26.083 -13.323   4.093  0.00  0.00    +0.049 A 
BRANCH   2   9
ATOM      8  C   LIG    1       28.765 -12.548   4.308  0.00  0.00    +0.277 C 
ATOM      9  O   LIG    1       28.442 -13.771   3.656  0.00  0.00    -0.495 OA
ENDBRANCH   2   9
BRANCH   5  10
ATOM     10  O   LIG    1       23.261 -15.715   4.085  0.00  0.00    -0.495 OA
ATOM     11  C   LIG    1       22.583 -15.347   5.296  0.00  0.00    +0.277 C 
ENDBRANCH   5  10
ENDBRANCH   1   4
BRANCH   1  12
ATOM     12  O   LIG    1       24.110 -17.990   3.764  0.00  0.00    -0.386 OA
ATOM     13  H   LIG    1       23.752 -18.638   3.129  0.00  0.00    +0.210 HD
ENDBRANCH   1  12
BRANCH   1  14
ATOM     14  C   LIG    1       26.467 -18.487   3.643  0.00  0.00    +0.140 C 
BRANCH  14  15
ATOM     15  N   LIG    1       26.004 -19.611   4.443  0.00  0.00    -0.311 N 
ATOM     16  H   LIG    1       25.002 -19.779   4.444  0.00  0.00    +0.149 HD
ATOM     17  C   LIG    1       26.779 -20.097   5.475  0.00  0.00    +0.227 C 
ATOM     18  O   LIG    1       27.958 -19.746   5.657  0.00  0.00    -0.274 OA
BRANCH  17  19
ATOM     19  C   LIG    1       26.096 -21.162   6.338  0.00  0.00    +0.174 C 
BRANCH  19  20
ATOM     20  N   LIG    1       24.677 -20.845   6.539  0.00  0.00    -0.323 NA
ATOM     21  H   LIG    1       24.582 -19.919   6.948  0.00  0.00    +0.119 HD
ATOM     22  H   LIG    1       24.230 -20.812   5.618  0.00  0.00    +0.119 HD
ENDBRANCH  19  20
ENDBRANCH  17  19
ENDBRANCH  14  15
ENDBRANCH   1  14
TORSDOF 8
ENDMDL
MODEL 9
REMARK VINA RESULT:      -3.3      3.075      5.682
REMARK  Name = *****
REMARK                            x       y       z     vdW  Elec       q    Type
REMARK                         _______ _______ _______ _____ _____    ______ ____
ROOT
ATOM      1  C   LIG    1       27.220 -16.729   3.330  0.00  0.00    +0.165 C 
ENDROOT
BRANCH   1   4
ATOM      2  C   LIG    1       24.163 -14.535   4.162  0.00  0.00    +0.121 A 
ATOM      3  C   LIG    1       24.971 -15.610   3.787  0.00  0.00    +0.055 A 
ATOM      4  C   LIG    1       26.381 -15.510   3.723  0.00  0.00    +0.027 A 
ATOM      5  C   LIG    1       26.961 -14.267   4.064  0.00  0.00    +0.126 A 
ATOM      6  C   LIG    1       26.138 -13.210   4.481  0.00  0.00    +0.049 A 
ATOM      7  C   LIG    1       24.757 -13.338   4.521  0.00  0.00    +0.049 A 
BRANCH   2   9
ATOM      8  C   LIG    1       22.382 -15.893   4.896  0.00  0.00    +0.277 C 
ATOM      9  O   LIG    1       22.816 -14.769   4.141  0.00  0.00    -0.495 OA
ENDBRANCH   2   9
BRANCH   5  10
ATOM     10  O   LIG    1       28.326 -14.127   3.952  0.00  0.00    -0.495 OA
ATOM     11  C   LIG    1       28.791 -12.782   3.763  0.00  0.00    +0.277 C 
ENDBRANCH   5  10
ENDBRANCH   1   4
BRANCH   1  12
ATOM     12  O   LIG    1       26.375 -17.824   2.944  0.00  0.00    -0.386 OA
ATOM     13  H   LIG    1       26.599 -18.018   2.015  0.00  0.00    +0.210 HD
ENDBRANCH   1  12
BRANCH   1  14
ATOM     14  C   LIG    1       28.183 -17.242   4.432  0.00  0.00    +0.140 C 
BRANCH  14  15
ATOM     15  N   LIG    1       27.993 -18.641   4.784  0.00  0.00    -0.311 N 
ATOM     16  H   LIG    1       27.165 -19.092   4.405  0.00  0.00    +0.149 HD
ATOM     17  C   LIG    1       28.604 -19.166   5.904  0.00  0.00    +0.227 C 
ATOM     18  O   LIG    1       29.474 -18.554   6.548  0.00  0.00    -0.274 OA
BRANCH  17  19
ATOM     19  C   LIG    1       28.181 -20.596   6.249  0.00  0.00    +0.174 C 
BRANCH  19  20
ATOM     20  N   LIG    1       26.801 -20.854   5.820  0.00  0.00    -0.323 NA
ATOM     21  H   LIG    1       26.151 -20.575   6.550  0.00  0.00    +0.119 HD
ATOM     22  H   LIG    1       26.610 -20.260   5.007  0.00  0.00    +0.119 HD
ENDBRANCH  19  20
ENDBRANCH  17  19
ENDBRANCH  14  15
ENDBRANCH   1  14
TORSDOF 8
ENDMDL
