MODEL 1
REMARK VINA RESULT:      -5.1      0.000      0.000
REMARK  Name = *****
REMARK                            x       y       z     vdW  Elec       q    Type
REMARK                         _______ _______ _______ _____ _____    ______ ____
ROOT
ATOM      1  C   LIG    1       25.042 -17.453   3.253  0.00  0.00    +0.144 C 
ENDROOT
BRANCH   1   2
ATOM      2  C   LIG    1       24.404 -18.731   3.891  0.00  0.00    -0.003 C 
ATOM      3  C   LIG    1       22.987 -18.391   4.462  0.00  0.00    +0.012 C 
ATOM      4  C   LIG    1       22.353 -19.605   5.162  0.00  0.00    -0.007 C 
ATOM      5  C   LIG    1       23.250 -20.039   6.325  0.00  0.00    +0.038 C 
ATOM      6  C   LIG    1       24.641 -20.416   5.794  0.00  0.00    +0.067 C 
ATOM      7  C   LIG    1       24.511 -21.570   4.789  0.00  0.00    +0.038 C 
ATOM      8  C   LIG    1       23.611 -21.141   3.618  0.00  0.00    -0.007 C 
ATOM      9  C   LIG    1       22.224 -20.757   4.153  0.00  0.00    +0.007 C 
ATOM     10  C   LIG    1       25.274 -19.204   5.090  0.00  0.00    +0.043 C 
ATOM     11  C   LIG    1       24.238 -19.925   2.911  0.00  0.00    +0.012 C 
BRANCH   6  12
ATOM     12  O   LIG    1       25.473 -20.800   6.880  0.00  0.00    -0.389 OA
ATOM     13  H   LIG    1       25.970 -20.016   7.172  0.00  0.00    +0.210 HD
ENDBRANCH   6  12
ENDBRANCH   1   2
BRANCH   1  16
ATOM     14  C   LIG    1       25.347 -13.862   4.735  0.00  0.00    +0.179 C 
ATOM     15  N   LIG    1       25.579 -15.106   3.973  0.00  0.00    -0.281 N 
ATOM     16  C   LIG    1       24.613 -16.092   3.891  0.00  0.00    +0.234 C 
ATOM     17  O   LIG    1       23.505 -15.926   4.407  0.00  0.00    -0.274 OA
ATOM     18  C   LIG    1       26.935 -15.174   3.509  0.00  0.00    +0.081 C 
ATOM     19  C   LIG    1       27.683 -13.973   4.003  0.00  0.00    +0.014 C 
ATOM     20  C   LIG    1       27.459 -14.168   2.526  0.00  0.00    +0.028 C 
ATOM     21  C   LIG    1       26.741 -13.196   4.884  0.00  0.00    +0.043 C 
BRANCH  14  23
ATOM     22  N   LIG    1       23.723 -12.179   3.512  0.00  0.00    -0.195 NA
ATOM     23  C   LIG    1       24.412 -12.938   4.060  0.00  0.00    +0.085 C 
ENDBRANCH  14  23
ENDBRANCH   1  16
BRANCH   1  24
ATOM     24  N   LIG    1       26.525 -17.462   3.265  0.00  0.00    -0.320 NA
ATOM     25  H   LIG    1       26.887 -16.585   2.903  0.00  0.00    +0.119 HD
ATOM     26  H   LIG    1       26.849 -18.194   2.629  0.00  0.00    +0.119 HD
ENDBRANCH   1  24
TORSDOF 5
ENDMDL
MODEL 2
REMARK VINA RESULT:      -3.6      1.218      2.061
REMARK  Name = *****
REMARK                            x       y       z     vdW  Elec       q    Type
REMARK                         _______ _______ _______ _____ _____    ______ ____
ROOT
ATOM      1  C   LIG    1       25.446 -17.300   3.317  0.00  0.00    +0.144 C 
ENDROOT
BRANCH   1   2
ATOM      2  C   LIG    1       24.730 -18.564   3.896  0.00  0.00    -0.003 C 
ATOM      3  C   LIG    1       25.735 -19.398   4.758  0.00  0.00    +0.012 C 
ATOM      4  C   LIG    1       25.089 -20.689   5.289  0.00  0.00    -0.007 C 
ATOM      5  C   LIG    1       24.641 -21.550   4.104  0.00  0.00    +0.038 C 
ATOM      6  C   LIG    1       23.623 -20.774   3.255  0.00  0.00    +0.067 C 
ATOM      7  C   LIG    1       22.404 -20.413   4.117  0.00  0.00    +0.038 C 
ATOM      8  C   LIG    1       22.847 -19.548   5.309  0.00  0.00    -0.007 C 
ATOM      9  C   LIG    1       23.870 -20.324   6.151  0.00  0.00    +0.007 C 
ATOM     10  C   LIG    1       24.267 -19.480   2.727  0.00  0.00    +0.043 C 
ATOM     11  C   LIG    1       23.497 -18.253   4.787  0.00  0.00    +0.012 C 
BRANCH   6  12
ATOM     12  O   LIG    1       23.225 -21.571   2.148  0.00  0.00    -0.389 OA
ATOM     13  H   LIG    1       23.205 -22.500   2.437  0.00  0.00    +0.210 HD
ENDBRANCH   6  12
ENDBRANCH   1   2
BRANCH   1  16
ATOM     14  C   LIG    1       25.269 -13.616   4.577  0.00  0.00    +0.179 C 
ATOM     15  N   LIG    1       25.719 -14.892   3.984  0.00  0.00    -0.281 N 
ATOM     16  C   LIG    1       24.833 -15.924   3.734  0.00  0.00    +0.234 C 
ATOM     17  O   LIG    1       23.626 -15.778   3.948  0.00  0.00    -0.274 OA
ATOM     18  C   LIG    1       27.149 -14.927   3.875  0.00  0.00    +0.081 C 
ATOM     19  C   LIG    1       27.715 -13.665   4.453  0.00  0.00    +0.014 C 
ATOM     20  C   LIG    1       27.872 -13.958   2.984  0.00  0.00    +0.028 C 
ATOM     21  C   LIG    1       26.562 -12.880   5.019  0.00  0.00    +0.043 C 
BRANCH  14  23
ATOM     22  N   LIG    1       23.892 -12.080   2.931  0.00  0.00    -0.195 NA
ATOM     23  C   LIG    1       24.505 -12.777   3.630  0.00  0.00    +0.085 C 
ENDBRANCH  14  23
ENDBRANCH   1  16
BRANCH   1  24
ATOM     24  N   LIG    1       26.887 -17.227   3.659  0.00  0.00    -0.320 NA
ATOM     25  H   LIG    1       27.109 -17.883   4.403  0.00  0.00    +0.119 HD
ATOM     26  H   LIG    1       27.085 -16.294   4.028  0.00  0.00    +0.119 HD
ENDBRANCH   1  24
TORSDOF 5
ENDMDL
MODEL 3
REMARK VINA RESULT:      -3.4      2.142      6.459
REMARK  Name = *****
REMARK                            x       y       z     vdW  Elec       q    Type
REMARK                         _______ _______ _______ _____ _____    ______ ____
ROOT
ATOM      1  C   LIG    1       26.248 -17.003   3.906  0.00  0.00    +0.144 C 
ENDROOT
BRANCH   1   2
ATOM      2  C   LIG    1       25.977 -15.464   3.822  0.00  0.00    -0.003 C 
ATOM      3  C   LIG    1       26.274 -14.949   2.375  0.00  0.00    +0.012 C 
ATOM      4  C   LIG    1       26.087 -13.426   2.267  0.00  0.00    -0.007 C 
ATOM      5  C   LIG    1       27.052 -12.732   3.233  0.00  0.00    +0.038 C 
ATOM      6  C   LIG    1       26.764 -13.189   4.671  0.00  0.00    +0.067 C 
ATOM      7  C   LIG    1       25.317 -12.828   5.043  0.00  0.00    +0.038 C 
ATOM      8  C   LIG    1       24.343 -13.521   4.077  0.00  0.00    -0.007 C 
ATOM      9  C   LIG    1       24.640 -13.070   2.640  0.00  0.00    +0.007 C 
ATOM     10  C   LIG    1       26.946 -14.712   4.778  0.00  0.00    +0.043 C 
ATOM     11  C   LIG    1       24.524 -15.048   4.177  0.00  0.00    +0.012 C 
BRANCH   6  12
ATOM     12  O   LIG    1       27.674 -12.556   5.560  0.00  0.00    -0.389 OA
ATOM     13  H   LIG    1       28.352 -12.105   5.027  0.00  0.00    +0.210 HD
ENDBRANCH   6  12
ENDBRANCH   1   2
BRANCH   1  16
ATOM     14  C   LIG    1       24.038 -20.212   3.941  0.00  0.00    +0.179 C 
ATOM     15  N   LIG    1       25.066 -19.195   4.241  0.00  0.00    -0.281 N 
ATOM     16  C   LIG    1       25.000 -17.922   3.705  0.00  0.00    +0.234 C 
ATOM     17  O   LIG    1       24.041 -17.587   3.006  0.00  0.00    -0.274 OA
ATOM     18  C   LIG    1       26.144 -19.768   4.996  0.00  0.00    +0.081 C 
ATOM     19  C   LIG    1       25.887 -21.233   5.182  0.00  0.00    +0.014 C 
ATOM     20  C   LIG    1       25.909 -20.313   6.374  0.00  0.00    +0.028 C 
ATOM     21  C   LIG    1       24.633 -21.564   4.418  0.00  0.00    +0.043 C 
BRANCH  14  23
ATOM     22  N   LIG    1       21.737 -19.699   5.127  0.00  0.00    -0.195 NA
ATOM     23  C   LIG    1       22.753 -19.953   4.623  0.00  0.00    +0.085 C 
ENDBRANCH  14  23
ENDBRANCH   1  16
BRANCH   1  24
ATOM     24  N   LIG    1       27.268 -17.478   2.940  0.00  0.00    -0.320 NA
ATOM     25  H   LIG    1       28.076 -16.863   2.946  0.00  0.00    +0.119 HD
ATOM     26  H   LIG    1       26.871 -17.425   1.999  0.00  0.00    +0.119 HD
ENDBRANCH   1  24
TORSDOF 5
ENDMDL
MODEL 4
REMARK VINA RESULT:      -3.2      1.492      2.434
REMARK  Name = *****
REMARK                            x       y       z     vdW  Elec       q    Type
REMARK                         _______ _______ _______ _____ _____    ______ ____
ROOT
ATOM      1  C   LIG    1       23.595 -17.314   4.387  0.00  0.00    +0.144 C 
ENDROOT
BRANCH   1   2
ATOM      2  C   LIG    1       23.665 -18.863   4.592  0.00  0.00    -0.003 C 
ATOM      3  C   LIG    1       22.719 -19.289   5.764  0.00  0.00    +0.012 C 
ATOM      4  C   LIG    1       22.811 -20.798   6.045  0.00  0.00    -0.007 C 
ATOM      5  C   LIG    1       24.250 -21.148   6.437  0.00  0.00    +0.038 C 
ATOM      6  C   LIG    1       25.204 -20.776   5.291  0.00  0.00    +0.067 C 
ATOM      7  C   LIG    1       24.812 -21.553   4.025  0.00  0.00    +0.038 C 
ATOM      8  C   LIG    1       23.369 -21.206   3.626  0.00  0.00    -0.007 C 
ATOM      9  C   LIG    1       22.419 -21.571   4.777  0.00  0.00    +0.007 C 
ATOM     10  C   LIG    1       25.108 -19.268   5.006  0.00  0.00    +0.043 C 
ATOM     11  C   LIG    1       23.265 -19.696   3.344  0.00  0.00    +0.012 C 
BRANCH   6  12
ATOM     12  O   LIG    1       26.538 -21.087   5.667  0.00  0.00    -0.389 OA
ATOM     13  H   LIG    1       27.125 -20.838   4.932  0.00  0.00    +0.210 HD
ENDBRANCH   6  12
ENDBRANCH   1   2
BRANCH   1  16
ATOM     14  C   LIG    1       25.827 -14.601   2.699  0.00  0.00    +0.179 C 
ATOM     15  N   LIG    1       24.817 -15.294   3.526  0.00  0.00    -0.281 N 
ATOM     16  C   LIG    1       24.830 -16.668   3.680  0.00  0.00    +0.234 C 
ATOM     17  O   LIG    1       25.729 -17.345   3.174  0.00  0.00    -0.274 OA
ATOM     18  C   LIG    1       23.807 -14.377   3.970  0.00  0.00    +0.081 C 
ATOM     19  C   LIG    1       24.089 -13.021   3.397  0.00  0.00    +0.014 C 
ATOM     20  C   LIG    1       24.155 -13.239   4.886  0.00  0.00    +0.028 C 
ATOM     21  C   LIG    1       25.282 -13.164   2.489  0.00  0.00    +0.043 C 
BRANCH  14  23
ATOM     22  N   LIG    1       28.183 -14.480   3.880  0.00  0.00    -0.195 NA
ATOM     23  C   LIG    1       27.159 -14.552   3.336  0.00  0.00    +0.085 C 
ENDBRANCH  14  23
ENDBRANCH   1  16
BRANCH   1  24
ATOM     24  N   LIG    1       22.405 -16.871   3.619  0.00  0.00    -0.320 NA
ATOM     25  H   LIG    1       21.552 -17.132   4.106  0.00  0.00    +0.119 HD
ATOM     26  H   LIG    1       22.393 -17.368   2.727  0.00  0.00    +0.119 HD
ENDBRANCH   1  24
TORSDOF 5
ENDMDL
MODEL 5
REMARK VINA RESULT:      -2.7      1.192      2.027
REMARK  Name = *****
REMARK                            x       y       z     vdW  Elec       q    Type
REMARK                         _______ _______ _______ _____ _____    ______ ____
ROOT
ATOM      1  C   LIG    1       25.527 -17.321   3.149  0.00  0.00    +0.144 C 
ENDROOT
BRANCH   1   2
ATOM      2  C   LIG    1       24.837 -18.594   3.739  0.00  0.00    -0.003 C 
ATOM      3  C   LIG    1       24.952 -19.781   2.725  0.00  0.00    +0.012 C 
ATOM      4  C   LIG    1       24.224 -21.036   3.236  0.00  0.00    -0.007 C 
ATOM      5  C   LIG    1       22.740 -20.710   3.429  0.00  0.00    +0.038 C 
ATOM      6  C   LIG    1       22.587 -19.571   4.449  0.00  0.00    +0.067 C 
ATOM      7  C   LIG    1       23.198 -20.000   5.792  0.00  0.00    +0.038 C 
ATOM      8  C   LIG    1       24.688 -20.328   5.606  0.00  0.00    -0.007 C 
ATOM      9  C   LIG    1       24.837 -21.461   4.579  0.00  0.00    +0.007 C 
ATOM     10  C   LIG    1       23.320 -18.318   3.940  0.00  0.00    +0.043 C 
ATOM     11  C   LIG    1       25.426 -19.078   5.092  0.00  0.00    +0.012 C 
BRANCH   6  12
ATOM     12  O   LIG    1       21.210 -19.262   4.610  0.00  0.00    -0.389 OA
ATOM     13  H   LIG    1       21.103 -18.791   5.455  0.00  0.00    +0.210 HD
ENDBRANCH   6  12
ENDBRANCH   1   2
BRANCH   1  16
ATOM     14  C   LIG    1       25.302 -13.614   4.332  0.00  0.00    +0.179 C 
ATOM     15  N   LIG    1       25.760 -14.890   3.745  0.00  0.00    -0.281 N 
ATOM     16  C   LIG    1       24.894 -15.953   3.567  0.00  0.00    +0.234 C 
ATOM     17  O   LIG    1       23.696 -15.838   3.840  0.00  0.00    -0.274 OA
ATOM     18  C   LIG    1       27.183 -14.885   3.562  0.00  0.00    +0.081 C 
ATOM     19  C   LIG    1       27.739 -13.594   4.081  0.00  0.00    +0.014 C 
ATOM     20  C   LIG    1       27.829 -13.918   2.613  0.00  0.00    +0.028 C 
ATOM     21  C   LIG    1       26.593 -12.829   4.688  0.00  0.00    +0.043 C 
BRANCH  14  23
ATOM     22  N   LIG    1       23.855 -12.168   2.665  0.00  0.00    -0.195 NA
ATOM     23  C   LIG    1       24.464 -12.822   3.408  0.00  0.00    +0.085 C 
ENDBRANCH  14  23
ENDBRANCH   1  16
BRANCH   1  24
ATOM     24  N   LIG    1       26.970 -17.222   3.479  0.00  0.00    -0.320 NA
ATOM     25  H   LIG    1       27.513 -17.037   2.641  0.00  0.00    +0.119 HD
ATOM     26  H   LIG    1       27.283 -18.127   3.834  0.00  0.00    +0.119 HD
ENDBRANCH   1  24
TORSDOF 5
ENDMDL
MODEL 6
REMARK VINA RESULT:      -2.5      2.216      6.481
REMARK  Name = *****
REMARK                            x       y       z     vdW  Elec       q    Type
REMARK                         _______ _______ _______ _____ _____    ______ ____
ROOT
ATOM      1  C   LIG    1       26.560 -17.104   4.065  0.00  0.00    +0.144 C 
ENDROOT
BRANCH   1   2
ATOM      2  C   LIG    1       26.410 -15.561   3.853  0.00  0.00    -0.003 C 
ATOM      3  C   LIG    1       27.417 -14.796   4.775  0.00  0.00    +0.012 C 
ATOM      4  C   LIG    1       27.254 -13.272   4.649  0.00  0.00    -0.007 C 
ATOM      5  C   LIG    1       25.831 -12.884   5.064  0.00  0.00    +0.038 C 
ATOM      6  C   LIG    1       24.814 -13.591   4.154  0.00  0.00    +0.067 C 
ATOM      7  C   LIG    1       25.055 -13.174   2.695  0.00  0.00    +0.038 C 
ATOM      8  C   LIG    1       26.482 -13.560   2.272  0.00  0.00    -0.007 C 
ATOM      9  C   LIG    1       27.495 -12.859   3.189  0.00  0.00    +0.007 C 
ATOM     10  C   LIG    1       24.981 -15.115   4.276  0.00  0.00    +0.043 C 
ATOM     11  C   LIG    1       26.657 -15.086   2.396  0.00  0.00    +0.012 C 
BRANCH   6  12
ATOM     12  O   LIG    1       23.497 -13.241   4.556  0.00  0.00    -0.389 OA
ATOM     13  H   LIG    1       23.563 -12.544   5.232  0.00  0.00    +0.210 HD
ENDBRANCH   6  12
ENDBRANCH   1   2
BRANCH   1  16
ATOM     14  C   LIG    1       24.188 -20.192   3.904  0.00  0.00    +0.179 C 
ATOM     15  N   LIG    1       25.239 -19.229   4.294  0.00  0.00    -0.281 N 
ATOM     16  C   LIG    1       25.287 -17.957   3.755  0.00  0.00    +0.234 C 
ATOM     17  O   LIG    1       24.412 -17.575   2.974  0.00  0.00    -0.274 OA
ATOM     18  C   LIG    1       26.214 -19.855   5.140  0.00  0.00    +0.081 C 
ATOM     19  C   LIG    1       25.865 -21.304   5.302  0.00  0.00    +0.014 C 
ATOM     20  C   LIG    1       25.830 -20.381   6.493  0.00  0.00    +0.028 C 
ATOM     21  C   LIG    1       24.666 -21.571   4.431  0.00  0.00    +0.043 C 
BRANCH  14  23
ATOM     22  N   LIG    1       21.832 -19.545   4.902  0.00  0.00    -0.195 NA
ATOM     23  C   LIG    1       22.864 -19.862   4.472  0.00  0.00    +0.085 C 
ENDBRANCH  14  23
ENDBRANCH   1  16
BRANCH   1  24
ATOM     24  N   LIG    1       27.660 -17.707   3.274  0.00  0.00    -0.320 NA
ATOM     25  H   LIG    1       28.192 -18.358   3.845  0.00  0.00    +0.119 HD
ATOM     26  H   LIG    1       28.308 -16.964   3.003  0.00  0.00    +0.119 HD
ENDBRANCH   1  24
TORSDOF 5
ENDMDL
MODEL 7
REMARK VINA RESULT:      -2.5      2.570      6.610
REMARK  Name = *****
REMARK                            x       y       z     vdW  Elec       q    Type
REMARK                         _______ _______ _______ _____ _____    ______ ____
ROOT
ATOM      1  C   LIG    1       26.868 -17.205   3.277  0.00  0.00    +0.144 C 
ENDROOT
BRANCH   1   2
ATOM      2  C   LIG    1       26.427 -15.723   3.517  0.00  0.00    -0.003 C 
ATOM      3  C   LIG    1       26.588 -14.899   2.197  0.00  0.00    +0.012 C 
ATOM      4  C   LIG    1       26.230 -13.418   2.406  0.00  0.00    -0.007 C 
ATOM      5  C   LIG    1       27.166 -12.822   3.463  0.00  0.00    +0.038 C 
ATOM      6  C   LIG    1       27.007 -13.585   4.786  0.00  0.00    +0.067 C 
ATOM      7  C   LIG    1       25.552 -13.478   5.269  0.00  0.00    +0.038 C 
ATOM      8  C   LIG    1       24.608 -14.075   4.213  0.00  0.00    -0.007 C 
ATOM      9  C   LIG    1       24.776 -13.315   2.889  0.00  0.00    +0.007 C 
ATOM     10  C   LIG    1       27.359 -15.068   4.575  0.00  0.00    +0.043 C 
ATOM     11  C   LIG    1       24.958 -15.559   3.994  0.00  0.00    +0.012 C 
BRANCH   6  12
ATOM     12  O   LIG    1       27.890 -13.039   5.756  0.00  0.00    -0.389 OA
ATOM     13  H   LIG    1       27.388 -12.902   6.579  0.00  0.00    +0.210 HD
ENDBRANCH   6  12
ENDBRANCH   1   2
BRANCH   1  16
ATOM     14  C   LIG    1       27.144 -19.602   6.337  0.00  0.00    +0.179 C 
ATOM     15  N   LIG    1       26.758 -18.977   5.056  0.00  0.00    -0.281 N 
ATOM     16  C   LIG    1       27.487 -17.935   4.513  0.00  0.00    +0.234 C 
ATOM     17  O   LIG    1       28.519 -17.541   5.063  0.00  0.00    -0.274 OA
ATOM     18  C   LIG    1       25.501 -19.494   4.595  0.00  0.00    +0.081 C 
ATOM     19  C   LIG    1       24.971 -20.465   5.606  0.00  0.00    +0.014 C 
ATOM     20  C   LIG    1       25.357 -20.942   4.230  0.00  0.00    +0.028 C 
ATOM     21  C   LIG    1       25.923 -20.455   6.773  0.00  0.00    +0.043 C 
BRANCH  14  23
ATOM     22  N   LIG    1       29.303 -21.114   6.195  0.00  0.00    -0.195 NA
ATOM     23  C   LIG    1       28.346 -20.455   6.225  0.00  0.00    +0.085 C 
ENDBRANCH  14  23
ENDBRANCH   1  16
BRANCH   1  24
ATOM     24  N   LIG    1       25.772 -18.078   2.792  0.00  0.00    -0.320 NA
ATOM     25  H   LIG    1       26.009 -19.056   2.935  0.00  0.00    +0.119 HD
ATOM     26  H   LIG    1       25.678 -17.948   1.783  0.00  0.00    +0.119 HD
ENDBRANCH   1  24
TORSDOF 5
ENDMDL
MODEL 8
REMARK VINA RESULT:      -2.5      1.555      2.588
REMARK  Name = *****
REMARK                            x       y       z     vdW  Elec       q    Type
REMARK                         _______ _______ _______ _____ _____    ______ ____
ROOT
ATOM      1  C   LIG    1       23.932 -16.874   4.427  0.00  0.00    +0.144 C 
ENDROOT
BRANCH   1   2
ATOM      2  C   LIG    1       23.929 -18.438   4.393  0.00  0.00    -0.003 C 
ATOM      3  C   LIG    1       22.872 -18.947   3.357  0.00  0.00    +0.012 C 
ATOM      4  C   LIG    1       22.787 -20.482   3.342  0.00  0.00    -0.007 C 
ATOM      5  C   LIG    1       22.374 -20.975   4.733  0.00  0.00    +0.038 C 
ATOM      6  C   LIG    1       23.412 -20.524   5.772  0.00  0.00    +0.067 C 
ATOM      7  C   LIG    1       24.787 -21.104   5.409  0.00  0.00    +0.038 C 
ATOM      8  C   LIG    1       25.208 -20.614   4.014  0.00  0.00    -0.007 C 
ATOM      9  C   LIG    1       24.163 -21.059   2.980  0.00  0.00    +0.007 C 
ATOM     10  C   LIG    1       23.501 -18.988   5.783  0.00  0.00    +0.043 C 
ATOM     11  C   LIG    1       25.294 -19.076   4.017  0.00  0.00    +0.012 C 
BRANCH   6  12
ATOM     12  O   LIG    1       23.014 -20.968   7.062  0.00  0.00    -0.389 OA
ATOM     13  H   LIG    1       22.058 -21.147   7.038  0.00  0.00    +0.210 HD
ENDBRANCH   6  12
ENDBRANCH   1   2
BRANCH   1  16
ATOM     14  C   LIG    1       25.915 -14.095   2.547  0.00  0.00    +0.179 C 
ATOM     15  N   LIG    1       24.991 -14.817   3.446  0.00  0.00    -0.281 N 
ATOM     16  C   LIG    1       25.091 -16.182   3.637  0.00  0.00    +0.234 C 
ATOM     17  O   LIG    1       26.000 -16.824   3.104  0.00  0.00    -0.274 OA
ATOM     18  C   LIG    1       23.953 -13.945   3.917  0.00  0.00    +0.081 C 
ATOM     19  C   LIG    1       24.127 -12.594   3.292  0.00  0.00    +0.014 C 
ATOM     20  C   LIG    1       24.282 -12.761   4.781  0.00  0.00    +0.028 C 
ATOM     21  C   LIG    1       25.278 -12.697   2.326  0.00  0.00    +0.043 C 
BRANCH  14  23
ATOM     22  N   LIG    1       28.336 -13.779   3.550  0.00  0.00    -0.195 NA
ATOM     23  C   LIG    1       27.274 -13.952   3.111  0.00  0.00    +0.085 C 
ENDBRANCH  14  23
ENDBRANCH   1  16
BRANCH   1  24
ATOM     24  N   LIG    1       22.675 -16.268   3.925  0.00  0.00    -0.320 NA
ATOM     25  H   LIG    1       21.890 -16.548   4.506  0.00  0.00    +0.119 HD
ATOM     26  H   LIG    1       22.489 -16.637   2.990  0.00  0.00    +0.119 HD
ENDBRANCH   1  24
TORSDOF 5
ENDMDL
MODEL 9
REMARK VINA RESULT:      -2.3      2.348      6.679
REMARK  Name = *****
REMARK                            x       y       z     vdW  Elec       q    Type
REMARK                         _______ _______ _______ _____ _____    ______ ____
ROOT
ATOM      1  C   LIG    1       26.953 -17.288   3.327  0.00  0.00    +0.144 C 
ENDROOT
BRANCH   1   2
ATOM      2  C   LIG    1       26.685 -15.758   3.510  0.00  0.00    -0.003 C 
ATOM      3  C   LIG    1       27.607 -15.186   4.637  0.00  0.00    +0.012 C 
ATOM      4  C   LIG    1       27.326 -13.697   4.898  0.00  0.00    -0.007 C 
ATOM      5  C   LIG    1       25.868 -13.533   5.340  0.00  0.00    +0.038 C 
ATOM      6  C   LIG    1       24.931 -14.052   4.239  0.00  0.00    +0.067 C 
ATOM      7  C   LIG    1       25.168 -13.256   2.946  0.00  0.00    +0.038 C 
ATOM      8  C   LIG    1       26.630 -13.417   2.497  0.00  0.00    -0.007 C 
ATOM      9  C   LIG    1       27.564 -12.906   3.603  0.00  0.00    +0.007 C 
ATOM     10  C   LIG    1       25.216 -15.540   3.974  0.00  0.00    +0.043 C 
ATOM     11  C   LIG    1       26.923 -14.906   2.234  0.00  0.00    +0.012 C 
BRANCH   6  12
ATOM     12  O   LIG    1       23.582 -13.913   4.662  0.00  0.00    -0.389 OA
ATOM     13  H   LIG    1       23.585 -13.590   5.580  0.00  0.00    +0.210 HD
ENDBRANCH   6  12
ENDBRANCH   1   2
BRANCH   1  16
ATOM     14  C   LIG    1       27.150 -19.669   6.406  0.00  0.00    +0.179 C 
ATOM     15  N   LIG    1       26.787 -19.044   5.117  0.00  0.00    -0.281 N 
ATOM     16  C   LIG    1       27.546 -18.025   4.571  0.00  0.00    +0.234 C 
ATOM     17  O   LIG    1       28.585 -17.654   5.124  0.00  0.00    -0.274 OA
ATOM     18  C   LIG    1       25.520 -19.531   4.654  0.00  0.00    +0.081 C 
ATOM     19  C   LIG    1       24.959 -20.480   5.669  0.00  0.00    +0.014 C 
ATOM     20  C   LIG    1       25.339 -20.978   4.299  0.00  0.00    +0.028 C 
ATOM     21  C   LIG    1       25.905 -20.487   6.840  0.00  0.00    +0.043 C 
BRANCH  14  23
ATOM     22  N   LIG    1       29.267 -21.241   6.287  0.00  0.00    -0.195 NA
ATOM     23  C   LIG    1       28.330 -20.554   6.306  0.00  0.00    +0.085 C 
ENDBRANCH  14  23
ENDBRANCH   1  16
BRANCH   1  24
ATOM     24  N   LIG    1       25.749 -18.058   2.930  0.00  0.00    -0.320 NA
ATOM     25  H   LIG    1       24.919 -17.477   2.997  0.00  0.00    +0.119 HD
ATOM     26  H   LIG    1       25.621 -18.823   3.596  0.00  0.00    +0.119 HD
ENDBRANCH   1  24
TORSDOF 5
ENDMDL
