MODEL 1
REMARK VINA RESULT:       4.3      0.000      0.000
REMARK  Name = *****
REMARK                            x       y       z     vdW  Elec       q    Type
REMARK                         _______ _______ _______ _____ _____    ______ ____
ROOT
ATOM      1  C   LIG    1       27.871 -18.054   4.054  0.00  0.00    +0.213 C 
ENDROOT
BRANCH   1   2
ATOM      2  C   LIG    1       28.122 -19.115   5.123  0.00  0.00    -0.025 A 
ATOM      3  C   LIG    1       29.288 -19.173   5.902  0.00  0.00    +0.005 A 
ATOM      4  C   LIG    1       29.461 -20.177   6.859  0.00  0.00    +0.000 A 
ATOM      5  C   LIG    1       28.469 -21.131   7.062  0.00  0.00    +0.000 A 
ATOM      6  C   LIG    1       27.296 -21.077   6.315  0.00  0.00    +0.000 A 
ATOM      7  C   LIG    1       27.122 -20.076   5.358  0.00  0.00    +0.005 A 
ENDBRANCH   1   2
BRANCH   1  10
ATOM      8  N   LIG    1       25.453 -17.623   3.894  0.00  0.00    -0.301 N 
ATOM      9  H   LIG    1       25.542 -17.202   4.815  0.00  0.00    +0.150 HD
ATOM     10  C   LIG    1       26.551 -18.239   3.329  0.00  0.00    +0.232 C 
ATOM     11  O   LIG    1       26.465 -18.860   2.269  0.00  0.00    -0.275 OA
BRANCH   8  17
ATOM     12  C   LIG    1       23.355 -19.411   6.757  0.00  0.00    +0.025 C 
ATOM     13  C   LIG    1       22.754 -20.181   5.563  0.00  0.00    +0.042 C 
ATOM     14  CA  LIG    1       21.634 -19.367   4.869  0.00  0.00    +0.201 C 
ATOM     15  N   LIG    1       22.260 -18.522   3.837  0.00  0.00    -0.271 N 
ATOM     16  C   LIG    1       23.446 -19.104   3.166  0.00  0.00    +0.165 C 
ATOM     17  CA  LIG    1       24.113 -17.706   3.258  0.00  0.00    +0.190 C 
ATOM     18  C   LIG    1       22.912 -17.369   4.170  0.00  0.00    +0.240 C 
ATOM     19  O   LIG    1       22.652 -16.535   5.017  0.00  0.00    -0.273 OA
ATOM     20  S   LIG    1       24.071 -20.409   4.297  0.00  0.00    -0.127 S 
ATOM     21  C   LIG    1       22.350 -21.571   6.063  0.00  0.00    +0.025 C 
BRANCH  14  22
ATOM     22  C   LIG    1       20.535 -20.194   4.172  0.00  0.00    +0.327 C 
ATOM     23  O   LIG    1       19.612 -19.739   3.514  0.00  0.00    -0.249 OA
BRANCH  22  24
ATOM     24  OXT LIG    1       20.739 -21.535   4.235  0.00  0.00    -0.479 OA
ATOM     25  HXT LIG    1       21.188 -21.867   3.430  0.00  0.00    +0.295 HD
ENDBRANCH  22  24
ENDBRANCH  14  22
ENDBRANCH   8  17
ENDBRANCH   1  10
BRANCH   1  26
ATOM     26  C   LIG    1       27.985 -16.613   4.496  0.00  0.00    +0.329 C 
ATOM     27  O   LIG    1       28.245 -16.236   5.632  0.00  0.00    -0.249 OA
BRANCH  26  28
ATOM     28  O   LIG    1       27.611 -15.794   3.424  0.00  0.00    -0.425 OA
BRANCH  28  29
ATOM     29  C   LIG    1       26.734 -14.688   3.502  0.00  0.00    +0.132 A 
ATOM     30  C   LIG    1       25.940 -14.399   4.610  0.00  0.00    +0.050 A 
ATOM     31  C   LIG    1       25.058 -13.339   4.512  0.00  0.00    -0.041 A 
ATOM     32  C   LIG    1       24.058 -12.889   5.530  0.00  0.00    +0.036 C 
ATOM     33  C   LIG    1       23.695 -11.500   4.989  0.00  0.00    +0.009 C 
ATOM     34  C   LIG    1       23.870 -11.562   3.465  0.00  0.00    +0.036 C 
ATOM     35  C   LIG    1       24.957 -12.584   3.338  0.00  0.00    -0.044 A 
ATOM     36  C   LIG    1       25.744 -12.865   2.235  0.00  0.00    +0.007 A 
ATOM     37  C   LIG    1       26.647 -13.926   2.324  0.00  0.00    +0.046 A 
ENDBRANCH  28  29
ENDBRANCH  26  28
ENDBRANCH   1  26
TORSDOF 8
ENDMDL
