MODEL 1
REMARK VINA RESULT:      -5.5      0.000      0.000
REMARK  Name = *****
REMARK                            x       y       z     vdW  Elec       q    Type
REMARK                         _______ _______ _______ _____ _____    ______ ____
ROOT
ATOM      1  C   LIG    1       26.204 -14.442   3.598  0.00  0.00    -0.007 C 
ATOM      2  C   LIG    1       26.180 -13.534   2.337  0.00  0.00    +0.009 C 
ATOM      3  C   LIG    1       24.803 -12.988   1.956  0.00  0.00    +0.001 C 
ATOM      4  C   LIG    1       24.092 -12.328   3.129  0.00  0.00    +0.000 C 
ATOM      5  C   LIG    1       24.037 -13.242   4.344  0.00  0.00    +0.001 C 
ATOM      6  C   LIG    1       25.431 -13.727   4.743  0.00  0.00    +0.009 C 
ENDROOT
BRANCH   1   7
ATOM      7  C   LIG    1       25.582 -15.827   3.258  0.00  0.00    +0.085 C 
BRANCH   7   8
ATOM      8  N   LIG    1       26.566 -16.916   3.250  0.00  0.00    -0.329 NA
ATOM      9  H   LIG    1       27.089 -16.873   2.370  0.00  0.00    +0.118 HD
ATOM     10  H   LIG    1       27.277 -16.712   3.959  0.00  0.00    +0.118 HD
ENDBRANCH   7   8
ENDBRANCH   1   7
BRANCH   1  11
ATOM     11  C   LIG    1       27.681 -14.624   4.062  0.00  0.00    +0.128 C 
BRANCH  11  12
ATOM     12  C   LIG    1       28.484 -13.343   4.111  0.00  0.00    +0.305 C 
ATOM     13  O   LIG    1       28.317 -12.449   4.940  0.00  0.00    -0.251 OA
BRANCH  12  14
ATOM     14  O   LIG    1       29.401 -13.254   3.117  0.00  0.00    -0.481 OA
ATOM     15  H   LIG    1       30.213 -12.756   3.393  0.00  0.00    +0.295 HD
ENDBRANCH  12  14
ENDBRANCH  11  12
ENDBRANCH   1  11
TORSDOF 5
ENDMDL
MODEL 2
REMARK VINA RESULT:      -4.5      2.291      3.692
REMARK  Name = *****
REMARK                            x       y       z     vdW  Elec       q    Type
REMARK                         _______ _______ _______ _____ _____    ______ ____
ROOT
ATOM      1  C   LIG    1       26.277 -14.237   3.672  0.00  0.00    -0.007 C 
ATOM      2  C   LIG    1       26.269 -13.750   5.148  0.00  0.00    +0.009 C 
ATOM      3  C   LIG    1       27.643 -13.413   5.728  0.00  0.00    +0.001 C 
ATOM      4  C   LIG    1       28.439 -12.470   4.836  0.00  0.00    +0.000 C 
ATOM      5  C   LIG    1       28.523 -12.980   3.406  0.00  0.00    +0.001 C 
ATOM      6  C   LIG    1       27.135 -13.253   2.826  0.00  0.00    +0.009 C 
ENDROOT
BRANCH   1   7
ATOM      7  C   LIG    1       26.830 -15.691   3.604  0.00  0.00    +0.085 C 
BRANCH   7   8
ATOM      8  N   LIG    1       25.833 -16.666   3.147  0.00  0.00    -0.329 NA
ATOM      9  H   LIG    1       25.690 -16.537   2.141  0.00  0.00    +0.118 HD
ATOM     10  H   LIG    1       26.246 -17.602   3.210  0.00  0.00    +0.118 HD
ENDBRANCH   7   8
ENDBRANCH   1   7
BRANCH   1  11
ATOM     11  C   LIG    1       24.821 -14.198   3.118  0.00  0.00    +0.128 C 
BRANCH  11  12
ATOM     12  C   LIG    1       24.202 -12.818   3.082  0.00  0.00    +0.305 C 
ATOM     13  O   LIG    1       23.873 -12.177   4.078  0.00  0.00    -0.251 OA
BRANCH  12  14
ATOM     14  O   LIG    1       24.008 -12.359   1.822  0.00  0.00    -0.481 OA
ATOM     15  H   LIG    1       23.889 -11.374   1.790  0.00  0.00    +0.295 HD
ENDBRANCH  12  14
ENDBRANCH  11  12
ENDBRANCH   1  11
TORSDOF 5
ENDMDL
MODEL 3
REMARK VINA RESULT:      -4.5      6.271      7.661
REMARK  Name = *****
REMARK                            x       y       z     vdW  Elec       q    Type
REMARK                         _______ _______ _______ _____ _____    ______ ____
ROOT
ATOM      1  C   LIG    1       24.524 -20.149   4.575  0.00  0.00    -0.007 C 
ATOM      2  C   LIG    1       23.927 -20.181   6.010  0.00  0.00    +0.009 C 
ATOM      3  C   LIG    1       24.779 -20.909   7.051  0.00  0.00    +0.001 C 
ATOM      4  C   LIG    1       26.224 -20.431   7.061  0.00  0.00    +0.000 C 
ATOM      5  C   LIG    1       26.844 -20.474   5.672  0.00  0.00    +0.001 C 
ATOM      6  C   LIG    1       26.008 -19.689   4.661  0.00  0.00    +0.009 C 
ENDROOT
BRANCH   1   7
ATOM      7  C   LIG    1       24.391 -21.556   3.921  0.00  0.00    +0.085 C 
BRANCH   7   8
ATOM      8  N   LIG    1       23.486 -21.572   2.766  0.00  0.00    -0.329 NA
ATOM      9  H   LIG    1       22.584 -21.181   3.055  0.00  0.00    +0.118 HD
ATOM     10  H   LIG    1       23.830 -20.893   2.079  0.00  0.00    +0.118 HD
ENDBRANCH   7   8
ENDBRANCH   1   7
BRANCH   1  11
ATOM     11  C   LIG    1       23.747 -19.096   3.728  0.00  0.00    +0.128 C 
BRANCH  11  12
ATOM     12  C   LIG    1       22.445 -18.633   4.345  0.00  0.00    +0.305 C 
ATOM     13  O   LIG    1       22.236 -17.492   4.752  0.00  0.00    -0.251 OA
BRANCH  12  14
ATOM     14  O   LIG    1       21.524 -19.623   4.441  0.00  0.00    -0.481 OA
ATOM     15  H   LIG    1       20.966 -19.544   5.257  0.00  0.00    +0.295 HD
ENDBRANCH  12  14
ENDBRANCH  11  12
ENDBRANCH   1  11
TORSDOF 5
ENDMDL
MODEL 4
REMARK VINA RESULT:      -4.4      2.603      3.327
REMARK  Name = *****
REMARK                            x       y       z     vdW  Elec       q    Type
REMARK                         _______ _______ _______ _____ _____    ______ ____
ROOT
ATOM      1  C   LIG    1       26.777 -14.075   3.810  0.00  0.00    -0.007 C 
ATOM      2  C   LIG    1       25.512 -14.103   4.713  0.00  0.00    +0.009 C 
ATOM      3  C   LIG    1       24.507 -12.979   4.458  0.00  0.00    +0.001 C 
ATOM      4  C   LIG    1       24.136 -12.850   2.987  0.00  0.00    +0.000 C 
ATOM      5  C   LIG    1       25.367 -12.739   2.100  0.00  0.00    +0.001 C 
ATOM      6  C   LIG    1       26.330 -13.905   2.330  0.00  0.00    +0.009 C 
ENDROOT
BRANCH   1   7
ATOM      7  C   LIG    1       27.720 -12.923   4.265  0.00  0.00    +0.085 C 
BRANCH   7   8
ATOM      8  N   LIG    1       29.010 -12.923   3.565  0.00  0.00    -0.329 NA
ATOM      9  H   LIG    1       29.047 -13.745   2.954  0.00  0.00    +0.118 HD
ATOM     10  H   LIG    1       29.019 -12.138   2.906  0.00  0.00    +0.118 HD
ENDBRANCH   7   8
ENDBRANCH   1   7
BRANCH   1  11
ATOM     11  C   LIG    1       27.514 -15.443   3.931  0.00  0.00    +0.128 C 
BRANCH  11  12
ATOM     12  C   LIG    1       26.674 -16.643   3.554  0.00  0.00    +0.305 C 
ATOM     13  O   LIG    1       25.560 -16.577   3.037  0.00  0.00    -0.251 OA
BRANCH  12  14
ATOM     14  O   LIG    1       27.260 -17.821   3.877  0.00  0.00    -0.481 OA
ATOM     15  H   LIG    1       28.224 -17.722   4.088  0.00  0.00    +0.295 HD
ENDBRANCH  12  14
ENDBRANCH  11  12
ENDBRANCH   1  11
TORSDOF 5
ENDMDL
MODEL 5
REMARK VINA RESULT:      -4.3      2.316      3.165
REMARK  Name = *****
REMARK                            x       y       z     vdW  Elec       q    Type
REMARK                         _______ _______ _______ _____ _____    ______ ____
ROOT
ATOM      1  C   LIG    1       25.277 -13.860   3.689  0.00  0.00    -0.007 C 
ATOM      2  C   LIG    1       24.079 -13.200   4.427  0.00  0.00    +0.009 C 
ATOM      3  C   LIG    1       23.855 -11.721   4.109  0.00  0.00    +0.001 C 
ATOM      4  C   LIG    1       23.804 -11.447   2.613  0.00  0.00    +0.000 C 
ATOM      5  C   LIG    1       25.015 -12.018   1.890  0.00  0.00    +0.001 C 
ATOM      6  C   LIG    1       25.184 -13.511   2.175  0.00  0.00    +0.009 C 
ENDROOT
BRANCH   1   7
ATOM      7  C   LIG    1       26.614 -13.366   4.314  0.00  0.00    +0.085 C 
BRANCH   7   8
ATOM      8  N   LIG    1       26.600 -13.371   5.782  0.00  0.00    -0.329 NA
ATOM      9  H   LIG    1       27.021 -14.246   6.108  0.00  0.00    +0.118 HD
ATOM     10  H   LIG    1       27.255 -12.655   6.112  0.00  0.00    +0.118 HD
ENDBRANCH   7   8
ENDBRANCH   1   7
BRANCH   1  11
ATOM     11  C   LIG    1       25.166 -15.408   3.828  0.00  0.00    +0.128 C 
BRANCH  11  12
ATOM     12  C   LIG    1       26.437 -16.159   3.501  0.00  0.00    +0.305 C 
ATOM     13  O   LIG    1       27.571 -15.726   3.699  0.00  0.00    -0.251 OA
BRANCH  12  14
ATOM     14  O   LIG    1       26.207 -17.365   2.926  0.00  0.00    -0.481 OA
ATOM     15  H   LIG    1       25.368 -17.786   3.249  0.00  0.00    +0.295 HD
ENDBRANCH  12  14
ENDBRANCH  11  12
ENDBRANCH   1  11
TORSDOF 5
ENDMDL
MODEL 6
REMARK VINA RESULT:      -4.0      1.453      2.427
REMARK  Name = *****
REMARK                            x       y       z     vdW  Elec       q    Type
REMARK                         _______ _______ _______ _____ _____    ______ ____
ROOT
ATOM      1  C   LIG    1       26.386 -13.573   4.259  0.00  0.00    -0.007 C 
ATOM      2  C   LIG    1       25.023 -13.074   4.815  0.00  0.00    +0.009 C 
ATOM      3  C   LIG    1       23.789 -13.722   4.187  0.00  0.00    +0.001 C 
ATOM      4  C   LIG    1       23.865 -15.242   4.185  0.00  0.00    +0.000 C 
ATOM      5  C   LIG    1       25.161 -15.744   3.566  0.00  0.00    +0.001 C 
ATOM      6  C   LIG    1       26.383 -15.128   4.250  0.00  0.00    +0.009 C 
ENDROOT
BRANCH   1   7
ATOM      7  C   LIG    1       26.617 -12.987   2.835  0.00  0.00    +0.085 C 
BRANCH   7   8
ATOM      8  N   LIG    1       26.886 -14.016   1.824  0.00  0.00    -0.329 NA
ATOM      9  H   LIG    1       26.305 -13.824   1.003  0.00  0.00    +0.118 HD
ATOM     10  H   LIG    1       27.841 -13.884   1.477  0.00  0.00    +0.118 HD
ENDBRANCH   7   8
ENDBRANCH   1   7
BRANCH   1  11
ATOM     11  C   LIG    1       27.524 -13.104   5.215  0.00  0.00    +0.128 C 
BRANCH  11  12
ATOM     12  C   LIG    1       28.802 -12.695   4.516  0.00  0.00    +0.305 C 
ATOM     13  O   LIG    1       29.277 -13.276   3.542  0.00  0.00    -0.251 OA
BRANCH  12  14
ATOM     14  O   LIG    1       29.405 -11.629   5.096  0.00  0.00    -0.481 OA
ATOM     15  H   LIG    1       28.984 -10.768   4.839  0.00  0.00    +0.295 HD
ENDBRANCH  12  14
ENDBRANCH  11  12
ENDBRANCH   1  11
TORSDOF 5
ENDMDL
MODEL 7
REMARK VINA RESULT:      -3.8      1.642      2.253
REMARK  Name = *****
REMARK                            x       y       z     vdW  Elec       q    Type
REMARK                         _______ _______ _______ _____ _____    ______ ____
ROOT
ATOM      1  C   LIG    1       26.219 -13.632   4.162  0.00  0.00    -0.007 C 
ATOM      2  C   LIG    1       25.256 -14.852   4.145  0.00  0.00    +0.009 C 
ATOM      3  C   LIG    1       23.771 -14.505   4.038  0.00  0.00    +0.001 C 
ATOM      4  C   LIG    1       23.475 -13.549   2.891  0.00  0.00    +0.000 C 
ATOM      5  C   LIG    1       24.356 -12.310   2.945  0.00  0.00    +0.001 C 
ATOM      6  C   LIG    1       25.839 -12.680   2.991  0.00  0.00    +0.009 C 
ENDROOT
BRANCH   1   7
ATOM      7  C   LIG    1       26.131 -12.915   5.541  0.00  0.00    +0.085 C 
BRANCH   7   8
ATOM      8  N   LIG    1       26.856 -13.621   6.604  0.00  0.00    -0.329 NA
ATOM      9  H   LIG    1       26.193 -14.217   7.108  0.00  0.00    +0.118 HD
ATOM     10  H   LIG    1       27.495 -14.292   6.167  0.00  0.00    +0.118 HD
ENDBRANCH   7   8
ENDBRANCH   1   7
BRANCH   1  11
ATOM     11  C   LIG    1       27.674 -14.133   3.916  0.00  0.00    +0.128 C 
BRANCH  11  12
ATOM     12  C   LIG    1       28.721 -13.041   3.916  0.00  0.00    +0.305 C 
ATOM     13  O   LIG    1       28.868 -12.218   4.818  0.00  0.00    -0.251 OA
BRANCH  12  14
ATOM     14  O   LIG    1       29.474 -13.031   2.789  0.00  0.00    -0.481 OA
ATOM     15  H   LIG    1       29.471 -13.906   2.322  0.00  0.00    +0.295 HD
ENDBRANCH  12  14
ENDBRANCH  11  12
ENDBRANCH   1  11
TORSDOF 5
ENDMDL
MODEL 8
REMARK VINA RESULT:      -3.8      5.841      6.728
REMARK  Name = *****
REMARK                            x       y       z     vdW  Elec       q    Type
REMARK                         _______ _______ _______ _____ _____    ______ ____
ROOT
ATOM      1  C   LIG    1       24.196 -20.570   5.036  0.00  0.00    -0.007 C 
ATOM      2  C   LIG    1       24.697 -19.191   4.524  0.00  0.00    +0.009 C 
ATOM      3  C   LIG    1       23.675 -18.385   3.721  0.00  0.00    +0.001 C 
ATOM      4  C   LIG    1       22.338 -18.259   4.438  0.00  0.00    +0.000 C 
ATOM      5  C   LIG    1       21.797 -19.613   4.872  0.00  0.00    +0.001 C 
ATOM      6  C   LIG    1       22.814 -20.375   5.723  0.00  0.00    +0.009 C 
ENDROOT
BRANCH   1   7
ATOM      7  C   LIG    1       24.114 -21.572   3.848  0.00  0.00    +0.085 C 
BRANCH   7   8
ATOM      8  N   LIG    1       24.597 -21.006   2.582  0.00  0.00    -0.329 NA
ATOM      9  H   LIG    1       24.300 -20.026   2.531  0.00  0.00    +0.118 HD
ATOM     10  H   LIG    1       25.619 -20.943   2.627  0.00  0.00    +0.118 HD
ENDBRANCH   7   8
ENDBRANCH   1   7
BRANCH   1  11
ATOM     11  C   LIG    1       25.192 -21.102   6.111  0.00  0.00    +0.128 C 
BRANCH  11  12
ATOM     12  C   LIG    1       26.559 -20.456   6.072  0.00  0.00    +0.305 C 
ATOM     13  O   LIG    1       27.160 -20.042   7.062  0.00  0.00    -0.251 OA
BRANCH  12  14
ATOM     14  O   LIG    1       27.055 -20.342   4.816  0.00  0.00    -0.481 OA
ATOM     15  H   LIG    1       27.742 -21.029   4.615  0.00  0.00    +0.295 HD
ENDBRANCH  12  14
ENDBRANCH  11  12
ENDBRANCH   1  11
TORSDOF 5
ENDMDL
MODEL 9
REMARK VINA RESULT:      -3.6      3.243      4.373
REMARK  Name = *****
REMARK                            x       y       z     vdW  Elec       q    Type
REMARK                         _______ _______ _______ _____ _____    ______ ____
ROOT
ATOM      1  C   LIG    1       24.919 -13.452   3.542  0.00  0.00    -0.007 C 
ATOM      2  C   LIG    1       25.771 -14.272   2.533  0.00  0.00    +0.009 C 
ATOM      3  C   LIG    1       27.279 -14.030   2.609  0.00  0.00    +0.001 C 
ATOM      4  C   LIG    1       27.820 -14.160   4.026  0.00  0.00    +0.000 C 
ATOM      5  C   LIG    1       27.044 -13.297   5.010  0.00  0.00    +0.001 C 
ATOM      6  C   LIG    1       25.546 -13.598   4.959  0.00  0.00    +0.009 C 
ENDROOT
BRANCH   1   7
ATOM      7  C   LIG    1       24.857 -11.964   3.088  0.00  0.00    +0.085 C 
BRANCH   7   8
ATOM      8  N   LIG    1       24.014 -11.757   1.904  0.00  0.00    -0.329 NA
ATOM      9  H   LIG    1       24.390 -12.322   1.136  0.00  0.00    +0.118 HD
ATOM     10  H   LIG    1       23.098 -12.180   2.084  0.00  0.00    +0.118 HD
ENDBRANCH   7   8
ENDBRANCH   1   7
BRANCH   1  11
ATOM     11  C   LIG    1       23.481 -14.051   3.593  0.00  0.00    +0.128 C 
BRANCH  11  12
ATOM     12  C   LIG    1       23.373 -15.357   4.349  0.00  0.00    +0.305 C 
ATOM     13  O   LIG    1       23.970 -16.388   4.043  0.00  0.00    -0.251 OA
BRANCH  12  14
ATOM     14  O   LIG    1       22.514 -15.295   5.394  0.00  0.00    -0.481 OA
ATOM     15  H   LIG    1       22.425 -14.376   5.759  0.00  0.00    +0.295 HD
ENDBRANCH  12  14
ENDBRANCH  11  12
ENDBRANCH   1  11
TORSDOF 5
ENDMDL
