MODEL 1
REMARK VINA RESULT:      -9.4      0.000      0.000
REMARK  Name = *****
REMARK                            x       y       z     vdW  Elec       q    Type
REMARK                         _______ _______ _______ _____ _____    ______ ____
ROOT
ATOM      1  N   LIG    1       25.597 -21.091   6.597  0.00  0.00    -0.326 N 
ENDROOT
BRANCH   1   2
ATOM      2  C   LIG    1       25.110 -22.118   7.570  0.00  0.00    +0.082 C 
ATOM      3  C   LIG    1       26.102 -23.269   7.911  0.00  0.00    +0.058 C 
ATOM      4  C   LIG    1       25.614 -24.401   7.056  0.00  0.00    -0.042 A 
ATOM      5  C   LIG    1       24.321 -24.147   6.586  0.00  0.00    -0.042 A 
ATOM      6  C   LIG    1       23.647 -25.064   5.805  0.00  0.00    +0.004 A 
ATOM      7  C   LIG    1       24.290 -26.250   5.463  0.00  0.00    +0.000 A 
ATOM      8  C   LIG    1       25.595 -26.505   5.922  0.00  0.00    +0.000 A 
ATOM      9  C   LIG    1       26.258 -25.579   6.732  0.00  0.00    +0.004 A 
ATOM     10  C   LIG    1       23.825 -22.817   7.059  0.00  0.00    +0.058 C 
ENDBRANCH   1   2
BRANCH   1  11
ATOM     11  C   LIG    1       24.692 -20.449   5.736  0.00  0.00    +0.030 A 
ATOM     12  C   LIG    1       23.369 -20.153   6.129  0.00  0.00    +0.023 A 
ATOM     13  C   LIG    1       22.468 -19.489   5.286  0.00  0.00    +0.002 A 
ATOM     14  C   LIG    1       22.864 -19.045   4.039  0.00  0.00    +0.000 A 
ATOM     15  C   LIG    1       24.159 -19.319   3.609  0.00  0.00    +0.002 A 
ATOM     16  C   LIG    1       25.025 -20.040   4.434  0.00  0.00    +0.023 A 
ENDBRANCH   1  11
BRANCH   1  17
ATOM     17  C   LIG    1       27.048 -20.881   6.400  0.00  0.00    +0.106 C 
BRANCH  17  18
ATOM     18  C   LIG    1       27.648 -20.174   7.617  0.00  0.00    +0.034 C 
BRANCH  18  19
ATOM     19  C   LIG    1       29.073 -19.680   7.395  0.00  0.00    +0.086 C 
BRANCH  19  20
ATOM     20  N   LIG    1       29.860 -19.468   8.621  0.00  0.00    -0.303 NA
BRANCH  20  22
ATOM     21  C   LIG    1       30.940 -21.722   9.070  0.00  0.00    +0.020 C 
ATOM     22  C   LIG    1       31.102 -20.240   8.745  0.00  0.00    +0.081 C 
ENDBRANCH  20  22
BRANCH  20  23
ATOM     23  C   LIG    1       30.055 -18.047   8.972  0.00  0.00    +0.081 C 
ATOM     24  C   LIG    1       30.373 -17.680  10.426  0.00  0.00    +0.020 C 
ENDBRANCH  20  23
ENDBRANCH  19  20
ENDBRANCH  18  19
ENDBRANCH  17  18
ENDBRANCH   1  17
TORSDOF 8
ENDMDL
MODEL 2
REMARK VINA RESULT:      -9.2      0.453      1.447
REMARK  Name = *****
REMARK                            x       y       z     vdW  Elec       q    Type
REMARK                         _______ _______ _______ _____ _____    ______ ____
ROOT
ATOM      1  N   LIG    1       25.510 -21.154   6.447  0.00  0.00    -0.326 N 
ENDROOT
BRANCH   1   2
ATOM      2  C   LIG    1       25.034 -22.154   7.454  0.00  0.00    +0.082 C 
ATOM      3  C   LIG    1       26.048 -23.267   7.852  0.00  0.00    +0.058 C 
ATOM      4  C   LIG    1       25.598 -24.443   7.037  0.00  0.00    -0.042 A 
ATOM      5  C   LIG    1       24.306 -24.238   6.541  0.00  0.00    -0.042 A 
ATOM      6  C   LIG    1       23.665 -25.201   5.788  0.00  0.00    +0.004 A 
ATOM      7  C   LIG    1       24.340 -26.384   5.502  0.00  0.00    +0.000 A 
ATOM      8  C   LIG    1       25.644 -26.589   5.987  0.00  0.00    +0.000 A 
ATOM      9  C   LIG    1       26.274 -25.617   6.768  0.00  0.00    +0.004 A 
ATOM     10  C   LIG    1       23.773 -22.903   6.954  0.00  0.00    +0.058 C 
ENDBRANCH   1   2
BRANCH   1  11
ATOM     11  C   LIG    1       24.586 -20.466   5.644  0.00  0.00    +0.030 A 
ATOM     12  C   LIG    1       23.280 -20.172   6.093  0.00  0.00    +0.023 A 
ATOM     13  C   LIG    1       22.361 -19.461   5.310  0.00  0.00    +0.002 A 
ATOM     14  C   LIG    1       22.722 -18.969   4.070  0.00  0.00    +0.000 A 
ATOM     15  C   LIG    1       23.998 -19.238   3.586  0.00  0.00    +0.002 A 
ATOM     16  C   LIG    1       24.882 -20.004   4.351  0.00  0.00    +0.023 A 
ENDBRANCH   1  11
BRANCH   1  17
ATOM     17  C   LIG    1       26.954 -21.022   6.155  0.00  0.00    +0.106 C 
BRANCH  17  18
ATOM     18  C   LIG    1       27.663 -20.312   7.310  0.00  0.00    +0.034 C 
BRANCH  18  19
ATOM     19  C   LIG    1       28.985 -20.960   7.707  0.00  0.00    +0.086 C 
BRANCH  19  20
ATOM     20  N   LIG    1       30.120 -20.034   7.839  0.00  0.00    -0.303 NA
BRANCH  20  22
ATOM     21  C   LIG    1       30.305 -17.982   9.324  0.00  0.00    +0.020 C 
ATOM     22  C   LIG    1       29.792 -18.616   8.034  0.00  0.00    +0.081 C 
ENDBRANCH  20  22
BRANCH  20  23
ATOM     23  C   LIG    1       31.166 -20.493   8.775  0.00  0.00    +0.081 C 
ATOM     24  C   LIG    1       31.177 -21.962   9.211  0.00  0.00    +0.020 C 
ENDBRANCH  20  23
ENDBRANCH  19  20
ENDBRANCH  18  19
ENDBRANCH  17  18
ENDBRANCH   1  17
TORSDOF 8
ENDMDL
MODEL 3
REMARK VINA RESULT:      -8.4      1.771      6.233
REMARK  Name = *****
REMARK                            x       y       z     vdW  Elec       q    Type
REMARK                         _______ _______ _______ _____ _____    ______ ____
ROOT
ATOM      1  N   LIG    1       24.897 -22.083   6.118  0.00  0.00    -0.326 N 
ENDROOT
BRANCH   1   2
ATOM      2  C   LIG    1       25.374 -21.940   7.529  0.00  0.00    +0.082 C 
ATOM      3  C   LIG    1       25.701 -20.493   8.003  0.00  0.00    +0.058 C 
ATOM      4  C   LIG    1       27.196 -20.431   7.894  0.00  0.00    -0.042 A 
ATOM      5  C   LIG    1       27.739 -21.715   7.776  0.00  0.00    -0.042 A 
ATOM      6  C   LIG    1       29.103 -21.913   7.695  0.00  0.00    +0.004 A 
ATOM      7  C   LIG    1       29.941 -20.802   7.705  0.00  0.00    +0.000 A 
ATOM      8  C   LIG    1       29.399 -19.508   7.810  0.00  0.00    +0.000 A 
ATOM      9  C   LIG    1       28.018 -19.321   7.915  0.00  0.00    +0.004 A 
ATOM     10  C   LIG    1       26.667 -22.758   7.773  0.00  0.00    +0.058 C 
ENDBRANCH   1   2
BRANCH   1  11
ATOM     11  C   LIG    1       24.310 -20.992   5.457  0.00  0.00    +0.030 A 
ATOM     12  C   LIG    1       24.957 -20.327   4.393  0.00  0.00    +0.023 A 
ATOM     13  C   LIG    1       24.366 -19.255   3.711  0.00  0.00    +0.002 A 
ATOM     14  C   LIG    1       23.087 -18.837   4.024  0.00  0.00    +0.000 A 
ATOM     15  C   LIG    1       22.414 -19.462   5.068  0.00  0.00    +0.002 A 
ATOM     16  C   LIG    1       23.041 -20.486   5.783  0.00  0.00    +0.023 A 
ENDBRANCH   1  11
BRANCH   1  17
ATOM     17  C   LIG    1       24.864 -23.415   5.475  0.00  0.00    +0.106 C 
BRANCH  17  18
ATOM     18  C   LIG    1       24.039 -24.388   6.319  0.00  0.00    +0.034 C 
BRANCH  18  19
ATOM     19  C   LIG    1       23.986 -25.800   5.748  0.00  0.00    +0.086 C 
BRANCH  19  20
ATOM     20  N   LIG    1       24.688 -26.822   6.539  0.00  0.00    -0.303 NA
BRANCH  20  22
ATOM     21  C   LIG    1       24.793 -29.218   7.375  0.00  0.00    +0.020 C 
ATOM     22  C   LIG    1       24.222 -28.206   6.386  0.00  0.00    +0.081 C 
ENDBRANCH  20  22
BRANCH  20  23
ATOM     23  C   LIG    1       26.160 -26.725   6.477  0.00  0.00    +0.081 C 
ATOM     24  C   LIG    1       26.863 -26.968   5.138  0.00  0.00    +0.020 C 
ENDBRANCH  20  23
ENDBRANCH  19  20
ENDBRANCH  18  19
ENDBRANCH  17  18
ENDBRANCH   1  17
TORSDOF 8
ENDMDL
MODEL 4
REMARK VINA RESULT:      -8.4      1.285      6.219
REMARK  Name = *****
REMARK                            x       y       z     vdW  Elec       q    Type
REMARK                         _______ _______ _______ _____ _____    ______ ____
ROOT
ATOM      1  N   LIG    1       26.573 -20.648   6.598  0.00  0.00    -0.326 N 
ENDROOT
BRANCH   1   2
ATOM      2  C   LIG    1       27.935 -20.551   5.986  0.00  0.00    +0.082 C 
ATOM      3  C   LIG    1       29.049 -21.420   6.642  0.00  0.00    +0.058 C 
ATOM      4  C   LIG    1       29.783 -20.436   7.502  0.00  0.00    -0.042 A 
ATOM      5  C   LIG    1       29.462 -19.123   7.141  0.00  0.00    -0.042 A 
ATOM      6  C   LIG    1       30.043 -18.041   7.772  0.00  0.00    +0.004 A 
ATOM      7  C   LIG    1       30.945 -18.276   8.805  0.00  0.00    +0.000 A 
ATOM      8  C   LIG    1       31.261 -19.594   9.182  0.00  0.00    +0.000 A 
ATOM      9  C   LIG    1       30.685 -20.681   8.520  0.00  0.00    +0.004 A 
ATOM     10  C   LIG    1       28.469 -19.097   6.022  0.00  0.00    +0.058 C 
ENDBRANCH   1   2
BRANCH   1  11
ATOM     11  C   LIG    1       25.432 -20.360   5.831  0.00  0.00    +0.030 A 
ATOM     12  C   LIG    1       24.133 -20.393   6.384  0.00  0.00    +0.023 A 
ATOM     13  C   LIG    1       22.992 -20.081   5.633  0.00  0.00    +0.002 A 
ATOM     14  C   LIG    1       23.102 -19.671   4.318  0.00  0.00    +0.000 A 
ATOM     15  C   LIG    1       24.363 -19.628   3.732  0.00  0.00    +0.002 A 
ATOM     16  C   LIG    1       25.486 -20.006   4.474  0.00  0.00    +0.023 A 
ENDBRANCH   1  11
BRANCH   1  17
ATOM     17  C   LIG    1       26.425 -20.859   8.054  0.00  0.00    +0.106 C 
BRANCH  17  18
ATOM     18  C   LIG    1       25.856 -22.252   8.331  0.00  0.00    +0.034 C 
BRANCH  18  19
ATOM     19  C   LIG    1       26.299 -23.305   7.320  0.00  0.00    +0.086 C 
BRANCH  19  20
ATOM     20  N   LIG    1       25.291 -24.329   7.001  0.00  0.00    -0.303 NA
BRANCH  20  22
ATOM     21  C   LIG    1       22.833 -23.743   6.750  0.00  0.00    +0.020 C 
ATOM     22  C   LIG    1       24.203 -23.921   6.103  0.00  0.00    +0.081 C 
ENDBRANCH  20  22
BRANCH  20  23
ATOM     23  C   LIG    1       25.862 -25.636   6.621  0.00  0.00    +0.081 C 
ATOM     24  C   LIG    1       25.596 -26.179   5.213  0.00  0.00    +0.020 C 
ENDBRANCH  20  23
ENDBRANCH  19  20
ENDBRANCH  18  19
ENDBRANCH  17  18
ENDBRANCH   1  17
TORSDOF 8
ENDMDL
MODEL 5
REMARK VINA RESULT:      -8.3      1.647      5.631
REMARK  Name = *****
REMARK                            x       y       z     vdW  Elec       q    Type
REMARK                         _______ _______ _______ _____ _____    ______ ____
ROOT
ATOM      1  N   LIG    1       27.187 -20.529   7.027  0.00  0.00    -0.326 N 
ENDROOT
BRANCH   1   2
ATOM      2  C   LIG    1       26.598 -21.394   8.097  0.00  0.00    +0.082 C 
ATOM      3  C   LIG    1       26.644 -22.930   7.844  0.00  0.00    +0.058 C 
ATOM      4  C   LIG    1       25.256 -23.236   7.363  0.00  0.00    -0.042 A 
ATOM      5  C   LIG    1       24.386 -22.179   7.655  0.00  0.00    -0.042 A 
ATOM      6  C   LIG    1       23.044 -22.246   7.337  0.00  0.00    +0.004 A 
ATOM      7  C   LIG    1       22.566 -23.382   6.691  0.00  0.00    +0.000 A 
ATOM      8  C   LIG    1       23.439 -24.441   6.384  0.00  0.00    +0.000 A 
ATOM      9  C   LIG    1       24.791 -24.372   6.731  0.00  0.00    +0.004 A 
ATOM     10  C   LIG    1       25.104 -21.058   8.336  0.00  0.00    +0.058 C 
ENDBRANCH   1   2
BRANCH   1  11
ATOM     11  C   LIG    1       28.547 -20.184   7.068  0.00  0.00    +0.030 A 
ATOM     12  C   LIG    1       29.092 -19.190   6.225  0.00  0.00    +0.023 A 
ATOM     13  C   LIG    1       30.442 -18.821   6.278  0.00  0.00    +0.002 A 
ATOM     14  C   LIG    1       31.293 -19.387   7.208  0.00  0.00    +0.000 A 
ATOM     15  C   LIG    1       30.800 -20.373   8.056  0.00  0.00    +0.002 A 
ATOM     16  C   LIG    1       29.467 -20.778   7.947  0.00  0.00    +0.023 A 
ENDBRANCH   1  11
BRANCH   1  17
ATOM     17  C   LIG    1       26.310 -19.877   6.031  0.00  0.00    +0.106 C 
BRANCH  17  18
ATOM     18  C   LIG    1       26.122 -20.788   4.817  0.00  0.00    +0.034 C 
BRANCH  18  19
ATOM     19  C   LIG    1       24.692 -20.816   4.289  0.00  0.00    +0.086 C 
BRANCH  19  20
ATOM     20  N   LIG    1       24.313 -19.671   3.446  0.00  0.00    -0.303 NA
BRANCH  20  22
ATOM     21  C   LIG    1       22.468 -19.349   5.162  0.00  0.00    +0.020 C 
ATOM     22  C   LIG    1       23.219 -18.825   3.941  0.00  0.00    +0.081 C 
ENDBRANCH  20  22
BRANCH  20  23
ATOM     23  C   LIG    1       25.458 -18.870   2.970  0.00  0.00    +0.081 C 
ATOM     24  C   LIG    1       25.539 -17.390   3.356  0.00  0.00    +0.020 C 
ENDBRANCH  20  23
ENDBRANCH  19  20
ENDBRANCH  18  19
ENDBRANCH  17  18
ENDBRANCH   1  17
TORSDOF 8
ENDMDL
MODEL 6
REMARK VINA RESULT:      -8.0      1.700      6.416
REMARK  Name = *****
REMARK                            x       y       z     vdW  Elec       q    Type
REMARK                         _______ _______ _______ _____ _____    ______ ____
ROOT
ATOM      1  N   LIG    1       26.451 -20.678   6.053  0.00  0.00    -0.326 N 
ENDROOT
BRANCH   1   2
ATOM      2  C   LIG    1       25.938 -20.664   4.647  0.00  0.00    +0.082 C 
ATOM      3  C   LIG    1       25.611 -19.265   4.046  0.00  0.00    +0.058 C 
ATOM      4  C   LIG    1       24.120 -19.177   4.186  0.00  0.00    -0.042 A 
ATOM      5  C   LIG    1       23.569 -20.438   4.439  0.00  0.00    -0.042 A 
ATOM      6  C   LIG    1       22.206 -20.613   4.572  0.00  0.00    +0.004 A 
ATOM      7  C   LIG    1       21.378 -19.499   4.477  0.00  0.00    +0.000 A 
ATOM      8  C   LIG    1       21.928 -18.226   4.236  0.00  0.00    +0.000 A 
ATOM      9  C   LIG    1       23.307 -18.065   4.080  0.00  0.00    +0.004 A 
ATOM     10  C   LIG    1       24.632 -21.488   4.514  0.00  0.00    +0.058 C 
ENDBRANCH   1   2
BRANCH   1  11
ATOM     11  C   LIG    1       27.632 -19.993   6.380  0.00  0.00    +0.030 A 
ATOM     12  C   LIG    1       28.152 -19.986   7.694  0.00  0.00    +0.023 A 
ATOM     13  C   LIG    1       29.344 -19.328   8.023  0.00  0.00    +0.002 A 
ATOM     14  C   LIG    1       30.095 -18.697   7.050  0.00  0.00    +0.000 A 
ATOM     15  C   LIG    1       29.619 -18.676   5.743  0.00  0.00    +0.002 A 
ATOM     16  C   LIG    1       28.395 -19.280   5.441  0.00  0.00    +0.023 A 
ENDBRANCH   1  11
BRANCH   1  17
ATOM     17  C   LIG    1       25.829 -21.562   7.062  0.00  0.00    +0.106 C 
BRANCH  17  18
ATOM     18  C   LIG    1       26.611 -22.872   7.170  0.00  0.00    +0.034 C 
BRANCH  18  19
ATOM     19  C   LIG    1       25.724 -24.102   7.332  0.00  0.00    +0.086 C 
BRANCH  19  20
ATOM     20  N   LIG    1       24.908 -24.445   6.156  0.00  0.00    -0.303 NA
BRANCH  20  22
ATOM     21  C   LIG    1       24.803 -26.885   5.461  0.00  0.00    +0.020 C 
ATOM     22  C   LIG    1       25.428 -25.505   5.283  0.00  0.00    +0.081 C 
ENDBRANCH  20  22
BRANCH  20  23
ATOM     23  C   LIG    1       23.473 -24.626   6.452  0.00  0.00    +0.081 C 
ATOM     24  C   LIG    1       22.639 -23.405   6.851  0.00  0.00    +0.020 C 
ENDBRANCH  20  23
ENDBRANCH  19  20
ENDBRANCH  18  19
ENDBRANCH  17  18
ENDBRANCH   1  17
TORSDOF 8
ENDMDL
MODEL 7
REMARK VINA RESULT:      -8.0      1.629      5.742
REMARK  Name = *****
REMARK                            x       y       z     vdW  Elec       q    Type
REMARK                         _______ _______ _______ _____ _____    ______ ____
ROOT
ATOM      1  N   LIG    1       27.214 -20.591   7.025  0.00  0.00    -0.326 N 
ENDROOT
BRANCH   1   2
ATOM      2  C   LIG    1       26.665 -21.494   8.084  0.00  0.00    +0.082 C 
ATOM      3  C   LIG    1       26.717 -23.021   7.782  0.00  0.00    +0.058 C 
ATOM      4  C   LIG    1       25.318 -23.325   7.334  0.00  0.00    -0.042 A 
ATOM      5  C   LIG    1       24.447 -22.287   7.683  0.00  0.00    -0.042 A 
ATOM      6  C   LIG    1       23.097 -22.357   7.404  0.00  0.00    +0.004 A 
ATOM      7  C   LIG    1       22.611 -23.478   6.737  0.00  0.00    +0.000 A 
ATOM      8  C   LIG    1       23.484 -24.518   6.372  0.00  0.00    +0.000 A 
ATOM      9  C   LIG    1       24.845 -24.447   6.680  0.00  0.00    +0.004 A 
ATOM     10  C   LIG    1       25.176 -21.181   8.378  0.00  0.00    +0.058 C 
ENDBRANCH   1   2
BRANCH   1  11
ATOM     11  C   LIG    1       28.563 -20.202   7.058  0.00  0.00    +0.030 A 
ATOM     12  C   LIG    1       29.074 -19.204   6.200  0.00  0.00    +0.023 A 
ATOM     13  C   LIG    1       30.412 -18.791   6.245  0.00  0.00    +0.002 A 
ATOM     14  C   LIG    1       31.282 -19.316   7.182  0.00  0.00    +0.000 A 
ATOM     15  C   LIG    1       30.821 -20.305   8.046  0.00  0.00    +0.002 A 
ATOM     16  C   LIG    1       29.502 -20.754   7.945  0.00  0.00    +0.023 A 
ENDBRANCH   1  11
BRANCH   1  17
ATOM     17  C   LIG    1       26.305 -19.950   6.050  0.00  0.00    +0.106 C 
BRANCH  17  18
ATOM     18  C   LIG    1       26.020 -20.904   4.889  0.00  0.00    +0.034 C 
BRANCH  18  19
ATOM     19  C   LIG    1       24.606 -20.783   4.331  0.00  0.00    +0.086 C 
BRANCH  19  20
ATOM     20  N   LIG    1       23.962 -19.476   4.536  0.00  0.00    -0.303 NA
BRANCH  20  22
ATOM     21  C   LIG    1       25.467 -17.857   3.286  0.00  0.00    +0.020 C 
ATOM     22  C   LIG    1       24.093 -18.502   3.445  0.00  0.00    +0.081 C 
ENDBRANCH  20  22
BRANCH  20  23
ATOM     23  C   LIG    1       22.576 -19.560   5.038  0.00  0.00    +0.081 C 
ATOM     24  C   LIG    1       21.704 -20.745   4.612  0.00  0.00    +0.020 C 
ENDBRANCH  20  23
ENDBRANCH  19  20
ENDBRANCH  18  19
ENDBRANCH  17  18
ENDBRANCH   1  17
TORSDOF 8
ENDMDL
MODEL 8
REMARK VINA RESULT:      -7.9      2.600      5.502
REMARK  Name = *****
REMARK                            x       y       z     vdW  Elec       q    Type
REMARK                         _______ _______ _______ _____ _____    ______ ____
ROOT
ATOM      1  N   LIG    1       24.710 -23.667   6.355  0.00  0.00    -0.326 N 
ENDROOT
BRANCH   1   2
ATOM      2  C   LIG    1       25.454 -24.731   5.610  0.00  0.00    +0.082 C 
ATOM      3  C   LIG    1       24.593 -25.876   5.001  0.00  0.00    +0.058 C 
ATOM      4  C   LIG    1       24.760 -26.989   5.992  0.00  0.00    -0.042 A 
ATOM      5  C   LIG    1       25.844 -26.741   6.841  0.00  0.00    -0.042 A 
ATOM      6  C   LIG    1       26.215 -27.644   7.817  0.00  0.00    +0.004 A 
ATOM      7  C   LIG    1       25.469 -28.810   7.966  0.00  0.00    +0.000 A 
ATOM      8  C   LIG    1       24.369 -29.058   7.124  0.00  0.00    +0.000 A 
ATOM      9  C   LIG    1       24.018 -28.147   6.124  0.00  0.00    +0.004 A 
ATOM     10  C   LIG    1       26.495 -25.433   6.517  0.00  0.00    +0.058 C 
ENDBRANCH   1   2
BRANCH   1  11
ATOM     11  C   LIG    1       25.404 -22.589   6.926  0.00  0.00    +0.030 A 
ATOM     12  C   LIG    1       25.307 -22.282   8.301  0.00  0.00    +0.023 A 
ATOM     13  C   LIG    1       26.017 -21.224   8.884  0.00  0.00    +0.002 A 
ATOM     14  C   LIG    1       26.893 -20.463   8.134  0.00  0.00    +0.000 A 
ATOM     15  C   LIG    1       27.016 -20.728   6.774  0.00  0.00    +0.002 A 
ATOM     16  C   LIG    1       26.252 -21.744   6.193  0.00  0.00    +0.023 A 
ENDBRANCH   1  11
BRANCH   1  17
ATOM     17  C   LIG    1       23.273 -23.839   6.660  0.00  0.00    +0.106 C 
BRANCH  17  18
ATOM     18  C   LIG    1       22.572 -22.480   6.684  0.00  0.00    +0.034 C 
BRANCH  18  19
ATOM     19  C   LIG    1       22.363 -21.875   5.300  0.00  0.00    +0.086 C 
BRANCH  19  20
ATOM     20  N   LIG    1       23.159 -20.670   5.017  0.00  0.00    -0.303 NA
BRANCH  20  22
ATOM     21  C   LIG    1       25.071 -19.816   3.580  0.00  0.00    +0.020 C 
ATOM     22  C   LIG    1       23.751 -20.575   3.676  0.00  0.00    +0.081 C 
ENDBRANCH  20  22
BRANCH  20  23
ATOM     23  C   LIG    1       22.509 -19.409   5.424  0.00  0.00    +0.081 C 
ATOM     24  C   LIG    1       22.036 -18.436   4.340  0.00  0.00    +0.020 C 
ENDBRANCH  20  23
ENDBRANCH  19  20
ENDBRANCH  18  19
ENDBRANCH  17  18
ENDBRANCH   1  17
TORSDOF 8
ENDMDL
MODEL 9
REMARK VINA RESULT:      -7.9      2.444      6.960
REMARK  Name = *****
REMARK                            x       y       z     vdW  Elec       q    Type
REMARK                         _______ _______ _______ _____ _____    ______ ____
ROOT
ATOM      1  N   LIG    1       25.212 -23.684   6.913  0.00  0.00    -0.326 N 
ENDROOT
BRANCH   1   2
ATOM      2  C   LIG    1       24.076 -23.575   5.944  0.00  0.00    +0.082 C 
ATOM      3  C   LIG    1       24.440 -23.099   4.507  0.00  0.00    +0.058 C 
ATOM      4  C   LIG    1       24.062 -21.647   4.526  0.00  0.00    -0.042 A 
ATOM      5  C   LIG    1       23.236 -21.363   5.619  0.00  0.00    -0.042 A 
ATOM      6  C   LIG    1       22.732 -20.095   5.828  0.00  0.00    +0.004 A 
ATOM      7  C   LIG    1       23.082 -19.082   4.940  0.00  0.00    +0.000 A 
ATOM      8  C   LIG    1       23.923 -19.360   3.847  0.00  0.00    +0.000 A 
ATOM      9  C   LIG    1       24.409 -20.652   3.633  0.00  0.00    +0.004 A 
ATOM     10  C   LIG    1       22.997 -22.585   6.448  0.00  0.00    +0.058 C 
ENDBRANCH   1   2
BRANCH   1  11
ATOM     11  C   LIG    1       25.877 -22.530   7.355  0.00  0.00    +0.030 A 
ATOM     12  C   LIG    1       27.013 -22.021   6.688  0.00  0.00    +0.023 A 
ATOM     13  C   LIG    1       27.666 -20.854   7.106  0.00  0.00    +0.002 A 
ATOM     14  C   LIG    1       27.184 -20.117   8.171  0.00  0.00    +0.000 A 
ATOM     15  C   LIG    1       26.068 -20.583   8.859  0.00  0.00    +0.002 A 
ATOM     16  C   LIG    1       25.466 -21.784   8.472  0.00  0.00    +0.023 A 
ENDBRANCH   1  11
BRANCH   1  17
ATOM     17  C   LIG    1       25.764 -25.010   7.265  0.00  0.00    +0.106 C 
BRANCH  17  18
ATOM     18  C   LIG    1       25.083 -26.102   6.438  0.00  0.00    +0.034 C 
BRANCH  18  19
ATOM     19  C   LIG    1       25.744 -27.470   6.568  0.00  0.00    +0.086 C 
BRANCH  19  20
ATOM     20  N   LIG    1       24.865 -28.546   7.054  0.00  0.00    -0.303 NA
BRANCH  20  22
ATOM     21  C   LIG    1       25.359 -30.448   5.445  0.00  0.00    +0.020 C 
ATOM     22  C   LIG    1       24.346 -29.476   6.043  0.00  0.00    +0.081 C 
ENDBRANCH  20  22
BRANCH  20  23
ATOM     23  C   LIG    1       25.380 -29.253   8.243  0.00  0.00    +0.081 C 
ATOM     24  C   LIG    1       26.421 -28.557   9.126  0.00  0.00    +0.020 C 
ENDBRANCH  20  23
ENDBRANCH  19  20
ENDBRANCH  18  19
ENDBRANCH  17  18
ENDBRANCH   1  17
TORSDOF 8
ENDMDL
