MODEL 1
REMARK VINA RESULT:      12.6      0.000      0.000
REMARK  Name = *****
REMARK                            x       y       z     vdW  Elec       q    Type
REMARK                         _______ _______ _______ _____ _____    ______ ____
ROOT
ATOM      1  C   LIG    1       25.279 -31.131   6.304  0.00  0.00    +0.127 C 
ATOM      2  C   LIG    1       24.465 -31.272   7.616  0.00  0.00    +0.015 C 
ATOM      3  C   LIG    1       23.825 -32.641   7.845  0.00  0.00    +0.010 C 
ATOM      4  C   LIG    1       23.485 -30.118   7.830  0.00  0.00    +0.011 C 
ATOM      5  C   LIG    1       24.085 -28.739   7.511  0.00  0.00    +0.065 C 
ATOM      6  C   LIG    1       25.532 -28.810   6.988  0.00  0.00    +0.174 C 
ATOM      7  O   LIG    1       26.451 -29.245   7.984  0.00  0.00    -0.345 OA
ATOM      8  C   LIG    1       26.751 -28.369   9.067  0.00  0.00    +0.129 C 
ATOM      9  C   LIG    1       26.044 -28.768  10.395  0.00  0.00    +0.059 C 
ATOM     10  C   LIG    1       26.975 -28.487  11.550  0.00  0.00    -0.023 C 
ATOM     11  C   LIG    1       26.863 -27.719  12.656  0.00  0.00    -0.048 C 
ATOM     12  C   LIG    1       28.126 -27.553  13.459  0.00  0.00    +0.041 C 
ATOM     13  C   LIG    1       25.624 -26.970  13.144  0.00  0.00    +0.153 C 
ATOM     14  C   LIG    1       25.761 -25.413  13.229  0.00  0.00    +0.042 C 
ATOM     15  C   LIG    1       26.710 -24.805  14.262  0.00  0.00    +0.014 C 
ATOM     16  C   LIG    1       26.064 -24.849  11.879  0.00  0.00    -0.021 C 
ATOM     17  C   LIG    1       25.351 -23.835  11.384  0.00  0.00    -0.004 C 
ATOM     18  C   LIG    1       25.437 -23.536   9.997  0.00  0.00    +0.004 C 
ATOM     19  C   LIG    1       25.274 -22.338   9.440  0.00  0.00    -0.009 C 
ATOM     20  C   LIG    1       25.544 -21.996   8.008  0.00  0.00    +0.134 C 
ATOM     21  C   LIG    1       26.632 -20.976   8.419  0.00  0.00    +0.188 C 
ATOM     22  C   LIG    1       27.198 -20.222   7.236  0.00  0.00    +0.172 C 
ATOM     23  C   LIG    1       27.839 -21.252   6.336  0.00  0.00    -0.045 C 
ATOM     24  C   LIG    1       29.091 -20.810   5.645  0.00  0.00    +0.041 C 
ATOM     25  C   LIG    1       27.342 -22.507   6.224  0.00  0.00    -0.008 C 
ATOM     26  O   LIG    1       26.023 -20.123   9.413  0.00  0.00    -0.366 OA
ATOM     27  C   LIG    1       26.017 -22.939   6.848  0.00  0.00    +0.159 C 
ATOM     28  C   LIG    1       25.774 -24.455   7.054  0.00  0.00    +0.318 C 
ATOM     29  O   LIG    1       24.690 -24.930   7.270  0.00  0.00    -0.250 OA
ATOM     30  O   LIG    1       26.927 -25.199   6.973  0.00  0.00    -0.461 OA
ATOM     31  C   LIG    1       26.885 -26.628   7.273  0.00  0.00    +0.184 C 
ATOM     32  C   LIG    1       25.196 -21.029  10.187  0.00  0.00    +0.194 C 
ATOM     33  C   LIG    1       26.586 -26.891   8.738  0.00  0.00    +0.076 C 
ATOM     34  C   LIG    1       26.004 -27.475   6.349  0.00  0.00    +0.109 C 
ATOM     35  O   LIG    1       25.505 -29.766   5.913  0.00  0.00    -0.345 OA
ENDROOT
BRANCH   1  36
ATOM     36  C   LIG    1       24.750 -31.904   5.061  0.00  0.00    +0.015 C 
ATOM     37  C   LIG    1       25.158 -31.247   3.734  0.00  0.00    +0.010 C 
BRANCH  36  39
ATOM     38  C   LIG    1       26.665 -33.579   5.491  0.00  0.00    +0.004 C 
ATOM     39  C   LIG    1       25.227 -33.379   5.031  0.00  0.00    +0.002 C 
ENDBRANCH  36  39
ENDBRANCH   1  36
BRANCH  20  40
ATOM     40  O   LIG    1       24.350 -21.324   7.547  0.00  0.00    -0.380 OA
ATOM     41  H   LIG    1       24.655 -20.547   7.037  0.00  0.00    +0.211 HD
ENDBRANCH  20  40
BRANCH  22  42
ATOM     42  O   LIG    1       26.169 -19.538   6.529  0.00  0.00    -0.385 OA
ATOM     43  H   LIG    1       25.396 -19.564   7.129  0.00  0.00    +0.210 HD
ENDBRANCH  22  42
BRANCH  13  44
ATOM     44  O   LIG    1       25.223 -27.433  14.443  0.00  0.00    -0.343 OA
BRANCH  44  45
ATOM     45  C   LIG    1       23.906 -28.004  14.490  0.00  0.00    +0.254 C 
ATOM     46  O   LIG    1       23.908 -29.380  14.147  0.00  0.00    -0.346 OA
ATOM     47  C   LIG    1       22.602 -29.963  14.061  0.00  0.00    +0.150 C 
ATOM     48  C   LIG    1       21.896 -30.059  15.409  0.00  0.00    +0.040 C 
ATOM     49  C   LIG    1       21.819 -29.312  12.898  0.00  0.00    +0.179 C 
ATOM     50  C   LIG    1       21.684 -27.776  13.199  0.00  0.00    +0.154 C 
ATOM     51  C   LIG    1       23.047 -27.157  13.550  0.00  0.00    +0.095 C 
BRANCH  50  52
ATOM     52  O   LIG    1       20.751 -27.579  14.284  0.00  0.00    -0.377 OA
ATOM     53  C   LIG    1       20.809 -26.308  14.932  0.00  0.00    +0.194 C 
ENDBRANCH  50  52
BRANCH  49  54
ATOM     54  O   LIG    1       22.492 -29.517  11.612  0.00  0.00    -0.343 OA
BRANCH  54  55
ATOM     55  C   LIG    1       23.092 -30.829  11.415  0.00  0.00    +0.254 C 
ATOM     56  O   LIG    1       22.366 -31.820  12.139  0.00  0.00    -0.346 OA
ATOM     57  C   LIG    1       22.807 -33.173  12.030  0.00  0.00    +0.149 C 
ATOM     58  C   LIG    1       22.622 -33.765  10.636  0.00  0.00    +0.040 C 
ATOM     59  C   LIG    1       24.222 -33.263  12.601  0.00  0.00    +0.172 C 
ATOM     60  C   LIG    1       25.155 -32.242  11.921  0.00  0.00    +0.153 C 
ATOM     61  C   LIG    1       24.530 -30.830  11.955  0.00  0.00    +0.095 C 
BRANCH  59  62
ATOM     62  O   LIG    1       24.165 -32.971  14.008  0.00  0.00    -0.387 OA
ATOM     63  H   LIG    1       23.245 -33.145  14.295  0.00  0.00    +0.210 HD
ENDBRANCH  59  62
BRANCH  60  64
ATOM     64  O   LIG    1       25.449 -32.564  10.553  0.00  0.00    -0.377 OA
ATOM     65  C   LIG    1       26.088 -33.824  10.364  0.00  0.00    +0.194 C 
ENDBRANCH  60  64
ENDBRANCH  54  55
ENDBRANCH  49  54
ENDBRANCH  44  45
ENDBRANCH  13  44
TORSDOF 11
ENDMDL
MODEL 2
REMARK VINA RESULT:      12.7      0.991      1.613
REMARK  Name = *****
REMARK                            x       y       z     vdW  Elec       q    Type
REMARK                         _______ _______ _______ _____ _____    ______ ____
ROOT
ATOM      1  C   LIG    1       25.508 -31.241   5.924  0.00  0.00    +0.127 C 
ATOM      2  C   LIG    1       24.611 -31.423   7.176  0.00  0.00    +0.015 C 
ATOM      3  C   LIG    1       23.950 -32.793   7.315  0.00  0.00    +0.010 C 
ATOM      4  C   LIG    1       23.626 -30.269   7.368  0.00  0.00    +0.011 C 
ATOM      5  C   LIG    1       24.253 -28.885   7.138  0.00  0.00    +0.065 C 
ATOM      6  C   LIG    1       25.729 -28.948   6.706  0.00  0.00    +0.174 C 
ATOM      7  O   LIG    1       26.581 -29.426   7.743  0.00  0.00    -0.345 OA
ATOM      8  C   LIG    1       26.816 -28.590   8.873  0.00  0.00    +0.129 C 
ATOM      9  C   LIG    1       26.023 -29.031  10.139  0.00  0.00    +0.059 C 
ATOM     10  C   LIG    1       26.879 -28.799  11.359  0.00  0.00    -0.023 C 
ATOM     11  C   LIG    1       26.702 -28.069  12.483  0.00  0.00    -0.048 C 
ATOM     12  C   LIG    1       27.912 -27.941  13.370  0.00  0.00    +0.041 C 
ATOM     13  C   LIG    1       25.438 -27.328  12.918  0.00  0.00    +0.153 C 
ATOM     14  C   LIG    1       25.578 -25.776  13.067  0.00  0.00    +0.042 C 
ATOM     15  C   LIG    1       26.462 -25.212  14.180  0.00  0.00    +0.014 C 
ATOM     16  C   LIG    1       25.970 -25.167  11.759  0.00  0.00    -0.021 C 
ATOM     17  C   LIG    1       25.295 -24.130  11.257  0.00  0.00    -0.004 C 
ATOM     18  C   LIG    1       25.472 -23.783   9.890  0.00  0.00    +0.004 C 
ATOM     19  C   LIG    1       25.352 -22.565   9.367  0.00  0.00    -0.009 C 
ATOM     20  C   LIG    1       25.714 -22.175   7.968  0.00  0.00    +0.134 C 
ATOM     21  C   LIG    1       26.780 -21.178   8.484  0.00  0.00    +0.188 C 
ATOM     22  C   LIG    1       27.425 -20.388   7.367  0.00  0.00    +0.172 C 
ATOM     23  C   LIG    1       28.116 -21.390   6.474  0.00  0.00    -0.045 C 
ATOM     24  C   LIG    1       29.412 -20.934   5.880  0.00  0.00    +0.041 C 
ATOM     25  C   LIG    1       27.620 -22.636   6.285  0.00  0.00    -0.008 C 
ATOM     26  O   LIG    1       26.113 -20.356   9.467  0.00  0.00    -0.366 OA
ATOM     27  C   LIG    1       26.256 -23.080   6.808  0.00  0.00    +0.159 C 
ATOM     28  C   LIG    1       25.991 -24.601   6.944  0.00  0.00    +0.318 C 
ATOM     29  O   LIG    1       24.894 -25.074   7.073  0.00  0.00    -0.250 OA
ATOM     30  O   LIG    1       27.143 -25.350   6.909  0.00  0.00    -0.461 OA
ATOM     31  C   LIG    1       27.074 -26.788   7.155  0.00  0.00    +0.184 C 
ATOM     32  C   LIG    1       25.233 -21.283  10.154  0.00  0.00    +0.194 C 
ATOM     33  C   LIG    1       26.680 -27.101   8.587  0.00  0.00    +0.076 C 
ATOM     34  C   LIG    1       26.249 -27.595   6.146  0.00  0.00    +0.109 C 
ATOM     35  O   LIG    1       25.767 -29.865   5.598  0.00  0.00    -0.345 OA
ENDROOT
BRANCH   1  36
ATOM     36  C   LIG    1       25.055 -31.966   4.624  0.00  0.00    +0.015 C 
ATOM     37  C   LIG    1       25.104 -31.055   3.388  0.00  0.00    +0.010 C 
BRANCH  36  39
ATOM     38  C   LIG    1       25.734 -33.769   2.907  0.00  0.00    +0.004 C 
ATOM     39  C   LIG    1       25.903 -33.228   4.321  0.00  0.00    +0.002 C 
ENDBRANCH  36  39
ENDBRANCH   1  36
BRANCH  20  40
ATOM     40  O   LIG    1       24.556 -21.478   7.456  0.00  0.00    -0.380 OA
ATOM     41  H   LIG    1       24.754 -21.272   6.520  0.00  0.00    +0.211 HD
ENDBRANCH  20  40
BRANCH  22  42
ATOM     42  O   LIG    1       26.446 -19.671   6.621  0.00  0.00    -0.385 OA
ATOM     43  H   LIG    1       26.936 -19.304   5.857  0.00  0.00    +0.210 HD
ENDBRANCH  22  42
BRANCH  13  44
ATOM     44  O   LIG    1       24.953 -27.834  14.171  0.00  0.00    -0.343 OA
BRANCH  44  45
ATOM     45  C   LIG    1       23.523 -27.952  14.250  0.00  0.00    +0.254 C 
ATOM     46  O   LIG    1       23.100 -29.305  14.288  0.00  0.00    -0.346 OA
ATOM     47  C   LIG    1       21.679 -29.474  14.243  0.00  0.00    +0.150 C 
ATOM     48  C   LIG    1       20.974 -28.975  15.499  0.00  0.00    +0.040 C 
ATOM     49  C   LIG    1       21.139 -28.976  12.884  0.00  0.00    +0.179 C 
ATOM     50  C   LIG    1       21.484 -27.448  12.752  0.00  0.00    +0.154 C 
ATOM     51  C   LIG    1       22.971 -27.188  13.045  0.00  0.00    +0.095 C 
BRANCH  50  52
ATOM     52  O   LIG    1       20.655 -26.687  13.657  0.00  0.00    -0.377 OA
ATOM     53  C   LIG    1       19.498 -26.081  13.082  0.00  0.00    +0.194 C 
ENDBRANCH  50  52
BRANCH  49  54
ATOM     54  O   LIG    1       21.719 -29.723  11.764  0.00  0.00    -0.343 OA
BRANCH  54  55
ATOM     55  C   LIG    1       21.648 -31.173  11.869  0.00  0.00    +0.254 C 
ATOM     56  O   LIG    1       22.866 -31.693  12.396  0.00  0.00    -0.346 OA
ATOM     57  C   LIG    1       22.953 -33.104  12.590  0.00  0.00    +0.149 C 
ATOM     58  C   LIG    1       22.020 -33.629  13.679  0.00  0.00    +0.040 C 
ATOM     59  C   LIG    1       22.822 -33.784  11.228  0.00  0.00    +0.172 C 
ATOM     60  C   LIG    1       21.540 -33.328  10.506  0.00  0.00    +0.153 C 
ATOM     61  C   LIG    1       21.456 -31.786  10.472  0.00  0.00    +0.095 C 
BRANCH  59  62
ATOM     62  O   LIG    1       23.959 -33.418  10.426  0.00  0.00    -0.387 OA
ATOM     63  H   LIG    1       24.705 -33.977  10.723  0.00  0.00    +0.210 HD
ENDBRANCH  59  62
BRANCH  60  64
ATOM     64  O   LIG    1       20.337 -33.824  11.116  0.00  0.00    -0.377 OA
ATOM     65  C   LIG    1       19.165 -33.680  10.318  0.00  0.00    +0.194 C 
ENDBRANCH  60  64
ENDBRANCH  54  55
ENDBRANCH  49  54
ENDBRANCH  44  45
ENDBRANCH  13  44
TORSDOF 11
ENDMDL
MODEL 3
REMARK VINA RESULT:      12.7      1.349      3.352
REMARK  Name = *****
REMARK                            x       y       z     vdW  Elec       q    Type
REMARK                         _______ _______ _______ _____ _____    ______ ____
ROOT
ATOM      1  C   LIG    1       25.295 -31.584   5.491  0.00  0.00    +0.127 C 
ATOM      2  C   LIG    1       24.700 -31.922   6.882  0.00  0.00    +0.015 C 
ATOM      3  C   LIG    1       24.171 -33.347   7.040  0.00  0.00    +0.010 C 
ATOM      4  C   LIG    1       23.708 -30.866   7.371  0.00  0.00    +0.011 C 
ATOM      5  C   LIG    1       24.183 -29.424   7.132  0.00  0.00    +0.065 C 
ATOM      6  C   LIG    1       25.534 -29.340   6.399  0.00  0.00    +0.174 C 
ATOM      7  O   LIG    1       26.616 -29.819   7.191  0.00  0.00    -0.345 OA
ATOM      8  C   LIG    1       27.034 -29.047   8.314  0.00  0.00    +0.129 C 
ATOM      9  C   LIG    1       26.560 -29.634   9.675  0.00  0.00    +0.059 C 
ATOM     10  C   LIG    1       27.640 -29.419  10.706  0.00  0.00    -0.023 C 
ATOM     11  C   LIG    1       27.661 -28.785  11.899  0.00  0.00    -0.048 C 
ATOM     12  C   LIG    1       29.023 -28.622  12.522  0.00  0.00    +0.041 C 
ATOM     13  C   LIG    1       26.475 -28.177  12.648  0.00  0.00    +0.153 C 
ATOM     14  C   LIG    1       26.546 -26.633  12.894  0.00  0.00    +0.042 C 
ATOM     15  C   LIG    1       27.611 -26.079  13.841  0.00  0.00    +0.014 C 
ATOM     16  C   LIG    1       26.611 -25.907  11.589  0.00  0.00    -0.021 C 
ATOM     17  C   LIG    1       25.780 -24.895  11.327  0.00  0.00    -0.004 C 
ATOM     18  C   LIG    1       25.638 -24.442   9.988  0.00  0.00    +0.004 C 
ATOM     19  C   LIG    1       25.333 -23.204   9.605  0.00  0.00    -0.009 C 
ATOM     20  C   LIG    1       25.362 -22.692   8.199  0.00  0.00    +0.134 C 
ATOM     21  C   LIG    1       26.448 -21.652   8.563  0.00  0.00    +0.188 C 
ATOM     22  C   LIG    1       26.789 -20.738   7.407  0.00  0.00    +0.172 C 
ATOM     23  C   LIG    1       27.335 -21.619   6.308  0.00  0.00    -0.045 C 
ATOM     24  C   LIG    1       28.443 -21.021   5.497  0.00  0.00    +0.041 C 
ATOM     25  C   LIG    1       26.890 -22.884   6.123  0.00  0.00    -0.008 C 
ATOM     26  O   LIG    1       25.957 -20.954   9.728  0.00  0.00    -0.366 OA
ATOM     27  C   LIG    1       25.699 -23.469   6.879  0.00  0.00    +0.159 C 
ATOM     28  C   LIG    1       25.566 -25.012   6.940  0.00  0.00    +0.318 C 
ATOM     29  O   LIG    1       24.554 -25.579   7.254  0.00  0.00    -0.250 OA
ATOM     30  O   LIG    1       26.729 -25.663   6.604  0.00  0.00    -0.461 OA
ATOM     31  C   LIG    1       26.805 -27.116   6.737  0.00  0.00    +0.184 C 
ATOM     32  C   LIG    1       25.304 -21.993  10.504  0.00  0.00    +0.194 C 
ATOM     33  C   LIG    1       26.747 -27.556   8.188  0.00  0.00    +0.076 C 
ATOM     34  C   LIG    1       25.836 -27.915   5.858  0.00  0.00    +0.109 C 
ATOM     35  O   LIG    1       25.391 -30.173   5.234  0.00  0.00    -0.345 OA
ENDROOT
BRANCH   1  36
ATOM     36  C   LIG    1       24.622 -32.252   4.257  0.00  0.00    +0.015 C 
ATOM     37  C   LIG    1       25.589 -32.433   3.078  0.00  0.00    +0.010 C 
BRANCH  36  39
ATOM     38  C   LIG    1       22.486 -33.662   4.589  0.00  0.00    +0.004 C 
ATOM     39  C   LIG    1       24.009 -33.637   4.590  0.00  0.00    +0.002 C 
ENDBRANCH  36  39
ENDBRANCH   1  36
BRANCH  20  40
ATOM     40  O   LIG    1       24.080 -22.056   7.999  0.00  0.00    -0.380 OA
ATOM     41  H   LIG    1       24.189 -21.458   7.232  0.00  0.00    +0.211 HD
ENDBRANCH  20  40
BRANCH  22  42
ATOM     42  O   LIG    1       25.630 -20.051   6.943  0.00  0.00    -0.385 OA
ATOM     43  H   LIG    1       25.975 -19.357   6.346  0.00  0.00    +0.210 HD
ENDBRANCH  22  42
BRANCH  13  44
ATOM     44  O   LIG    1       26.302 -28.805  13.928  0.00  0.00    -0.343 OA
BRANCH  44  45
ATOM     45  C   LIG    1       25.517 -30.007  13.899  0.00  0.00    +0.254 C 
ATOM     46  O   LIG    1       25.131 -30.361  12.581  0.00  0.00    -0.346 OA
ATOM     47  C   LIG    1       24.245 -31.484  12.513  0.00  0.00    +0.150 C 
ATOM     48  C   LIG    1       24.905 -32.796  12.922  0.00  0.00    +0.040 C 
ATOM     49  C   LIG    1       22.902 -31.128  13.189  0.00  0.00    +0.179 C 
ATOM     50  C   LIG    1       23.189 -30.783  14.695  0.00  0.00    +0.154 C 
ATOM     51  C   LIG    1       24.324 -29.754  14.822  0.00  0.00    +0.095 C 
BRANCH  50  52
ATOM     52  O   LIG    1       23.528 -31.992  15.409  0.00  0.00    -0.377 OA
ATOM     53  C   LIG    1       22.512 -32.993  15.456  0.00  0.00    +0.194 C 
ENDBRANCH  50  52
BRANCH  49  54
ATOM     54  O   LIG    1       22.247 -29.995  12.527  0.00  0.00    -0.343 OA
BRANCH  54  55
ATOM     55  C   LIG    1       21.664 -28.998  13.412  0.00  0.00    +0.254 C 
ATOM     56  O   LIG    1       20.255 -28.918  13.210  0.00  0.00    -0.346 OA
ATOM     57  C   LIG    1       19.521 -28.003  14.023  0.00  0.00    +0.149 C 
ATOM     58  C   LIG    1       19.492 -28.388  15.500  0.00  0.00    +0.040 C 
ATOM     59  C   LIG    1       20.016 -26.590  13.721  0.00  0.00    +0.172 C 
ATOM     60  C   LIG    1       21.544 -26.494  13.892  0.00  0.00    +0.153 C 
ATOM     61  C   LIG    1       22.250 -27.613  13.094  0.00  0.00    +0.095 C 
BRANCH  59  62
ATOM     62  O   LIG    1       19.683 -26.272  12.358  0.00  0.00    -0.387 OA
ATOM     63  H   LIG    1       18.991 -26.907  12.081  0.00  0.00    +0.210 HD
ENDBRANCH  59  62
BRANCH  60  64
ATOM     64  O   LIG    1       21.971 -26.589  15.260  0.00  0.00    -0.377 OA
ATOM     65  C   LIG    1       23.354 -26.318  15.471  0.00  0.00    +0.194 C 
ENDBRANCH  60  64
ENDBRANCH  54  55
ENDBRANCH  49  54
ENDBRANCH  44  45
ENDBRANCH  13  44
TORSDOF 11
ENDMDL
MODEL 4
REMARK VINA RESULT:      13.2      1.843      3.398
REMARK  Name = *****
REMARK                            x       y       z     vdW  Elec       q    Type
REMARK                         _______ _______ _______ _____ _____    ______ ____
ROOT
ATOM      1  C   LIG    1       25.401 -31.110   5.601  0.00  0.00    +0.127 C 
ATOM      2  C   LIG    1       24.518 -31.338   6.856  0.00  0.00    +0.015 C 
ATOM      3  C   LIG    1       23.847 -32.708   6.944  0.00  0.00    +0.010 C 
ATOM      4  C   LIG    1       23.545 -30.186   7.109  0.00  0.00    +0.011 C 
ATOM      5  C   LIG    1       24.182 -28.798   6.930  0.00  0.00    +0.065 C 
ATOM      6  C   LIG    1       25.652 -28.855   6.477  0.00  0.00    +0.174 C 
ATOM      7  O   LIG    1       26.512 -29.383   7.481  0.00  0.00    -0.345 OA
ATOM      8  C   LIG    1       26.768 -28.598   8.643  0.00  0.00    +0.129 C 
ATOM      9  C   LIG    1       25.988 -29.086   9.899  0.00  0.00    +0.059 C 
ATOM     10  C   LIG    1       26.861 -28.913  11.117  0.00  0.00    -0.023 C 
ATOM     11  C   LIG    1       26.703 -28.231  12.273  0.00  0.00    -0.048 C 
ATOM     12  C   LIG    1       27.925 -28.151  13.149  0.00  0.00    +0.041 C 
ATOM     13  C   LIG    1       25.451 -27.498  12.755  0.00  0.00    +0.153 C 
ATOM     14  C   LIG    1       25.607 -25.955  12.968  0.00  0.00    +0.042 C 
ATOM     15  C   LIG    1       26.510 -25.447  14.092  0.00  0.00    +0.014 C 
ATOM     16  C   LIG    1       25.988 -25.295  11.683  0.00  0.00    -0.021 C 
ATOM     17  C   LIG    1       25.316 -24.232  11.234  0.00  0.00    -0.004 C 
ATOM     18  C   LIG    1       25.478 -23.828   9.881  0.00  0.00    +0.004 C 
ATOM     19  C   LIG    1       25.362 -22.588   9.411  0.00  0.00    -0.009 C 
ATOM     20  C   LIG    1       25.711 -22.142   8.026  0.00  0.00    +0.134 C 
ATOM     21  C   LIG    1       26.791 -21.177   8.569  0.00  0.00    +0.188 C 
ATOM     22  C   LIG    1       27.429 -20.344   7.480  0.00  0.00    +0.172 C 
ATOM     23  C   LIG    1       28.100 -21.313   6.535  0.00  0.00    -0.045 C 
ATOM     24  C   LIG    1       29.393 -20.842   5.945  0.00  0.00    +0.041 C 
ATOM     25  C   LIG    1       27.591 -22.546   6.300  0.00  0.00    -0.008 C 
ATOM     26  O   LIG    1       26.144 -20.392   9.595  0.00  0.00    -0.366 OA
ATOM     27  C   LIG    1       26.230 -23.000   6.821  0.00  0.00    +0.159 C 
ATOM     28  C   LIG    1       25.954 -24.524   6.896  0.00  0.00    +0.318 C 
ATOM     29  O   LIG    1       24.854 -24.994   7.019  0.00  0.00    -0.250 OA
ATOM     30  O   LIG    1       27.098 -25.280   6.815  0.00  0.00    -0.461 OA
ATOM     31  C   LIG    1       27.021 -26.727   7.000  0.00  0.00    +0.184 C 
ATOM     32  C   LIG    1       25.264 -21.340  10.254  0.00  0.00    +0.194 C 
ATOM     33  C   LIG    1       26.642 -27.097   8.422  0.00  0.00    +0.076 C 
ATOM     34  C   LIG    1       26.176 -27.484   5.968  0.00  0.00    +0.109 C 
ATOM     35  O   LIG    1       25.667 -29.724   5.331  0.00  0.00    -0.345 OA
ENDROOT
BRANCH   1  36
ATOM     36  C   LIG    1       24.926 -31.775   4.277  0.00  0.00    +0.015 C 
ATOM     37  C   LIG    1       25.498 -31.088   3.029  0.00  0.00    +0.010 C 
BRANCH  36  39
ATOM     38  C   LIG    1       26.762 -33.580   4.453  0.00  0.00    +0.004 C 
ATOM     39  C   LIG    1       25.289 -33.281   4.204  0.00  0.00    +0.002 C 
ENDBRANCH  36  39
ENDBRANCH   1  36
BRANCH  20  40
ATOM     40  O   LIG    1       24.552 -21.414   7.558  0.00  0.00    -0.380 OA
ATOM     41  H   LIG    1       24.895 -20.605   7.128  0.00  0.00    +0.211 HD
ENDBRANCH  20  40
BRANCH  22  42
ATOM     42  O   LIG    1       26.447 -19.588   6.777  0.00  0.00    -0.385 OA
ATOM     43  H   LIG    1       25.923 -20.255   6.288  0.00  0.00    +0.210 HD
ENDBRANCH  22  42
BRANCH  13  44
ATOM     44  O   LIG    1       24.977 -28.053  13.992  0.00  0.00    -0.343 OA
BRANCH  44  45
ATOM     45  C   LIG    1       24.515 -29.410  13.896  0.00  0.00    +0.254 C 
ATOM     46  O   LIG    1       23.250 -29.500  13.262  0.00  0.00    -0.346 OA
ATOM     47  C   LIG    1       22.693 -30.819  13.253  0.00  0.00    +0.150 C 
ATOM     48  C   LIG    1       23.466 -31.791  12.369  0.00  0.00    +0.040 C 
ATOM     49  C   LIG    1       22.393 -31.266  14.701  0.00  0.00    +0.179 C 
ATOM     50  C   LIG    1       23.747 -31.279  15.499  0.00  0.00    +0.154 C 
ATOM     51  C   LIG    1       24.506 -29.954  15.326  0.00  0.00    +0.095 C 
BRANCH  50  52
ATOM     52  O   LIG    1       24.560 -32.384  15.049  0.00  0.00    -0.377 OA
ATOM     53  C   LIG    1       25.948 -32.311  15.378  0.00  0.00    +0.194 C 
ENDBRANCH  50  52
BRANCH  49  54
ATOM     54  O   LIG    1       21.430 -30.373  15.354  0.00  0.00    -0.343 OA
BRANCH  54  55
ATOM     55  C   LIG    1       20.027 -30.660  15.095  0.00  0.00    +0.254 C 
ATOM     56  O   LIG    1       19.902 -31.788  14.231  0.00  0.00    -0.346 OA
ATOM     57  C   LIG    1       18.584 -32.222  13.898  0.00  0.00    +0.149 C 
ATOM     58  C   LIG    1       17.810 -32.788  15.086  0.00  0.00    +0.040 C 
ATOM     59  C   LIG    1       17.888 -31.096  13.135  0.00  0.00    +0.172 C 
ATOM     60  C   LIG    1       17.931 -29.780  13.935  0.00  0.00    +0.153 C 
ATOM     61  C   LIG    1       19.376 -29.464  14.381  0.00  0.00    +0.095 C 
BRANCH  59  62
ATOM     62  O   LIG    1       18.574 -30.901  11.886  0.00  0.00    -0.387 OA
ATOM     63  H   LIG    1       17.932 -30.487  11.274  0.00  0.00    +0.210 HD
ENDBRANCH  59  62
BRANCH  60  64
ATOM     64  O   LIG    1       17.100 -29.799  15.106  0.00  0.00    -0.377 OA
ATOM     65  C   LIG    1       16.600 -28.524  15.500  0.00  0.00    +0.194 C 
ENDBRANCH  60  64
ENDBRANCH  54  55
ENDBRANCH  49  54
ENDBRANCH  44  45
ENDBRANCH  13  44
TORSDOF 11
ENDMDL
MODEL 5
REMARK VINA RESULT:      14.7      2.391      9.728
REMARK  Name = *****
REMARK                            x       y       z     vdW  Elec       q    Type
REMARK                         _______ _______ _______ _____ _____    ______ ____
ROOT
ATOM      1  C   LIG    1       24.667 -32.122   4.163  0.00  0.00    +0.127 C 
ATOM      2  C   LIG    1       25.633 -31.020   3.655  0.00  0.00    +0.015 C 
ATOM      3  C   LIG    1       26.051 -31.141   2.191  0.00  0.00    +0.010 C 
ATOM      4  C   LIG    1       26.821 -30.799   4.592  0.00  0.00    +0.011 C 
ATOM      5  C   LIG    1       26.429 -30.771   6.079  0.00  0.00    +0.065 C 
ATOM      6  C   LIG    1       24.931 -31.028   6.321  0.00  0.00    +0.174 C 
ATOM      7  O   LIG    1       24.111 -29.968   5.838  0.00  0.00    -0.345 OA
ATOM      8  C   LIG    1       24.137 -28.719   6.524  0.00  0.00    +0.129 C 
ATOM      9  C   LIG    1       24.956 -27.625   5.778  0.00  0.00    +0.059 C 
ATOM     10  C   LIG    1       24.275 -26.291   5.962  0.00  0.00    -0.023 C 
ATOM     11  C   LIG    1       24.686 -25.112   6.478  0.00  0.00    -0.048 C 
ATOM     12  C   LIG    1       23.608 -24.078   6.667  0.00  0.00    +0.041 C 
ATOM     13  C   LIG    1       26.097 -24.738   6.932  0.00  0.00    +0.153 C 
ATOM     14  C   LIG    1       26.249 -24.374   8.447  0.00  0.00    +0.042 C 
ATOM     15  C   LIG    1       25.588 -23.099   8.975  0.00  0.00    +0.014 C 
ATOM     16  C   LIG    1       25.848 -25.535   9.298  0.00  0.00    -0.021 C 
ATOM     17  C   LIG    1       26.644 -25.975  10.275  0.00  0.00    -0.004 C 
ATOM     18  C   LIG    1       26.402 -27.254  10.845  0.00  0.00    +0.004 C 
ATOM     19  C   LIG    1       26.686 -27.625  12.092  0.00  0.00    -0.009 C 
ATOM     20  C   LIG    1       26.266 -28.908  12.738  0.00  0.00    +0.134 C 
ATOM     21  C   LIG    1       25.448 -28.144  13.807  0.00  0.00    +0.188 C 
ATOM     22  C   LIG    1       24.850 -29.063  14.848  0.00  0.00    +0.172 C 
ATOM     23  C   LIG    1       23.910 -29.991  14.115  0.00  0.00    -0.045 C 
ATOM     24  C   LIG    1       22.664 -30.361  14.858  0.00  0.00    +0.041 C 
ATOM     25  C   LIG    1       24.157 -30.397  12.847  0.00  0.00    -0.008 C 
ATOM     26  O   LIG    1       26.341 -27.149  14.355  0.00  0.00    -0.366 OA
ATOM     27  C   LIG    1       25.465 -30.103  12.116  0.00  0.00    +0.159 C 
ATOM     28  C   LIG    1       25.467 -30.199  10.569  0.00  0.00    +0.318 C 
ATOM     29  O   LIG    1       26.471 -30.264   9.910  0.00  0.00    -0.250 OA
ATOM     30  O   LIG    1       24.203 -30.192  10.030  0.00  0.00    -0.461 OA
ATOM     31  C   LIG    1       24.039 -30.145   8.579  0.00  0.00    +0.184 C 
ATOM     32  C   LIG    1       27.104 -26.698  13.206  0.00  0.00    +0.194 C 
ATOM     33  C   LIG    1       24.506 -28.823   7.998  0.00  0.00    +0.076 C 
ATOM     34  C   LIG    1       24.608 -31.342   7.807  0.00  0.00    +0.109 C 
ATOM     35  O   LIG    1       24.626 -32.234   5.596  0.00  0.00    -0.345 OA
ENDROOT
BRANCH   1  36
ATOM     36  C   LIG    1       24.858 -33.550   3.576  0.00  0.00    +0.015 C 
ATOM     37  C   LIG    1       23.945 -33.825   2.373  0.00  0.00    +0.010 C 
BRANCH  36  39
ATOM     38  C   LIG    1       26.549 -33.740   1.636  0.00  0.00    +0.004 C 
ATOM     39  C   LIG    1       26.320 -33.824   3.140  0.00  0.00    +0.002 C 
ENDBRANCH  36  39
ENDBRANCH   1  36
BRANCH  20  40
ATOM     40  O   LIG    1       27.475 -29.460  13.307  0.00  0.00    -0.380 OA
ATOM     41  H   LIG    1       27.278 -29.633  14.249  0.00  0.00    +0.211 HD
ENDBRANCH  20  40
BRANCH  22  42
ATOM     42  O   LIG    1       25.864 -29.822  15.500  0.00  0.00    -0.385 OA
ATOM     43  H   LIG    1       25.413 -30.234  16.264  0.00  0.00    +0.210 HD
ENDBRANCH  22  42
BRANCH  13  44
ATOM     44  O   LIG    1       26.602 -23.628   6.174  0.00  0.00    -0.343 OA
BRANCH  44  45
ATOM     45  C   LIG    1       26.924 -22.470   6.961  0.00  0.00    +0.254 C 
ATOM     46  O   LIG    1       25.917 -21.475   6.882  0.00  0.00    -0.346 OA
ATOM     47  C   LIG    1       26.250 -20.252   7.550  0.00  0.00    +0.150 C 
ATOM     48  C   LIG    1       26.317 -20.396   9.066  0.00  0.00    +0.040 C 
ATOM     49  C   LIG    1       27.456 -19.588   6.849  0.00  0.00    +0.179 C 
ATOM     50  C   LIG    1       28.676 -20.576   6.935  0.00  0.00    +0.154 C 
ATOM     51  C   LIG    1       28.284 -21.984   6.457  0.00  0.00    +0.095 C 
BRANCH  50  52
ATOM     52  O   LIG    1       29.160 -20.627   8.295  0.00  0.00    -0.377 OA
ATOM     53  C   LIG    1       30.565 -20.822   8.449  0.00  0.00    +0.194 C 
ENDBRANCH  50  52
BRANCH  49  54
ATOM     54  O   LIG    1       27.161 -19.272   5.449  0.00  0.00    -0.343 OA
BRANCH  54  55
ATOM     55  C   LIG    1       25.768 -19.414   5.049  0.00  0.00    +0.254 C 
ATOM     56  O   LIG    1       25.541 -20.706   4.490  0.00  0.00    -0.346 OA
ATOM     57  C   LIG    1       24.214 -21.021   4.071  0.00  0.00    +0.149 C 
ATOM     58  C   LIG    1       23.219 -21.121   5.224  0.00  0.00    +0.040 C 
ATOM     59  C   LIG    1       23.826 -20.061   2.948  0.00  0.00    +0.172 C 
ATOM     60  C   LIG    1       24.014 -18.596   3.387  0.00  0.00    +0.153 C 
ATOM     61  C   LIG    1       25.431 -18.380   3.963  0.00  0.00    +0.095 C 
BRANCH  59  62
ATOM     62  O   LIG    1       24.676 -20.317   1.816  0.00  0.00    -0.387 OA
ATOM     63  H   LIG    1       24.136 -20.156   1.016  0.00  0.00    +0.210 HD
ENDBRANCH  59  62
BRANCH  60  64
ATOM     64  O   LIG    1       23.063 -18.172   4.377  0.00  0.00    -0.377 OA
ATOM     65  C   LIG    1       21.724 -18.059   3.903  0.00  0.00    +0.194 C 
ENDBRANCH  60  64
ENDBRANCH  54  55
ENDBRANCH  49  54
ENDBRANCH  44  45
ENDBRANCH  13  44
TORSDOF 11
ENDMDL
MODEL 6
REMARK VINA RESULT:      14.8      1.658      2.810
REMARK  Name = *****
REMARK                            x       y       z     vdW  Elec       q    Type
REMARK                         _______ _______ _______ _____ _____    ______ ____
ROOT
ATOM      1  C   LIG    1       25.465 -31.402   5.558  0.00  0.00    +0.127 C 
ATOM      2  C   LIG    1       24.788 -31.704   6.919  0.00  0.00    +0.015 C 
ATOM      3  C   LIG    1       24.248 -33.124   7.081  0.00  0.00    +0.010 C 
ATOM      4  C   LIG    1       23.770 -30.636   7.322  0.00  0.00    +0.011 C 
ATOM      5  C   LIG    1       24.261 -29.200   7.074  0.00  0.00    +0.065 C 
ATOM      6  C   LIG    1       25.654 -29.135   6.421  0.00  0.00    +0.174 C 
ATOM      7  O   LIG    1       26.686 -29.594   7.289  0.00  0.00    -0.345 OA
ATOM      8  C   LIG    1       27.037 -28.794   8.414  0.00  0.00    +0.129 C 
ATOM      9  C   LIG    1       26.482 -29.347   9.760  0.00  0.00    +0.059 C 
ATOM     10  C   LIG    1       27.499 -29.106  10.847  0.00  0.00    -0.023 C 
ATOM     11  C   LIG    1       27.450 -28.442  12.023  0.00  0.00    -0.048 C 
ATOM     12  C   LIG    1       28.772 -28.265  12.722  0.00  0.00    +0.041 C 
ATOM     13  C   LIG    1       26.223 -27.815  12.684  0.00  0.00    +0.153 C 
ATOM     14  C   LIG    1       26.282 -26.265  12.895  0.00  0.00    +0.042 C 
ATOM     15  C   LIG    1       27.289 -25.688  13.890  0.00  0.00    +0.014 C 
ATOM     16  C   LIG    1       26.426 -25.572  11.579  0.00  0.00    -0.021 C 
ATOM     17  C   LIG    1       25.614 -24.567  11.242  0.00  0.00    -0.004 C 
ATOM     18  C   LIG    1       25.553 -24.148   9.885  0.00  0.00    +0.004 C 
ATOM     19  C   LIG    1       25.273 -22.920   9.454  0.00  0.00    -0.009 C 
ATOM     20  C   LIG    1       25.388 -22.444   8.039  0.00  0.00    +0.134 C 
ATOM     21  C   LIG    1       26.452 -21.395   8.441  0.00  0.00    +0.188 C 
ATOM     22  C   LIG    1       26.863 -20.511   7.285  0.00  0.00    +0.172 C 
ATOM     23  C   LIG    1       27.472 -21.419   6.243  0.00  0.00    -0.045 C 
ATOM     24  C   LIG    1       28.627 -20.843   5.485  0.00  0.00    +0.041 C 
ATOM     25  C   LIG    1       27.036 -22.689   6.064  0.00  0.00    -0.008 C 
ATOM     26  O   LIG    1       25.893 -20.668   9.558  0.00  0.00    -0.366 OA
ATOM     27  C   LIG    1       25.801 -23.254   6.763  0.00  0.00    +0.159 C 
ATOM     28  C   LIG    1       25.662 -24.795   6.854  0.00  0.00    +0.318 C 
ATOM     29  O   LIG    1       24.631 -25.353   7.122  0.00  0.00    -0.250 OA
ATOM     30  O   LIG    1       26.841 -25.455   6.604  0.00  0.00    -0.461 OA
ATOM     31  C   LIG    1       26.907 -26.904   6.778  0.00  0.00    +0.184 C 
ATOM     32  C   LIG    1       25.194 -21.686  10.319  0.00  0.00    +0.194 C 
ATOM     33  C   LIG    1       26.761 -27.307   8.234  0.00  0.00    +0.076 C 
ATOM     34  C   LIG    1       25.990 -27.725   5.864  0.00  0.00    +0.109 C 
ATOM     35  O   LIG    1       25.579 -29.998   5.272  0.00  0.00    -0.345 OA
ENDROOT
BRANCH   1  36
ATOM     36  C   LIG    1       24.865 -32.100   4.303  0.00  0.00    +0.015 C 
ATOM     37  C   LIG    1       25.621 -33.380   3.917  0.00  0.00    +0.010 C 
BRANCH  36  39
ATOM     38  C   LIG    1       22.984 -33.824   3.917  0.00  0.00    +0.004 C 
ATOM     39  C   LIG    1       23.368 -32.463   4.483  0.00  0.00    +0.002 C 
ENDBRANCH  36  39
ENDBRANCH   1  36
BRANCH  20  40
ATOM     40  O   LIG    1       24.121 -21.812   7.748  0.00  0.00    -0.380 OA
ATOM     41  H   LIG    1       23.608 -22.460   7.224  0.00  0.00    +0.211 HD
ENDBRANCH  20  40
BRANCH  22  42
ATOM     42  O   LIG    1       25.735 -19.836   6.736  0.00  0.00    -0.385 OA
ATOM     43  H   LIG    1       26.111 -19.224   6.071  0.00  0.00    +0.210 HD
ENDBRANCH  22  42
BRANCH  13  44
ATOM     44  O   LIG    1       25.973 -28.410  13.967  0.00  0.00    -0.343 OA
BRANCH  44  45
ATOM     45  C   LIG    1       25.668 -29.813  13.922  0.00  0.00    +0.254 C 
ATOM     46  O   LIG    1       25.110 -30.198  12.677  0.00  0.00    -0.346 OA
ATOM     47  C   LIG    1       24.676 -31.563  12.628  0.00  0.00    +0.150 C 
ATOM     48  C   LIG    1       25.827 -32.561  12.686  0.00  0.00    +0.040 C 
ATOM     49  C   LIG    1       23.507 -31.772  13.616  0.00  0.00    +0.179 C 
ATOM     50  C   LIG    1       24.026 -31.444  15.063  0.00  0.00    +0.154 C 
ATOM     51  C   LIG    1       24.732 -30.078  15.103  0.00  0.00    +0.095 C 
BRANCH  50  52
ATOM     52  O   LIG    1       24.927 -32.485  15.499  0.00  0.00    -0.377 OA
ATOM     53  C   LIG    1       24.533 -33.821  15.186  0.00  0.00    +0.194 C 
ENDBRANCH  50  52
BRANCH  49  54
ATOM     54  O   LIG    1       22.360 -30.921  13.286  0.00  0.00    -0.343 OA
BRANCH  54  55
ATOM     55  C   LIG    1       21.262 -31.582  12.596  0.00  0.00    +0.254 C 
ATOM     56  O   LIG    1       21.453 -32.995  12.596  0.00  0.00    -0.346 OA
ATOM     57  C   LIG    1       20.447 -33.798  11.982  0.00  0.00    +0.149 C 
ATOM     58  C   LIG    1       19.112 -33.774  12.721  0.00  0.00    +0.040 C 
ATOM     59  C   LIG    1       20.385 -33.436  10.498  0.00  0.00    +0.172 C 
ATOM     60  C   LIG    1       20.179 -31.921  10.310  0.00  0.00    +0.153 C 
ATOM     61  C   LIG    1       21.222 -31.127  11.128  0.00  0.00    +0.095 C 
BRANCH  59  62
ATOM     62  O   LIG    1       21.630 -33.814   9.885  0.00  0.00    -0.387 OA
ATOM     63  H   LIG    1       21.555 -34.762   9.655  0.00  0.00    +0.210 HD
ENDBRANCH  59  62
BRANCH  60  64
ATOM     64  O   LIG    1       18.872 -31.471  10.701  0.00  0.00    -0.377 OA
ATOM     65  C   LIG    1       18.470 -30.236  10.115  0.00  0.00    +0.194 C 
ENDBRANCH  60  64
ENDBRANCH  54  55
ENDBRANCH  49  54
ENDBRANCH  44  45
ENDBRANCH  13  44
TORSDOF 11
ENDMDL
