MODEL 1
REMARK VINA RESULT:       2.4      0.000      0.000
REMARK  Name = *****
REMARK                            x       y       z     vdW  Elec       q    Type
REMARK                         _______ _______ _______ _____ _____    ______ ____
ROOT
ATOM      1  C   LIG    1       20.012 -20.004   4.251  0.00  0.00    +0.132 C 
ATOM      2  N   LIG    1       21.323 -19.481   3.909  0.00  0.00    -0.294 N 
ATOM      3  C   LIG    1       21.518 -18.105   4.006  0.00  0.00    +0.237 C 
ATOM      4  O   LIG    1       20.591 -17.329   4.242  0.00  0.00    -0.274 OA
ATOM      5  C   LIG    1       22.892 -17.616   3.497  0.00  0.00    +0.167 C 
ATOM      6  C   LIG    1       23.089 -16.174   4.023  0.00  0.00    +0.069 C 
ATOM      7  C   LIG    1       24.449 -15.690   3.688  0.00  0.00    -0.015 C 
ATOM      8  C   LIG    1       25.467 -16.574   3.413  0.00  0.00    +0.046 C 
ATOM      9  C   LIG    1       25.398 -18.074   3.391  0.00  0.00    +0.154 C 
ATOM     10  N   LIG    1       26.600 -15.843   3.166  0.00  0.00    -0.356 NA
ATOM     11  H   LIG    1       27.514 -16.226   2.965  0.00  0.00    +0.166 HD
ATOM     12  C   LIG    1       26.329 -14.498   3.291  0.00  0.00    +0.047 C 
ATOM     13  C   LIG    1       27.176 -13.392   3.152  0.00  0.00    +0.026 C 
ATOM     14  C   LIG    1       26.621 -12.123   3.343  0.00  0.00    +0.002 C 
ATOM     15  C   LIG    1       25.273 -11.969   3.659  0.00  0.00    +0.001 C 
ATOM     16  C   LIG    1       24.439 -13.085   3.797  0.00  0.00    +0.010 C 
ATOM     17  C   LIG    1       24.974 -14.374   3.612  0.00  0.00    +0.003 C 
ATOM     18  N   LIG    1       24.039 -18.521   3.786  0.00  0.00    -0.276 N 
ATOM     19  C   LIG    1       23.788 -19.889   3.599  0.00  0.00    +0.234 C 
ATOM     20  O   LIG    1       24.633 -20.700   3.225  0.00  0.00    -0.274 OA
ATOM     21  C   LIG    1       22.453 -20.354   4.176  0.00  0.00    +0.203 C 
ENDROOT
BRANCH   9  22
ATOM     22  C   LIG    1       26.491 -18.658   4.283  0.00  0.00    -0.018 C 
ATOM     23  C   LIG    1       26.232 -19.830   5.020  0.00  0.00    +0.055 C 
ATOM     24  C   LIG    1       27.256 -20.371   5.766  0.00  0.00    +0.167 C 
ATOM     25  O   LIG    1       27.176 -21.505   6.514  0.00  0.00    -0.453 OA
ATOM     26  C   LIG    1       28.516 -21.572   7.045  0.00  0.00    +0.466 C 
ATOM     27  O   LIG    1       29.366 -20.495   6.599  0.00  0.00    -0.453 OA
ATOM     28  C   LIG    1       28.503 -19.797   5.811  0.00  0.00    +0.166 C 
ATOM     29  C   LIG    1       28.799 -18.649   5.110  0.00  0.00    +0.050 C 
ATOM     30  C   LIG    1       27.783 -18.079   4.337  0.00  0.00    +0.010 C 
ENDBRANCH   9  22
TORSDOF 1
ENDMDL
MODEL 2
REMARK VINA RESULT:       3.3      0.929      1.449
REMARK  Name = *****
REMARK                            x       y       z     vdW  Elec       q    Type
REMARK                         _______ _______ _______ _____ _____    ______ ____
ROOT
ATOM      1  C   LIG    1       19.380 -20.060   3.649  0.00  0.00    +0.132 C 
ATOM      2  N   LIG    1       20.774 -19.699   3.466  0.00  0.00    -0.294 N 
ATOM      3  C   LIG    1       21.132 -18.369   3.676  0.00  0.00    +0.237 C 
ATOM      4  O   LIG    1       20.293 -17.490   3.878  0.00  0.00    -0.274 OA
ATOM      5  C   LIG    1       22.602 -18.040   3.331  0.00  0.00    +0.167 C 
ATOM      6  C   LIG    1       22.928 -16.670   3.971  0.00  0.00    +0.069 C 
ATOM      7  C   LIG    1       24.365 -16.354   3.796  0.00  0.00    -0.015 C 
ATOM      8  C   LIG    1       25.284 -17.350   3.556  0.00  0.00    +0.046 C 
ATOM      9  C   LIG    1       25.027 -18.823   3.425  0.00  0.00    +0.154 C 
ATOM     10  N   LIG    1       26.520 -16.764   3.466  0.00  0.00    -0.356 NA
ATOM     11  H   LIG    1       27.394 -17.254   3.324  0.00  0.00    +0.166 HD
ATOM     12  C   LIG    1       26.412 -15.403   3.658  0.00  0.00    +0.047 C 
ATOM     13  C   LIG    1       27.403 -14.415   3.674  0.00  0.00    +0.026 C 
ATOM     14  C   LIG    1       26.999 -13.096   3.900  0.00  0.00    +0.002 C 
ATOM     15  C   LIG    1       25.657 -12.781   4.100  0.00  0.00    +0.001 C 
ATOM     16  C   LIG    1       24.677 -13.781   4.084  0.00  0.00    +0.010 C 
ATOM     17  C   LIG    1       25.059 -15.118   3.861  0.00  0.00    +0.003 C 
ATOM     18  N   LIG    1       23.589 -19.106   3.660  0.00  0.00    -0.276 N 
ATOM     19  C   LIG    1       23.186 -20.415   3.358  0.00  0.00    +0.234 C 
ATOM     20  O   LIG    1       23.953 -21.309   3.008  0.00  0.00    -0.274 OA
ATOM     21  C   LIG    1       21.751 -20.728   3.775  0.00  0.00    +0.203 C 
ENDROOT
BRANCH   9  22
ATOM     22  C   LIG    1       25.941 -19.597   4.371  0.00  0.00    -0.018 C 
ATOM     23  C   LIG    1       27.175 -19.038   4.755  0.00  0.00    +0.055 C 
ATOM     24  C   LIG    1       27.951 -19.729   5.660  0.00  0.00    +0.167 C 
ATOM     25  O   LIG    1       29.153 -19.318   6.147  0.00  0.00    -0.453 OA
ATOM     26  C   LIG    1       29.475 -20.415   7.028  0.00  0.00    +0.466 C 
ATOM     27  O   LIG    1       28.463 -21.442   7.062  0.00  0.00    -0.453 OA
ATOM     28  C   LIG    1       27.555 -20.936   6.183  0.00  0.00    +0.166 C 
ATOM     29  C   LIG    1       26.359 -21.522   5.832  0.00  0.00    +0.050 C 
ATOM     30  C   LIG    1       25.544 -20.842   4.920  0.00  0.00    +0.010 C 
ENDBRANCH   9  22
TORSDOF 1
ENDMDL
