MODEL 1
REMARK VINA RESULT:     -10.5      0.000      0.000
REMARK  Name = *****
REMARK                            x       y       z     vdW  Elec       q    Type
REMARK                         _______ _______ _______ _____ _____    ______ ____
ROOT
ATOM      1  C   LIG    1       24.570 -21.891   5.633  0.00  0.00    +0.075 A 
ATOM      2  N   LIG    1       25.374 -20.746   5.747  0.00  0.00    -0.232 N 
ATOM      3  N   LIG    1       24.754 -19.645   5.235  0.00  0.00    -0.162 NA
ATOM      4  C   LIG    1       23.493 -20.026   4.975  0.00  0.00    +0.166 A 
ATOM      5  C   LIG    1       23.344 -21.413   5.192  0.00  0.00    +0.062 A 
ENDROOT
BRANCH   1  10
ATOM      6  C   LIG    1       26.027 -27.473   6.435  0.00  0.00    +0.044 C 
ATOM      7  C   LIG    1       25.640 -26.040   6.221  0.00  0.00    -0.050 A 
ATOM      8  C   LIG    1       25.753 -25.125   7.268  0.00  0.00    +0.004 A 
ATOM      9  C   LIG    1       25.456 -23.774   7.066  0.00  0.00    +0.010 A 
ATOM     10  C   LIG    1       24.946 -23.309   5.847  0.00  0.00    +0.001 A 
ATOM     11  C   LIG    1       24.856 -24.236   4.795  0.00  0.00    +0.010 A 
ATOM     12  C   LIG    1       25.220 -25.579   4.972  0.00  0.00    +0.004 A 
ENDBRANCH   1  10
BRANCH   2  13
ATOM     13  C   LIG    1       26.665 -20.565   6.341  0.00  0.00    +0.066 A 
ATOM     14  C   LIG    1       26.870 -20.805   7.705  0.00  0.00    +0.029 A 
ATOM     15  C   LIG    1       28.144 -20.680   8.263  0.00  0.00    +0.030 A 
ATOM     16  C   LIG    1       29.210 -20.259   7.467  0.00  0.00    +0.105 A 
ATOM     17  C   LIG    1       29.017 -19.975   6.113  0.00  0.00    +0.030 A 
ATOM     18  C   LIG    1       27.743 -20.121   5.551  0.00  0.00    +0.029 A 
BRANCH  16  19
ATOM     19  S   LIG    1       30.823 -20.122   8.195  0.00  0.00    +0.056 S 
ATOM     20  O   LIG    1       30.683 -19.552   9.516  0.00  0.00    -0.153 OA
ATOM     21  O   LIG    1       31.723 -19.580   7.207  0.00  0.00    -0.153 OA
BRANCH  19  22
ATOM     22  N   LIG    1       31.252 -21.738   8.372  0.00  0.00    -0.203 NA
ATOM     23  H   LIG    1       31.856 -21.919   9.169  0.00  0.00    +0.144 HD
ATOM     24  H   LIG    1       30.398 -22.306   8.397  0.00  0.00    +0.144 HD
ENDBRANCH  19  22
ENDBRANCH  16  19
ENDBRANCH   2  13
BRANCH   4  25
ATOM     25  C   LIG    1       22.431 -19.076   4.486  0.00  0.00    +0.436 C 
ATOM     26  F   LIG    1       22.234 -18.027   5.328  0.00  0.00    -0.164 F 
ATOM     27  F   LIG    1       21.227 -19.687   4.320  0.00  0.00    -0.164 F 
ATOM     28  F   LIG    1       22.753 -18.540   3.275  0.00  0.00    -0.164 F 
ENDBRANCH   4  25
TORSDOF 5
ENDMDL
MODEL 2
REMARK VINA RESULT:     -10.4      3.269      5.197
REMARK  Name = *****
REMARK                            x       y       z     vdW  Elec       q    Type
REMARK                         _______ _______ _______ _____ _____    ______ ____
ROOT
ATOM      1  C   LIG    1       24.989 -22.642   5.883  0.00  0.00    +0.075 A 
ATOM      2  N   LIG    1       26.119 -22.762   6.709  0.00  0.00    -0.232 N 
ATOM      3  N   LIG    1       26.312 -24.052   7.107  0.00  0.00    -0.162 NA
ATOM      4  C   LIG    1       25.445 -24.787   6.395  0.00  0.00    +0.166 A 
ATOM      5  C   LIG    1       24.597 -23.951   5.638  0.00  0.00    +0.062 A 
ENDROOT
BRANCH   1  10
ATOM      6  C   LIG    1       22.254 -17.805   4.138  0.00  0.00    +0.044 C 
ATOM      7  C   LIG    1       22.945 -19.057   4.590  0.00  0.00    -0.050 A 
ATOM      8  C   LIG    1       24.053 -19.531   3.889  0.00  0.00    +0.004 A 
ATOM      9  C   LIG    1       24.747 -20.661   4.335  0.00  0.00    +0.010 A 
ATOM     10  C   LIG    1       24.302 -21.409   5.432  0.00  0.00    +0.001 A 
ATOM     11  C   LIG    1       23.196 -20.909   6.142  0.00  0.00    +0.010 A 
ATOM     12  C   LIG    1       22.540 -19.737   5.741  0.00  0.00    +0.004 A 
ENDBRANCH   1  10
BRANCH   2  13
ATOM     13  C   LIG    1       27.077 -21.786   7.129  0.00  0.00    +0.066 A 
ATOM     14  C   LIG    1       26.756 -20.835   8.107  0.00  0.00    +0.029 A 
ATOM     15  C   LIG    1       27.715 -19.923   8.550  0.00  0.00    +0.030 A 
ATOM     16  C   LIG    1       28.987 -19.920   7.975  0.00  0.00    +0.105 A 
ATOM     17  C   LIG    1       29.314 -20.833   6.970  0.00  0.00    +0.030 A 
ATOM     18  C   LIG    1       28.357 -21.761   6.541  0.00  0.00    +0.029 A 
BRANCH  16  19
ATOM     19  S   LIG    1       30.194 -18.760   8.565  0.00  0.00    +0.056 S 
ATOM     20  O   LIG    1       29.676 -18.127   9.757  0.00  0.00    -0.153 OA
ATOM     21  O   LIG    1       30.690 -18.009   7.439  0.00  0.00    -0.153 OA
BRANCH  19  22
ATOM     22  N   LIG    1       31.447 -19.783   9.025  0.00  0.00    -0.203 NA
ATOM     23  H   LIG    1       32.010 -20.119   8.249  0.00  0.00    +0.144 HD
ATOM     24  H   LIG    1       32.014 -19.311   9.738  0.00  0.00    +0.144 HD
ENDBRANCH  19  22
ENDBRANCH  16  19
ENDBRANCH   2  13
BRANCH   4  25
ATOM     25  C   LIG    1       25.398 -26.292   6.456  0.00  0.00    +0.436 C 
ATOM     26  F   LIG    1       24.129 -26.780   6.443  0.00  0.00    -0.164 F 
ATOM     27  F   LIG    1       26.005 -26.784   7.569  0.00  0.00    -0.164 F 
ATOM     28  F   LIG    1       26.037 -26.860   5.394  0.00  0.00    -0.164 F 
ENDBRANCH   4  25
TORSDOF 5
ENDMDL
MODEL 3
REMARK VINA RESULT:      -9.0      3.904      5.690
REMARK  Name = *****
REMARK                            x       y       z     vdW  Elec       q    Type
REMARK                         _______ _______ _______ _____ _____    ______ ____
ROOT
ATOM      1  C   LIG    1       25.587 -20.740   5.834  0.00  0.00    +0.075 A 
ATOM      2  N   LIG    1       24.711 -21.827   5.679  0.00  0.00    -0.232 N 
ATOM      3  N   LIG    1       23.466 -21.417   5.304  0.00  0.00    -0.162 NA
ATOM      4  C   LIG    1       23.582 -20.109   5.026  0.00  0.00    +0.166 A 
ATOM      5  C   LIG    1       24.875 -19.649   5.358  0.00  0.00    +0.062 A 
ENDROOT
BRANCH   1  10
ATOM      6  C   LIG    1       30.912 -20.656   8.193  0.00  0.00    +0.044 C 
ATOM      7  C   LIG    1       29.547 -20.680   7.572  0.00  0.00    -0.050 A 
ATOM      8  C   LIG    1       28.502 -21.345   8.215  0.00  0.00    +0.004 A 
ATOM      9  C   LIG    1       27.210 -21.322   7.681  0.00  0.00    +0.010 A 
ATOM     10  C   LIG    1       26.937 -20.723   6.444  0.00  0.00    +0.001 A 
ATOM     11  C   LIG    1       27.993 -20.039   5.818  0.00  0.00    +0.010 A 
ATOM     12  C   LIG    1       29.276 -19.998   6.385  0.00  0.00    +0.004 A 
ENDBRANCH   1  10
BRANCH   2  13
ATOM     13  C   LIG    1       24.938 -23.235   5.801  0.00  0.00    +0.066 A 
ATOM     14  C   LIG    1       25.328 -23.799   7.023  0.00  0.00    +0.029 A 
ATOM     15  C   LIG    1       25.493 -25.180   7.146  0.00  0.00    +0.030 A 
ATOM     16  C   LIG    1       25.323 -26.000   6.029  0.00  0.00    +0.105 A 
ATOM     17  C   LIG    1       24.975 -25.452   4.792  0.00  0.00    +0.030 A 
ATOM     18  C   LIG    1       24.790 -24.069   4.676  0.00  0.00    +0.029 A 
BRANCH  16  19
ATOM     19  S   LIG    1       25.524 -27.753   6.213  0.00  0.00    +0.056 S 
ATOM     20  O   LIG    1       26.381 -28.231   5.151  0.00  0.00    -0.153 OA
ATOM     21  O   LIG    1       24.232 -28.332   6.488  0.00  0.00    -0.153 OA
BRANCH  19  22
ATOM     22  N   LIG    1       26.386 -27.845   7.654  0.00  0.00    -0.203 NA
ATOM     23  H   LIG    1       25.865 -27.527   8.466  0.00  0.00    +0.144 HD
ATOM     24  H   LIG    1       26.737 -28.802   7.768  0.00  0.00    +0.144 HD
ENDBRANCH  19  22
ENDBRANCH  16  19
ENDBRANCH   2  13
BRANCH   4  25
ATOM     25  C   LIG    1       22.451 -19.281   4.474  0.00  0.00    +0.436 C 
ATOM     26  F   LIG    1       22.694 -18.832   3.214  0.00  0.00    -0.164 F 
ATOM     27  F   LIG    1       22.183 -18.192   5.243  0.00  0.00    -0.164 F 
ATOM     28  F   LIG    1       21.290 -19.993   4.409  0.00  0.00    -0.164 F 
ENDBRANCH   4  25
TORSDOF 5
ENDMDL
MODEL 4
REMARK VINA RESULT:      -8.4      0.843      1.367
REMARK  Name = *****
REMARK                            x       y       z     vdW  Elec       q    Type
REMARK                         _______ _______ _______ _____ _____    ______ ____
ROOT
ATOM      1  C   LIG    1       25.240 -21.823   5.440  0.00  0.00    +0.075 A 
ATOM      2  N   LIG    1       26.100 -20.717   5.527  0.00  0.00    -0.232 N 
ATOM      3  N   LIG    1       25.644 -19.669   4.783  0.00  0.00    -0.162 NA
ATOM      4  C   LIG    1       24.412 -20.016   4.382  0.00  0.00    +0.166 A 
ATOM      5  C   LIG    1       24.131 -21.349   4.753  0.00  0.00    +0.062 A 
ENDROOT
BRANCH   1  10
ATOM      6  C   LIG    1       26.193 -27.273   7.260  0.00  0.00    +0.044 C 
ATOM      7  C   LIG    1       25.961 -25.866   6.797  0.00  0.00    -0.050 A 
ATOM      8  C   LIG    1       25.364 -25.631   5.558  0.00  0.00    +0.004 A 
ATOM      9  C   LIG    1       25.084 -24.326   5.140  0.00  0.00    +0.010 A 
ATOM     10  C   LIG    1       25.476 -23.214   5.895  0.00  0.00    +0.001 A 
ATOM     11  C   LIG    1       26.057 -23.464   7.150  0.00  0.00    +0.010 A 
ATOM     12  C   LIG    1       26.276 -24.773   7.605  0.00  0.00    +0.004 A 
ENDBRANCH   1  10
BRANCH   2  13
ATOM     13  C   LIG    1       27.299 -20.522   6.286  0.00  0.00    +0.066 A 
ATOM     14  C   LIG    1       27.375 -20.921   7.626  0.00  0.00    +0.029 A 
ATOM     15  C   LIG    1       28.565 -20.777   8.342  0.00  0.00    +0.030 A 
ATOM     16  C   LIG    1       29.671 -20.180   7.734  0.00  0.00    +0.105 A 
ATOM     17  C   LIG    1       29.602 -19.738   6.411  0.00  0.00    +0.030 A 
ATOM     18  C   LIG    1       28.413 -19.902   5.689  0.00  0.00    +0.029 A 
BRANCH  16  19
ATOM     19  S   LIG    1       31.178 -20.022   8.659  0.00  0.00    +0.056 S 
ATOM     20  O   LIG    1       30.843 -19.722  10.033  0.00  0.00    -0.153 OA
ATOM     21  O   LIG    1       32.100 -19.223   7.891  0.00  0.00    -0.153 OA
BRANCH  19  22
ATOM     22  N   LIG    1       31.774 -21.594   8.603  0.00  0.00    -0.203 NA
ATOM     23  H   LIG    1       32.256 -21.882   9.451  0.00  0.00    +0.144 HD
ATOM     24  H   LIG    1       31.007 -22.230   8.359  0.00  0.00    +0.144 HD
ENDBRANCH  19  22
ENDBRANCH  16  19
ENDBRANCH   2  13
BRANCH   4  25
ATOM     25  C   LIG    1       23.506 -19.091   3.612  0.00  0.00    +0.436 C 
ATOM     26  F   LIG    1       22.248 -19.039   4.124  0.00  0.00    -0.164 F 
ATOM     27  F   LIG    1       23.392 -19.448   2.305  0.00  0.00    -0.164 F 
ATOM     28  F   LIG    1       23.973 -17.810   3.615  0.00  0.00    -0.164 F 
ENDBRANCH   4  25
TORSDOF 5
ENDMDL
MODEL 5
REMARK VINA RESULT:      -8.0      6.763      9.181
REMARK  Name = *****
REMARK                            x       y       z     vdW  Elec       q    Type
REMARK                         _______ _______ _______ _____ _____    ______ ____
ROOT
ATOM      1  C   LIG    1       24.975 -30.250   7.492  0.00  0.00    +0.075 A 
ATOM      2  N   LIG    1       25.267 -29.352   6.453  0.00  0.00    -0.232 N 
ATOM      3  N   LIG    1       25.680 -30.004   5.328  0.00  0.00    -0.162 NA
ATOM      4  C   LIG    1       25.468 -31.308   5.566  0.00  0.00    +0.166 A 
ATOM      5  C   LIG    1       25.049 -31.503   6.900  0.00  0.00    +0.062 A 
ENDROOT
BRANCH   1  10
ATOM      6  C   LIG    1       23.950 -29.101  13.109  0.00  0.00    +0.044 C 
ATOM      7  C   LIG    1       24.200 -29.391  11.659  0.00  0.00    -0.050 A 
ATOM      8  C   LIG    1       25.460 -29.151  11.110  0.00  0.00    +0.004 A 
ATOM      9  C   LIG    1       25.727 -29.476   9.776  0.00  0.00    +0.010 A 
ATOM     10  C   LIG    1       24.725 -29.956   8.923  0.00  0.00    +0.001 A 
ATOM     11  C   LIG    1       23.467 -30.212   9.494  0.00  0.00    +0.010 A 
ATOM     12  C   LIG    1       23.213 -29.955  10.849  0.00  0.00    +0.004 A 
ENDBRANCH   1  10
BRANCH   2  13
ATOM     13  C   LIG    1       25.152 -27.926   6.389  0.00  0.00    +0.066 A 
ATOM     14  C   LIG    1       24.162 -27.318   5.607  0.00  0.00    +0.029 A 
ATOM     15  C   LIG    1       24.022 -25.929   5.595  0.00  0.00    +0.030 A 
ATOM     16  C   LIG    1       24.911 -25.137   6.324  0.00  0.00    +0.105 A 
ATOM     17  C   LIG    1       25.930 -25.723   7.078  0.00  0.00    +0.030 A 
ATOM     18  C   LIG    1       26.056 -27.117   7.105  0.00  0.00    +0.029 A 
BRANCH  16  19
ATOM     19  S   LIG    1       24.704 -23.374   6.306  0.00  0.00    +0.056 S 
ATOM     20  O   LIG    1       25.888 -22.768   6.872  0.00  0.00    -0.153 OA
ATOM     21  O   LIG    1       23.375 -23.068   6.774  0.00  0.00    -0.153 OA
BRANCH  19  22
ATOM     22  N   LIG    1       24.696 -23.052   4.655  0.00  0.00    -0.203 NA
ATOM     23  H   LIG    1       23.997 -22.372   4.372  0.00  0.00    +0.144 HD
ATOM     24  H   LIG    1       25.642 -22.779   4.368  0.00  0.00    +0.144 HD
ENDBRANCH  19  22
ENDBRANCH  16  19
ENDBRANCH   2  13
BRANCH   4  25
ATOM     25  C   LIG    1       25.696 -32.380   4.533  0.00  0.00    +0.436 C 
ATOM     26  F   LIG    1       25.569 -31.921   3.260  0.00  0.00    -0.164 F 
ATOM     27  F   LIG    1       24.834 -33.423   4.670  0.00  0.00    -0.164 F 
ATOM     28  F   LIG    1       26.948 -32.911   4.625  0.00  0.00    -0.164 F 
ENDBRANCH   4  25
TORSDOF 5
ENDMDL
MODEL 6
REMARK VINA RESULT:      -7.6      7.221      9.562
REMARK  Name = *****
REMARK                            x       y       z     vdW  Elec       q    Type
REMARK                         _______ _______ _______ _____ _____    ______ ____
ROOT
ATOM      1  C   LIG    1       25.312 -28.786   6.390  0.00  0.00    +0.075 A 
ATOM      2  N   LIG    1       25.336 -29.634   7.509  0.00  0.00    -0.232 N 
ATOM      3  N   LIG    1       25.190 -30.942   7.150  0.00  0.00    -0.162 NA
ATOM      4  C   LIG    1       25.270 -30.962   5.811  0.00  0.00    +0.166 A 
ATOM      5  C   LIG    1       25.328 -29.647   5.302  0.00  0.00    +0.062 A 
ENDROOT
BRANCH   1  10
ATOM      6  C   LIG    1       24.937 -22.975   6.262  0.00  0.00    +0.044 C 
ATOM      7  C   LIG    1       25.043 -24.471   6.307  0.00  0.00    -0.050 A 
ATOM      8  C   LIG    1       23.901 -25.254   6.138  0.00  0.00    +0.004 A 
ATOM      9  C   LIG    1       23.993 -26.649   6.114  0.00  0.00    +0.010 A 
ATOM     10  C   LIG    1       25.206 -27.309   6.353  0.00  0.00    +0.001 A 
ATOM     11  C   LIG    1       26.352 -26.508   6.501  0.00  0.00    +0.010 A 
ATOM     12  C   LIG    1       26.276 -25.108   6.456  0.00  0.00    +0.004 A 
ENDBRANCH   1  10
BRANCH   2  13
ATOM     13  C   LIG    1       25.534 -29.344   8.897  0.00  0.00    +0.066 A 
ATOM     14  C   LIG    1       26.619 -28.567   9.323  0.00  0.00    +0.029 A 
ATOM     15  C   LIG    1       26.772 -28.243  10.673  0.00  0.00    +0.030 A 
ATOM     16  C   LIG    1       25.870 -28.745  11.612  0.00  0.00    +0.105 A 
ATOM     17  C   LIG    1       24.805 -29.556  11.212  0.00  0.00    +0.030 A 
ATOM     18  C   LIG    1       24.642 -29.862   9.855  0.00  0.00    +0.029 A 
BRANCH  16  19
ATOM     19  S   LIG    1       26.077 -28.307  13.320  0.00  0.00    +0.056 S 
ATOM     20  O   LIG    1       26.006 -29.514  14.113  0.00  0.00    -0.153 OA
ATOM     21  O   LIG    1       25.264 -27.149  13.594  0.00  0.00    -0.153 OA
BRANCH  19  22
ATOM     22  N   LIG    1       27.670 -27.768  13.339  0.00  0.00    -0.203 NA
ATOM     23  H   LIG    1       28.180 -28.023  14.180  0.00  0.00    +0.144 HD
ATOM     24  H   LIG    1       28.140 -28.094  12.488  0.00  0.00    +0.144 HD
ENDBRANCH  19  22
ENDBRANCH  16  19
ENDBRANCH   2  13
BRANCH   4  25
ATOM     25  C   LIG    1       25.258 -32.236   5.005  0.00  0.00    +0.436 C 
ATOM     26  F   LIG    1       26.098 -33.181   5.502  0.00  0.00    -0.164 F 
ATOM     27  F   LIG    1       25.610 -32.030   3.708  0.00  0.00    -0.164 F 
ATOM     28  F   LIG    1       24.018 -32.801   4.976  0.00  0.00    -0.164 F 
ENDBRANCH   4  25
TORSDOF 5
ENDMDL
