MODEL 1
REMARK VINA RESULT:       9.7      0.000      0.000
REMARK  Name = *****
REMARK                            x       y       z     vdW  Elec       q    Type
REMARK                         _______ _______ _______ _____ _____    ______ ____
ROOT
ATOM      1  C   LIG    1       28.629 -17.619   5.021  0.00  0.00    +0.067 C 
ATOM      2  C   LIG    1       27.406 -18.064   5.824  0.00  0.00    +0.044 C 
ATOM      3  C   LIG    1       27.584 -19.552   6.095  0.00  0.00    +0.142 C 
ATOM      4  N   LIG    1       28.514 -20.004   5.035  0.00  0.00    -0.305 NA
ATOM      5  H   LIG    1       28.993 -20.853   5.343  0.00  0.00    +0.123 HD
ATOM      6  C   LIG    1       29.475 -18.896   4.918  0.00  0.00    +0.096 C 
ENDROOT
BRANCH   3   7
ATOM      7  C   LIG    1       26.234 -20.280   6.001  0.00  0.00    +0.234 C 
ATOM      8  N   LIG    1       25.280 -19.569   5.290  0.00  0.00    -0.284 N 
ATOM      9  H   LIG    1       25.663 -18.784   4.765  0.00  0.00    +0.155 HD
ATOM     10  O   LIG    1       26.068 -21.353   6.575  0.00  0.00    -0.274 OA
BRANCH   8  11
ATOM     11  C   LIG    1       23.938 -19.941   5.076  0.00  0.00    +0.034 A 
ATOM     12  C   LIG    1       23.056 -18.981   4.567  0.00  0.00    +0.038 A 
ATOM     13  C   LIG    1       21.723 -19.323   4.283  0.00  0.00    +0.061 A 
ATOM     14  C   LIG    1       21.267 -20.626   4.517  0.00  0.00    +0.015 A 
ATOM     15  C   LIG    1       22.132 -21.567   5.070  0.00  0.00    +0.003 A 
ATOM     16  C   LIG    1       23.457 -21.225   5.347  0.00  0.00    +0.023 A 
BRANCH  13  17
ATOM     17  C   LIG    1       20.846 -18.292   3.669  0.00  0.00    +0.337 C 
ATOM     18  O   LIG    1       19.982 -18.559   2.853  0.00  0.00    -0.245 OA
BRANCH  17  19
ATOM     19  O   LIG    1       21.117 -17.031   4.069  0.00  0.00    -0.477 OA
ATOM     20  H   LIG    1       21.971 -16.671   3.770  0.00  0.00    +0.295 HD
ENDBRANCH  17  19
ENDBRANCH  13  17
ENDBRANCH   8  11
ENDBRANCH   3   7
BRANCH   1  21
ATOM     21  S   LIG    1       28.138 -16.949   3.380  0.00  0.00    -0.122 S 
BRANCH  21  26
ATOM     22  C   LIG    1       24.395 -13.538   3.484  0.00  0.00    +0.125 C 
ATOM     23  C   LIG    1       25.185 -14.416   4.506  0.00  0.00    +0.104 C 
ATOM     24  N   LIG    1       26.356 -13.530   4.252  0.00  0.00    -0.260 N 
ATOM     25  C   LIG    1       27.435 -14.309   3.852  0.00  0.00    +0.131 C 
ATOM     26  C   LIG    1       27.128 -15.620   3.837  0.00  0.00    +0.019 C 
ATOM     27  C   LIG    1       25.688 -15.841   4.259  0.00  0.00    +0.046 C 
ATOM     28  C   LIG    1       24.779 -16.594   3.299  0.00  0.00    +0.015 C 
ATOM     29  C   LIG    1       25.699 -12.755   3.348  0.00  0.00    +0.228 C 
ATOM     30  O   LIG    1       26.149 -11.879   2.631  0.00  0.00    -0.275 OA
BRANCH  22  32
ATOM     31  C   LIG    1       23.257 -12.763   5.582  0.00  0.00    +0.038 C 
ATOM     32  C   LIG    1       23.216 -12.780   4.062  0.00  0.00    +0.125 C 
BRANCH  32  33
ATOM     33  O   LIG    1       23.261 -11.447   3.555  0.00  0.00    -0.391 OA
ATOM     34  H   LIG    1       22.497 -11.311   2.965  0.00  0.00    +0.210 HD
ENDBRANCH  32  33
ENDBRANCH  22  32
BRANCH  25  35
ATOM     35  C   LIG    1       28.750 -13.673   3.521  0.00  0.00    +0.352 C 
ATOM     36  O   LIG    1       29.273 -12.793   4.189  0.00  0.00    -0.244 OA
BRANCH  35  37
ATOM     37  O   LIG    1       29.297 -14.090   2.356  0.00  0.00    -0.476 OA
ATOM     38  H   LIG    1       29.042 -14.995   2.068  0.00  0.00    +0.295 HD
ENDBRANCH  35  37
ENDBRANCH  25  35
ENDBRANCH  21  26
ENDBRANCH   1  21
TORSDOF 10
ENDMDL
MODEL 2
REMARK VINA RESULT:      10.0      2.212      4.937
REMARK  Name = *****
REMARK                            x       y       z     vdW  Elec       q    Type
REMARK                         _______ _______ _______ _____ _____    ______ ____
ROOT
ATOM      1  C   LIG    1       24.538 -13.001   3.455  0.00  0.00    +0.067 C 
ATOM      2  C   LIG    1       23.186 -13.611   3.826  0.00  0.00    +0.044 C 
ATOM      3  C   LIG    1       23.309 -14.097   5.263  0.00  0.00    +0.142 C 
ATOM      4  N   LIG    1       24.765 -14.276   5.461  0.00  0.00    -0.305 NA
ATOM      5  H   LIG    1       24.983 -14.218   6.458  0.00  0.00    +0.123 HD
ATOM      6  C   LIG    1       25.357 -13.135   4.746  0.00  0.00    +0.096 C 
ENDROOT
BRANCH   3   7
ATOM      7  C   LIG    1       22.553 -15.422   5.449  0.00  0.00    +0.234 C 
ATOM      8  N   LIG    1       22.860 -16.365   4.479  0.00  0.00    -0.284 N 
ATOM      9  H   LIG    1       23.679 -16.125   3.921  0.00  0.00    +0.155 HD
ATOM     10  O   LIG    1       21.729 -15.544   6.351  0.00  0.00    -0.274 OA
BRANCH   8  11
ATOM     11  C   LIG    1       22.296 -17.649   4.344  0.00  0.00    +0.034 A 
ATOM     12  C   LIG    1       22.966 -18.733   4.921  0.00  0.00    +0.038 A 
ATOM     13  C   LIG    1       22.411 -20.023   4.861  0.00  0.00    +0.061 A 
ATOM     14  C   LIG    1       21.187 -20.231   4.215  0.00  0.00    +0.015 A 
ATOM     15  C   LIG    1       20.545 -19.160   3.598  0.00  0.00    +0.003 A 
ATOM     16  C   LIG    1       21.097 -17.879   3.663  0.00  0.00    +0.023 A 
BRANCH  13  17
ATOM     17  C   LIG    1       23.120 -21.128   5.557  0.00  0.00    +0.337 C 
ATOM     18  O   LIG    1       22.759 -21.572   6.633  0.00  0.00    -0.245 OA
BRANCH  17  19
ATOM     19  O   LIG    1       24.218 -21.572   4.909  0.00  0.00    -0.477 OA
ATOM     20  H   LIG    1       24.061 -21.935   4.020  0.00  0.00    +0.295 HD
ENDBRANCH  17  19
ENDBRANCH  13  17
ENDBRANCH   8  11
ENDBRANCH   3   7
BRANCH   1  21
ATOM     21  S   LIG    1       25.296 -13.880   2.029  0.00  0.00    -0.122 S 
BRANCH  21  26
ATOM     22  C   LIG    1       27.588 -17.151   5.145  0.00  0.00    +0.125 C 
ATOM     23  C   LIG    1       27.639 -16.769   3.632  0.00  0.00    +0.104 C 
ATOM     24  N   LIG    1       28.286 -15.493   4.049  0.00  0.00    -0.260 N 
ATOM     25  C   LIG    1       27.550 -14.427   3.548  0.00  0.00    +0.131 C 
ATOM     26  C   LIG    1       26.499 -14.843   2.817  0.00  0.00    +0.019 C 
ATOM     27  C   LIG    1       26.440 -16.359   2.772  0.00  0.00    +0.046 C 
ATOM     28  C   LIG    1       25.160 -17.029   3.246  0.00  0.00    +0.015 C 
ATOM     29  C   LIG    1       28.243 -15.791   5.375  0.00  0.00    +0.228 C 
ATOM     30  O   LIG    1       28.515 -15.074   6.322  0.00  0.00    -0.275 OA
BRANCH  22  32
ATOM     31  C   LIG    1       27.564 -19.628   5.538  0.00  0.00    +0.038 C 
ATOM     32  C   LIG    1       28.409 -18.364   5.533  0.00  0.00    +0.125 C 
BRANCH  32  33
ATOM     33  O   LIG    1       29.475 -18.490   4.592  0.00  0.00    -0.391 OA
ATOM     34  H   LIG    1       29.908 -17.623   4.492  0.00  0.00    +0.210 HD
ENDBRANCH  32  33
ENDBRANCH  22  32
BRANCH  25  35
ATOM     35  C   LIG    1       27.972 -13.016   3.824  0.00  0.00    +0.352 C 
ATOM     36  O   LIG    1       28.188 -12.184   2.955  0.00  0.00    -0.244 OA
BRANCH  35  37
ATOM     37  O   LIG    1       28.183 -12.739   5.130  0.00  0.00    -0.476 OA
ATOM     38  H   LIG    1       29.063 -12.356   5.346  0.00  0.00    +0.295 HD
ENDBRANCH  35  37
ENDBRANCH  25  35
ENDBRANCH  21  26
ENDBRANCH   1  21
TORSDOF 10
ENDMDL
MODEL 3
REMARK VINA RESULT:      10.7      2.582      5.503
REMARK  Name = *****
REMARK                            x       y       z     vdW  Elec       q    Type
REMARK                         _______ _______ _______ _____ _____    ______ ____
ROOT
ATOM      1  C   LIG    1       26.676 -11.780   2.978  0.00  0.00    +0.067 C 
ATOM      2  C   LIG    1       27.153 -12.541   4.215  0.00  0.00    +0.044 C 
ATOM      3  C   LIG    1       27.943 -13.740   3.708  0.00  0.00    +0.142 C 
ATOM      4  N   LIG    1       27.442 -13.946   2.331  0.00  0.00    -0.305 NA
ATOM      5  H   LIG    1       28.148 -14.444   1.784  0.00  0.00    +0.123 HD
ATOM      6  C   LIG    1       27.273 -12.580   1.812  0.00  0.00    +0.096 C 
ENDROOT
BRANCH   3   7
ATOM      7  C   LIG    1       27.676 -14.969   4.590  0.00  0.00    +0.234 C 
ATOM      8  N   LIG    1       28.181 -16.144   4.054  0.00  0.00    -0.284 N 
ATOM      9  H   LIG    1       28.824 -15.995   3.277  0.00  0.00    +0.155 HD
ATOM     10  O   LIG    1       27.021 -14.860   5.623  0.00  0.00    -0.274 OA
BRANCH   8  11
ATOM     11  C   LIG    1       28.052 -17.440   4.592  0.00  0.00    +0.034 A 
ATOM     12  C   LIG    1       26.927 -18.195   4.242  0.00  0.00    +0.038 A 
ATOM     13  C   LIG    1       26.785 -19.514   4.707  0.00  0.00    +0.061 A 
ATOM     14  C   LIG    1       27.766 -20.076   5.532  0.00  0.00    +0.015 A 
ATOM     15  C   LIG    1       28.860 -19.307   5.921  0.00  0.00    +0.003 A 
ATOM     16  C   LIG    1       29.000 -17.999   5.453  0.00  0.00    +0.023 A 
BRANCH  13  17
ATOM     17  C   LIG    1       25.614 -20.303   4.243  0.00  0.00    +0.337 C 
ATOM     18  O   LIG    1       24.885 -19.935   3.339  0.00  0.00    -0.245 OA
BRANCH  17  19
ATOM     19  O   LIG    1       25.410 -21.444   4.936  0.00  0.00    -0.477 OA
ATOM     20  H   LIG    1       26.215 -21.906   5.228  0.00  0.00    +0.295 HD
ENDBRANCH  17  19
ENDBRANCH  13  17
ENDBRANCH   8  11
ENDBRANCH   3   7
BRANCH   1  21
ATOM     21  S   LIG    1       24.840 -11.689   2.920  0.00  0.00    -0.122 S 
BRANCH  21  26
ATOM     22  C   LIG    1       22.487 -15.928   4.389  0.00  0.00    +0.125 C 
ATOM     23  C   LIG    1       23.953 -15.401   4.276  0.00  0.00    +0.104 C 
ATOM     24  N   LIG    1       23.642 -14.503   5.425  0.00  0.00    -0.260 N 
ATOM     25  C   LIG    1       23.911 -13.190   5.059  0.00  0.00    +0.131 C 
ATOM     26  C   LIG    1       24.396 -13.109   3.805  0.00  0.00    +0.019 C 
ATOM     27  C   LIG    1       24.492 -14.486   3.174  0.00  0.00    +0.046 C 
ATOM     28  C   LIG    1       23.764 -14.711   1.858  0.00  0.00    +0.015 C 
ATOM     29  C   LIG    1       22.356 -14.932   5.539  0.00  0.00    +0.228 C 
ATOM     30  O   LIG    1       21.468 -14.485   6.242  0.00  0.00    -0.275 OA
BRANCH  22  32
ATOM     31  C   LIG    1       21.139 -18.023   4.091  0.00  0.00    +0.038 C 
ATOM     32  C   LIG    1       22.355 -17.393   4.754  0.00  0.00    +0.125 C 
BRANCH  32  33
ATOM     33  O   LIG    1       23.544 -18.059   4.331  0.00  0.00    -0.391 OA
ATOM     34  H   LIG    1       24.004 -17.496   3.682  0.00  0.00    +0.210 HD
ENDBRANCH  32  33
ENDBRANCH  22  32
BRANCH  25  35
ATOM     35  C   LIG    1       23.680 -12.069   6.025  0.00  0.00    +0.352 C 
ATOM     36  O   LIG    1       22.576 -11.642   6.326  0.00  0.00    -0.244 OA
BRANCH  35  37
ATOM     37  O   LIG    1       24.809 -11.489   6.491  0.00  0.00    -0.476 OA
ATOM     38  H   LIG    1       24.975 -11.598   7.455  0.00  0.00    +0.295 HD
ENDBRANCH  35  37
ENDBRANCH  25  35
ENDBRANCH  21  26
ENDBRANCH   1  21
TORSDOF 10
ENDMDL
MODEL 4
REMARK VINA RESULT:      11.5      2.481      6.073
REMARK  Name = *****
REMARK                            x       y       z     vdW  Elec       q    Type
REMARK                         _______ _______ _______ _____ _____    ______ ____
ROOT
ATOM      1  C   LIG    1       27.324 -21.014   5.656  0.00  0.00    +0.067 C 
ATOM      2  C   LIG    1       27.592 -20.067   4.485  0.00  0.00    +0.044 C 
ATOM      3  C   LIG    1       28.050 -18.748   5.091  0.00  0.00    +0.142 C 
ATOM      4  N   LIG    1       27.512 -18.777   6.469  0.00  0.00    -0.305 NA
ATOM      5  H   LIG    1       28.067 -18.157   7.064  0.00  0.00    +0.123 HD
ATOM      6  C   LIG    1       27.696 -20.176   6.887  0.00  0.00    +0.096 C 
ENDROOT
BRANCH   3   7
ATOM      7  C   LIG    1       27.478 -17.565   4.294  0.00  0.00    +0.234 C 
ATOM      8  N   LIG    1       28.041 -16.347   4.645  0.00  0.00    -0.284 N 
ATOM      9  H   LIG    1       28.880 -16.436   5.217  0.00  0.00    +0.155 HD
ATOM     10  O   LIG    1       26.572 -17.743   3.485  0.00  0.00    -0.274 OA
BRANCH   8  11
ATOM     11  C   LIG    1       27.693 -15.080   4.139  0.00  0.00    +0.034 A 
ATOM     12  C   LIG    1       26.382 -14.881   3.690  0.00  0.00    +0.038 A 
ATOM     13  C   LIG    1       25.973 -13.617   3.232  0.00  0.00    +0.061 A 
ATOM     14  C   LIG    1       26.880 -12.551   3.214  0.00  0.00    +0.015 A 
ATOM     15  C   LIG    1       28.197 -12.761   3.613  0.00  0.00    +0.003 A 
ATOM     16  C   LIG    1       28.598 -14.018   4.073  0.00  0.00    +0.023 A 
BRANCH  13  17
ATOM     17  C   LIG    1       24.551 -13.435   2.841  0.00  0.00    +0.337 C 
ATOM     18  O   LIG    1       23.636 -14.031   3.380  0.00  0.00    -0.245 OA
BRANCH  17  19
ATOM     19  O   LIG    1       24.368 -12.580   1.812  0.00  0.00    -0.477 OA
ATOM     20  H   LIG    1       23.446 -12.317   1.645  0.00  0.00    +0.295 HD
ENDBRANCH  17  19
ENDBRANCH  13  17
ENDBRANCH   8  11
ENDBRANCH   3   7
BRANCH   1  21
ATOM     21  S   LIG    1       25.571 -21.572   5.671  0.00  0.00    -0.122 S 
BRANCH  21  26
ATOM     22  C   LIG    1       22.002 -18.128   4.638  0.00  0.00    +0.125 C 
ATOM     23  C   LIG    1       23.506 -18.142   5.060  0.00  0.00    +0.104 C 
ATOM     24  N   LIG    1       23.813 -18.639   3.689  0.00  0.00    -0.260 N 
ATOM     25  C   LIG    1       24.525 -19.828   3.787  0.00  0.00    +0.131 C 
ATOM     26  C   LIG    1       24.756 -20.169   5.069  0.00  0.00    +0.019 C 
ATOM     27  C   LIG    1       24.158 -19.145   6.016  0.00  0.00    +0.046 C 
ATOM     28  C   LIG    1       23.170 -19.643   7.059  0.00  0.00    +0.015 C 
ATOM     29  C   LIG    1       22.511 -18.651   3.296  0.00  0.00    +0.228 C 
ATOM     30  O   LIG    1       22.033 -19.097   2.268  0.00  0.00    -0.275 OA
BRANCH  22  32
ATOM     31  C   LIG    1       21.975 -15.833   5.650  0.00  0.00    +0.038 C 
ATOM     32  C   LIG    1       21.350 -16.761   4.620  0.00  0.00    +0.125 C 
BRANCH  32  33
ATOM     33  O   LIG    1       21.508 -16.217   3.310  0.00  0.00    -0.391 OA
ATOM     34  H   LIG    1       20.637 -15.920   2.988  0.00  0.00    +0.210 HD
ENDBRANCH  32  33
ENDBRANCH  22  32
BRANCH  25  35
ATOM     35  C   LIG    1       24.960 -20.557   2.553  0.00  0.00    +0.352 C 
ATOM     36  O   LIG    1       25.996 -20.324   1.949  0.00  0.00    -0.244 OA
BRANCH  35  37
ATOM     37  O   LIG    1       24.065 -21.460   2.090  0.00  0.00    -0.476 OA
ATOM     38  H   LIG    1       23.250 -21.082   1.689  0.00  0.00    +0.295 HD
ENDBRANCH  35  37
ENDBRANCH  25  35
ENDBRANCH  21  26
ENDBRANCH   1  21
TORSDOF 10
ENDMDL
