MODEL 1
REMARK VINA RESULT:      -9.0      0.000      0.000
REMARK  Name = *****
REMARK                            x       y       z     vdW  Elec       q    Type
REMARK                         _______ _______ _______ _____ _____    ______ ____
ROOT
ATOM      1  C   LIG    1       25.011 -24.761   6.520  0.00  0.00    -0.021 C 
ATOM      2  C   LIG    1       25.160 -23.363   6.809  0.00  0.00    +0.003 C 
ATOM      3  C   LIG    1       23.884 -22.810   6.891  0.00  0.00    +0.047 C 
ATOM      4  C   LIG    1       23.673 -21.477   7.265  0.00  0.00    +0.026 C 
ATOM      5  C   LIG    1       24.801 -20.700   7.585  0.00  0.00    +0.006 C 
ATOM      6  C   LIG    1       26.102 -21.206   7.464  0.00  0.00    -0.045 C 
ATOM      7  N   LIG    1       22.996 -23.807   6.555  0.00  0.00    -0.360 NA
ATOM      8  H   LIG    1       21.993 -23.689   6.489  0.00  0.00    +0.165 HD
ATOM      9  C   LIG    1       26.277 -22.521   7.003  0.00  0.00    +0.014 C 
ATOM     10  C   LIG    1       23.659 -24.989   6.350  0.00  0.00    +0.087 C 
ENDROOT
BRANCH   1  11
ATOM     11  C   LIG    1       26.131 -25.750   6.359  0.00  0.00    +0.052 C 
BRANCH  11  12
ATOM     12  C   LIG    1       25.891 -26.857   5.308  0.00  0.00    +0.088 C 
BRANCH  12  14
ATOM     13  C   LIG    1       25.553 -28.210   7.281  0.00  0.00    +0.104 C 
ATOM     14  N   LIG    1       25.500 -28.191   5.818  0.00  0.00    -0.308 NA
ATOM     15  C   LIG    1       24.159 -28.597   5.401  0.00  0.00    +0.104 C 
ENDBRANCH  12  14
ENDBRANCH  11  12
ENDBRANCH   1  11
BRANCH   6  16
ATOM     16  C   LIG    1       27.311 -20.419   7.937  0.00  0.00    +0.060 C 
BRANCH  16  17
ATOM     17  C   LIG    1       28.573 -20.527   7.074  0.00  0.00    +0.118 C 
ATOM     18  N   LIG    1       29.796 -20.338   7.792  0.00  0.00    -0.275 N 
ATOM     19  H   LIG    1       30.187 -21.009   8.441  0.00  0.00    +0.152 HD
ATOM     20  C   LIG    1       30.698 -19.626   7.045  0.00  0.00    +0.401 C 
ATOM     21  O   LIG    1       31.869 -19.510   7.289  0.00  0.00    -0.227 OA
ATOM     22  O   LIG    1       30.066 -19.097   5.951  0.00  0.00    -0.449 OA
ATOM     23  C   LIG    1       28.671 -19.432   6.021  0.00  0.00    +0.256 C 
ENDBRANCH  16  17
ENDBRANCH   6  16
TORSDOF 5
ENDMDL
MODEL 2
REMARK VINA RESULT:      -8.7      2.773      4.813
REMARK  Name = *****
REMARK                            x       y       z     vdW  Elec       q    Type
REMARK                         _______ _______ _______ _____ _____    ______ ____
ROOT
ATOM      1  C   LIG    1       26.586 -20.939   6.688  0.00  0.00    -0.021 C 
ATOM      2  C   LIG    1       27.894 -20.353   6.778  0.00  0.00    +0.003 C 
ATOM      3  C   LIG    1       28.087 -19.574   5.640  0.00  0.00    +0.047 C 
ATOM      4  C   LIG    1       29.227 -18.779   5.467  0.00  0.00    +0.026 C 
ATOM      5  C   LIG    1       30.180 -18.767   6.501  0.00  0.00    +0.006 C 
ATOM      6  C   LIG    1       30.045 -19.576   7.636  0.00  0.00    -0.045 C 
ATOM      7  N   LIG    1       26.987 -19.766   4.833  0.00  0.00    -0.360 NA
ATOM      8  H   LIG    1       26.864 -19.357   3.917  0.00  0.00    +0.165 HD
ATOM      9  C   LIG    1       28.930 -20.425   7.734  0.00  0.00    +0.014 C 
ATOM     10  C   LIG    1       26.069 -20.568   5.461  0.00  0.00    +0.087 C 
ENDROOT
BRANCH   1  11
ATOM     11  C   LIG    1       25.956 -21.844   7.709  0.00  0.00    +0.052 C 
BRANCH  11  12
ATOM     12  C   LIG    1       25.827 -23.326   7.289  0.00  0.00    +0.088 C 
BRANCH  12  14
ATOM     13  C   LIG    1       25.278 -24.816   5.468  0.00  0.00    +0.104 C 
ATOM     14  N   LIG    1       24.848 -23.638   6.223  0.00  0.00    -0.308 NA
ATOM     15  C   LIG    1       23.500 -23.884   6.733  0.00  0.00    +0.104 C 
ENDBRANCH  12  14
ENDBRANCH  11  12
ENDBRANCH   1  11
BRANCH   6  16
ATOM     16  C   LIG    1       30.997 -19.465   8.813  0.00  0.00    +0.060 C 
BRANCH  16  17
ATOM     17  C   LIG    1       31.251 -18.053   9.352  0.00  0.00    +0.118 C 
ATOM     18  N   LIG    1       31.871 -18.016  10.641  0.00  0.00    -0.275 N 
ATOM     19  H   LIG    1       32.839 -18.252  10.817  0.00  0.00    +0.152 HD
ATOM     20  C   LIG    1       31.348 -17.005  11.407  0.00  0.00    +0.401 C 
ATOM     21  O   LIG    1       31.820 -16.593  12.432  0.00  0.00    -0.227 OA
ATOM     22  O   LIG    1       30.225 -16.509  10.801  0.00  0.00    -0.449 OA
ATOM     23  C   LIG    1       29.969 -17.274   9.612  0.00  0.00    +0.256 C 
ENDBRANCH  16  17
ENDBRANCH   6  16
TORSDOF 5
ENDMDL
MODEL 3
REMARK VINA RESULT:      -8.7      1.494      2.096
REMARK  Name = *****
REMARK                            x       y       z     vdW  Elec       q    Type
REMARK                         _______ _______ _______ _____ _____    ______ ____
ROOT
ATOM      1  C   LIG    1       24.682 -23.490   6.504  0.00  0.00    -0.021 C 
ATOM      2  C   LIG    1       25.602 -22.472   6.929  0.00  0.00    +0.003 C 
ATOM      3  C   LIG    1       24.904 -21.588   7.747  0.00  0.00    +0.047 C 
ATOM      4  C   LIG    1       25.538 -20.532   8.414  0.00  0.00    +0.026 C 
ATOM      5  C   LIG    1       26.929 -20.399   8.254  0.00  0.00    +0.006 C 
ATOM      6  C   LIG    1       27.656 -21.237   7.399  0.00  0.00    -0.045 C 
ATOM      7  N   LIG    1       23.585 -21.985   7.731  0.00  0.00    -0.360 NA
ATOM      8  H   LIG    1       22.832 -21.506   8.206  0.00  0.00    +0.165 HD
ATOM      9  C   LIG    1       26.970 -22.231   6.681  0.00  0.00    +0.014 C 
ATOM     10  C   LIG    1       23.443 -23.139   7.005  0.00  0.00    +0.087 C 
ENDROOT
BRANCH   1  11
ATOM     11  C   LIG    1       25.012 -24.659   5.618  0.00  0.00    +0.052 C 
BRANCH  11  12
ATOM     12  C   LIG    1       24.226 -25.956   5.914  0.00  0.00    +0.088 C 
BRANCH  12  14
ATOM     13  C   LIG    1       26.152 -27.154   5.080  0.00  0.00    +0.104 C 
ATOM     14  N   LIG    1       24.698 -27.192   5.246  0.00  0.00    -0.308 NA
ATOM     15  C   LIG    1       24.349 -28.409   5.976  0.00  0.00    +0.104 C 
ENDBRANCH  12  14
ENDBRANCH  11  12
ENDBRANCH   1  11
BRANCH   6  16
ATOM     16  C   LIG    1       29.172 -21.185   7.329  0.00  0.00    +0.060 C 
BRANCH  16  17
ATOM     17  C   LIG    1       29.868 -20.261   8.334  0.00  0.00    +0.118 C 
ATOM     18  N   LIG    1       30.349 -19.036   7.774  0.00  0.00    -0.275 N 
ATOM     19  H   LIG    1       29.757 -18.268   7.484  0.00  0.00    +0.152 HD
ATOM     20  C   LIG    1       31.560 -18.692   8.316  0.00  0.00    +0.401 C 
ATOM     21  O   LIG    1       32.092 -17.620   8.210  0.00  0.00    -0.227 OA
ATOM     22  O   LIG    1       32.055 -19.748   9.034  0.00  0.00    -0.449 OA
ATOM     23  C   LIG    1       31.149 -20.855   8.903  0.00  0.00    +0.256 C 
ENDBRANCH  16  17
ENDBRANCH   6  16
TORSDOF 5
ENDMDL
MODEL 4
REMARK VINA RESULT:      -8.5      1.919      3.072
REMARK  Name = *****
REMARK                            x       y       z     vdW  Elec       q    Type
REMARK                         _______ _______ _______ _____ _____    ______ ____
ROOT
ATOM      1  C   LIG    1       23.744 -21.758   5.877  0.00  0.00    -0.021 C 
ATOM      2  C   LIG    1       25.043 -21.146   5.872  0.00  0.00    +0.003 C 
ATOM      3  C   LIG    1       25.177 -20.452   4.672  0.00  0.00    +0.047 C 
ATOM      4  C   LIG    1       26.294 -19.654   4.395  0.00  0.00    +0.026 C 
ATOM      5  C   LIG    1       27.286 -19.548   5.387  0.00  0.00    +0.006 C 
ATOM      6  C   LIG    1       27.210 -20.271   6.584  0.00  0.00    -0.045 C 
ATOM      7  N   LIG    1       24.052 -20.723   3.926  0.00  0.00    -0.360 NA
ATOM      8  H   LIG    1       23.887 -20.386   2.987  0.00  0.00    +0.165 HD
ATOM      9  C   LIG    1       26.115 -21.128   6.789  0.00  0.00    +0.014 C 
ATOM     10  C   LIG    1       23.174 -21.490   4.647  0.00  0.00    +0.087 C 
ENDROOT
BRANCH   1  11
ATOM     11  C   LIG    1       23.171 -22.594   6.987  0.00  0.00    +0.052 C 
BRANCH  11  12
ATOM     12  C   LIG    1       23.177 -24.119   6.738  0.00  0.00    +0.088 C 
BRANCH  12  14
ATOM     13  C   LIG    1       25.513 -24.670   7.021  0.00  0.00    +0.104 C 
ATOM     14  N   LIG    1       24.383 -24.686   6.090  0.00  0.00    -0.308 NA
ATOM     15  C   LIG    1       24.192 -26.058   5.621  0.00  0.00    +0.104 C 
ENDBRANCH  12  14
ENDBRANCH  11  12
ENDBRANCH   1  11
BRANCH   6  16
ATOM     16  C   LIG    1       28.203 -20.056   7.711  0.00  0.00    +0.060 C 
BRANCH  16  17
ATOM     17  C   LIG    1       29.645 -20.501   7.442  0.00  0.00    +0.118 C 
ATOM     18  N   LIG    1       30.209 -21.326   8.466  0.00  0.00    -0.275 N 
ATOM     19  H   LIG    1       29.947 -22.288   8.634  0.00  0.00    +0.152 HD
ATOM     20  C   LIG    1       31.528 -21.014   8.674  0.00  0.00    +0.401 C 
ATOM     21  O   LIG    1       32.310 -21.678   9.300  0.00  0.00    -0.227 OA
ATOM     22  O   LIG    1       31.829 -19.848   8.024  0.00  0.00    -0.449 OA
ATOM     23  C   LIG    1       30.631 -19.343   7.411  0.00  0.00    +0.256 C 
ENDBRANCH  16  17
ENDBRANCH   6  16
TORSDOF 5
ENDMDL
MODEL 5
REMARK VINA RESULT:      -8.4      4.014      7.661
REMARK  Name = *****
REMARK                            x       y       z     vdW  Elec       q    Type
REMARK                         _______ _______ _______ _____ _____    ______ ____
ROOT
ATOM      1  C   LIG    1       26.288 -21.598   7.532  0.00  0.00    -0.021 C 
ATOM      2  C   LIG    1       25.564 -22.799   7.223  0.00  0.00    +0.003 C 
ATOM      3  C   LIG    1       24.207 -22.482   7.209  0.00  0.00    +0.047 C 
ATOM      4  C   LIG    1       23.230 -23.413   6.836  0.00  0.00    +0.026 C 
ATOM      5  C   LIG    1       23.660 -24.694   6.445  0.00  0.00    +0.006 C 
ATOM      6  C   LIG    1       25.010 -25.065   6.496  0.00  0.00    -0.045 C 
ATOM      7  N   LIG    1       24.101 -21.167   7.605  0.00  0.00    -0.360 NA
ATOM      8  H   LIG    1       23.229 -20.670   7.727  0.00  0.00    +0.165 HD
ATOM      9  C   LIG    1       25.952 -24.130   6.957  0.00  0.00    +0.014 C 
ATOM     10  C   LIG    1       25.345 -20.620   7.782  0.00  0.00    +0.087 C 
ENDROOT
BRANCH   1  11
ATOM     11  C   LIG    1       27.782 -21.476   7.637  0.00  0.00    +0.052 C 
BRANCH  11  12
ATOM     12  C   LIG    1       28.331 -20.031   7.608  0.00  0.00    +0.088 C 
BRANCH  12  14
ATOM     13  C   LIG    1       30.459 -20.920   8.328  0.00  0.00    +0.104 C 
ATOM     14  N   LIG    1       29.561 -19.767   8.391  0.00  0.00    -0.308 NA
ATOM     15  C   LIG    1       30.293 -18.587   7.931  0.00  0.00    +0.104 C 
ENDBRANCH  12  14
ENDBRANCH  11  12
ENDBRANCH   1  11
BRANCH   6  16
ATOM     16  C   LIG    1       25.493 -26.395   5.947  0.00  0.00    +0.060 C 
BRANCH  16  17
ATOM     17  C   LIG    1       24.730 -27.640   6.411  0.00  0.00    +0.118 C 
ATOM     18  N   LIG    1       25.484 -28.513   7.257  0.00  0.00    -0.275 N 
ATOM     19  H   LIG    1       25.728 -28.309   8.218  0.00  0.00    +0.152 HD
ATOM     20  C   LIG    1       25.216 -29.826   6.969  0.00  0.00    +0.401 C 
ATOM     21  O   LIG    1       25.521 -30.766   7.652  0.00  0.00    -0.227 OA
ATOM     22  O   LIG    1       24.508 -29.901   5.799  0.00  0.00    -0.449 OA
ATOM     23  C   LIG    1       24.360 -28.574   5.268  0.00  0.00    +0.256 C 
ENDBRANCH  16  17
ENDBRANCH   6  16
TORSDOF 5
ENDMDL
MODEL 6
REMARK VINA RESULT:      -8.1      3.353      7.510
REMARK  Name = *****
REMARK                            x       y       z     vdW  Elec       q    Type
REMARK                         _______ _______ _______ _____ _____    ______ ____
ROOT
ATOM      1  C   LIG    1       29.124 -19.884   7.108  0.00  0.00    -0.021 C 
ATOM      2  C   LIG    1       27.775 -20.125   6.679  0.00  0.00    +0.003 C 
ATOM      3  C   LIG    1       27.623 -19.550   5.420  0.00  0.00    +0.047 C 
ATOM      4  C   LIG    1       26.448 -19.696   4.672  0.00  0.00    +0.026 C 
ATOM      5  C   LIG    1       25.413 -20.473   5.224  0.00  0.00    +0.006 C 
ATOM      6  C   LIG    1       25.509 -21.023   6.508  0.00  0.00    -0.045 C 
ATOM      7  N   LIG    1       28.796 -18.886   5.140  0.00  0.00    -0.360 NA
ATOM      8  H   LIG    1       28.966 -18.339   4.306  0.00  0.00    +0.165 HD
ATOM      9  C   LIG    1       26.670 -20.783   7.262  0.00  0.00    +0.014 C 
ATOM     10  C   LIG    1       29.714 -19.097   6.137  0.00  0.00    +0.087 C 
ENDROOT
BRANCH   1  11
ATOM     11  C   LIG    1       29.729 -20.341   8.405  0.00  0.00    +0.052 C 
BRANCH  11  12
ATOM     12  C   LIG    1       31.230 -20.017   8.585  0.00  0.00    +0.088 C 
BRANCH  12  14
ATOM     13  C   LIG    1       32.173 -17.794   8.656  0.00  0.00    +0.104 C 
ATOM     14  N   LIG    1       31.567 -18.863   9.451  0.00  0.00    -0.308 NA
ATOM     15  C   LIG    1       30.409 -18.314  10.155  0.00  0.00    +0.104 C 
ENDBRANCH  12  14
ENDBRANCH  11  12
ENDBRANCH   1  11
BRANCH   6  16
ATOM     16  C   LIG    1       24.457 -21.973   7.051  0.00  0.00    +0.060 C 
BRANCH  16  17
ATOM     17  C   LIG    1       24.758 -23.470   6.918  0.00  0.00    +0.118 C 
ATOM     18  N   LIG    1       25.483 -23.823   5.737  0.00  0.00    -0.275 N 
ATOM     19  H   LIG    1       26.462 -23.617   5.583  0.00  0.00    +0.152 HD
ATOM     20  C   LIG    1       25.028 -25.009   5.220  0.00  0.00    +0.401 C 
ATOM     21  O   LIG    1       25.585 -25.661   4.378  0.00  0.00    -0.227 OA
ATOM     22  O   LIG    1       23.860 -25.359   5.842  0.00  0.00    -0.449 OA
ATOM     23  C   LIG    1       23.504 -24.320   6.768  0.00  0.00    +0.256 C 
ENDBRANCH  16  17
ENDBRANCH   6  16
TORSDOF 5
ENDMDL
MODEL 7
REMARK VINA RESULT:      -7.8      3.643      5.991
REMARK  Name = *****
REMARK                            x       y       z     vdW  Elec       q    Type
REMARK                         _______ _______ _______ _____ _____    ______ ____
ROOT
ATOM      1  C   LIG    1       24.975 -19.990   4.571  0.00  0.00    -0.021 C 
ATOM      2  C   LIG    1       25.862 -20.358   5.639  0.00  0.00    +0.003 C 
ATOM      3  C   LIG    1       25.131 -21.111   6.554  0.00  0.00    +0.047 C 
ATOM      4  C   LIG    1       25.730 -21.716   7.667  0.00  0.00    +0.026 C 
ATOM      5  C   LIG    1       27.119 -21.561   7.828  0.00  0.00    +0.006 C 
ATOM      6  C   LIG    1       27.878 -20.768   6.958  0.00  0.00    -0.045 C 
ATOM      7  N   LIG    1       23.824 -21.108   6.121  0.00  0.00    -0.360 NA
ATOM      8  H   LIG    1       23.053 -21.544   6.608  0.00  0.00    +0.165 HD
ATOM      9  C   LIG    1       27.226 -20.108   5.902  0.00  0.00    +0.014 C 
ATOM     10  C   LIG    1       23.722 -20.455   4.920  0.00  0.00    +0.087 C 
ENDROOT
BRANCH   1  11
ATOM     11  C   LIG    1       25.346 -19.183   3.359  0.00  0.00    +0.052 C 
BRANCH  11  12
ATOM     12  C   LIG    1       25.117 -17.660   3.482  0.00  0.00    +0.088 C 
BRANCH  12  14
ATOM     13  C   LIG    1       25.901 -15.378   3.355  0.00  0.00    +0.104 C 
ATOM     14  N   LIG    1       26.268 -16.782   3.167  0.00  0.00    -0.308 NA
ATOM     15  C   LIG    1       27.447 -17.063   3.985  0.00  0.00    +0.104 C 
ENDBRANCH  12  14
ENDBRANCH  11  12
ENDBRANCH   1  11
BRANCH   6  16
ATOM     16  C   LIG    1       29.392 -20.710   7.047  0.00  0.00    +0.060 C 
BRANCH  16  17
ATOM     17  C   LIG    1       29.974 -19.871   8.189  0.00  0.00    +0.118 C 
ATOM     18  N   LIG    1       30.526 -18.617   7.778  0.00  0.00    -0.275 N 
ATOM     19  H   LIG    1       29.977 -17.821   7.479  0.00  0.00    +0.152 HD
ATOM     20  C   LIG    1       31.669 -18.332   8.479  0.00  0.00    +0.401 C 
ATOM     21  O   LIG    1       32.218 -17.263   8.513  0.00  0.00    -0.227 OA
ATOM     22  O   LIG    1       32.069 -19.444   9.171  0.00  0.00    -0.449 OA
ATOM     23  C   LIG    1       31.176 -20.525   8.857  0.00  0.00    +0.256 C 
ENDBRANCH  16  17
ENDBRANCH   6  16
TORSDOF 5
ENDMDL
MODEL 8
REMARK VINA RESULT:      -7.8      3.614      7.313
REMARK  Name = *****
REMARK                            x       y       z     vdW  Elec       q    Type
REMARK                         _______ _______ _______ _____ _____    ______ ____
ROOT
ATOM      1  C   LIG    1       28.184 -20.102   6.210  0.00  0.00    -0.021 C 
ATOM      2  C   LIG    1       26.886 -20.672   5.982  0.00  0.00    +0.003 C 
ATOM      3  C   LIG    1       26.289 -19.960   4.945  0.00  0.00    +0.047 C 
ATOM      4  C   LIG    1       25.051 -20.330   4.405  0.00  0.00    +0.026 C 
ATOM      5  C   LIG    1       24.424 -21.476   4.928  0.00  0.00    +0.006 C 
ATOM      6  C   LIG    1       24.970 -22.187   6.004  0.00  0.00    -0.045 C 
ATOM      7  N   LIG    1       27.140 -18.925   4.628  0.00  0.00    -0.360 NA
ATOM      8  H   LIG    1       26.953 -18.214   3.934  0.00  0.00    +0.165 HD
ATOM      9  C   LIG    1       26.171 -21.734   6.576  0.00  0.00    +0.014 C 
ATOM     10  C   LIG    1       28.292 -19.012   5.367  0.00  0.00    +0.087 C 
ENDROOT
BRANCH   1  11
ATOM     11  C   LIG    1       29.183 -20.570   7.230  0.00  0.00    +0.052 C 
BRANCH  11  12
ATOM     12  C   LIG    1       30.552 -19.852   7.195  0.00  0.00    +0.088 C 
BRANCH  12  14
ATOM     13  C   LIG    1       31.455 -19.039   9.283  0.00  0.00    +0.104 C 
ATOM     14  N   LIG    1       31.484 -20.133   8.311  0.00  0.00    -0.308 NA
ATOM     15  C   LIG    1       31.183 -21.380   9.012  0.00  0.00    +0.104 C 
ENDBRANCH  12  14
ENDBRANCH  11  12
ENDBRANCH   1  11
BRANCH   6  16
ATOM     16  C   LIG    1       24.370 -23.498   6.480  0.00  0.00    +0.060 C 
BRANCH  16  17
ATOM     17  C   LIG    1       24.945 -24.775   5.858  0.00  0.00    +0.118 C 
ATOM     18  N   LIG    1       23.978 -25.800   5.616  0.00  0.00    -0.275 N 
ATOM     19  H   LIG    1       23.277 -25.765   4.887  0.00  0.00    +0.152 HD
ATOM     20  C   LIG    1       24.497 -27.038   5.895  0.00  0.00    +0.401 C 
ATOM     21  O   LIG    1       24.005 -28.088   5.577  0.00  0.00    -0.227 OA
ATOM     22  O   LIG    1       25.687 -26.895   6.557  0.00  0.00    -0.449 OA
ATOM     23  C   LIG    1       25.926 -25.495   6.773  0.00  0.00    +0.256 C 
ENDBRANCH  16  17
ENDBRANCH   6  16
TORSDOF 5
ENDMDL
MODEL 9
REMARK VINA RESULT:      -7.7      3.172      4.915
REMARK  Name = *****
REMARK                            x       y       z     vdW  Elec       q    Type
REMARK                         _______ _______ _______ _____ _____    ______ ____
ROOT
ATOM      1  C   LIG    1       24.553 -21.468   5.250  0.00  0.00    -0.021 C 
ATOM      2  C   LIG    1       25.599 -21.188   6.194  0.00  0.00    +0.003 C 
ATOM      3  C   LIG    1       25.365 -21.967   7.325  0.00  0.00    +0.047 C 
ATOM      4  C   LIG    1       26.264 -22.008   8.398  0.00  0.00    +0.026 C 
ATOM      5  C   LIG    1       27.444 -21.248   8.294  0.00  0.00    +0.006 C 
ATOM      6  C   LIG    1       27.688 -20.415   7.195  0.00  0.00    -0.045 C 
ATOM      7  N   LIG    1       24.164 -22.610   7.126  0.00  0.00    -0.360 NA
ATOM      8  H   LIG    1       23.716 -23.217   7.799  0.00  0.00    +0.165 HD
ATOM      9  C   LIG    1       26.722 -20.334   6.178  0.00  0.00    +0.014 C 
ATOM     10  C   LIG    1       23.677 -22.335   5.875  0.00  0.00    +0.087 C 
ENDROOT
BRANCH   1  11
ATOM     11  C   LIG    1       24.417 -20.860   3.883  0.00  0.00    +0.052 C 
BRANCH  11  12
ATOM     12  C   LIG    1       23.868 -19.415   3.853  0.00  0.00    +0.088 C 
BRANCH  12  14
ATOM     13  C   LIG    1       22.286 -17.730   4.556  0.00  0.00    +0.104 C 
ATOM     14  N   LIG    1       22.675 -19.135   4.685  0.00  0.00    -0.308 NA
ATOM     15  C   LIG    1       21.523 -19.965   4.336  0.00  0.00    +0.104 C 
ENDBRANCH  12  14
ENDBRANCH  11  12
ENDBRANCH   1  11
BRANCH   6  16
ATOM     16  C   LIG    1       29.016 -19.702   7.014  0.00  0.00    +0.060 C 
BRANCH  16  17
ATOM     17  C   LIG    1       29.825 -19.436   8.288  0.00  0.00    +0.118 C 
ATOM     18  N   LIG    1       30.545 -18.200   8.282  0.00  0.00    -0.275 N 
ATOM     19  H   LIG    1       30.116 -17.287   8.368  0.00  0.00    +0.152 HD
ATOM     20  C   LIG    1       31.774 -18.347   8.872  0.00  0.00    +0.401 C 
ATOM     21  O   LIG    1       32.497 -17.448   9.210  0.00  0.00    -0.227 OA
ATOM     22  O   LIG    1       32.036 -19.678   9.054  0.00  0.00    -0.449 OA
ATOM     23  C   LIG    1       30.950 -20.439   8.502  0.00  0.00    +0.256 C 
ENDBRANCH  16  17
ENDBRANCH   6  16
TORSDOF 5
ENDMDL
