MODEL 1
REMARK VINA RESULT:      -6.4      0.000      0.000
REMARK  Name = *****
REMARK                            x       y       z     vdW  Elec       q    Type
REMARK                         _______ _______ _______ _____ _____    ______ ____
ROOT
ATOM      1  C   LIG    1       29.411 -18.528   5.743  0.00  0.00    +0.086 C 
ATOM      2  C   LIG    1       29.560 -19.650   6.709  0.00  0.00    +0.112 A 
ATOM      3  N   LIG    1       30.609 -19.794   7.611  0.00  0.00    -0.268 N 
ATOM      4  C   LIG    1       30.357 -20.958   8.301  0.00  0.00    +0.368 A 
ATOM      5  C   LIG    1       29.179 -21.453   7.809  0.00  0.00    +0.217 A 
ATOM      6  N   LIG    1       28.695 -20.641   6.825  0.00  0.00    -0.234 NA
ENDROOT
BRANCH   4   7
ATOM      7  N   LIG    1       31.164 -21.531   9.323  0.00  0.00    +0.100 N 
ATOM      8  O   LIG    1       32.349 -21.204   9.382  0.00  0.00    -0.575 OA
ATOM      9  O   LIG    1       30.601 -22.338  10.080  0.00  0.00    +0.043 OA
ENDBRANCH   4   7
BRANCH   3  10
ATOM     10  C   LIG    1       31.686 -18.831   7.800  0.00  0.00    +0.157 C 
BRANCH  10  11
ATOM     11  C   LIG    1       31.436 -17.852   8.945  0.00  0.00    +0.177 C 
BRANCH  11  12
ATOM     12  O   LIG    1       32.111 -18.284  10.122  0.00  0.00    -0.393 OA
ATOM     13  H   LIG    1       32.201 -19.253  10.070  0.00  0.00    +0.209 HD
ENDBRANCH  11  12
ENDBRANCH  10  11
ENDBRANCH   3  10
TORSDOF 4
ENDMDL
MODEL 2
REMARK VINA RESULT:      -6.1      1.399      3.043
REMARK  Name = *****
REMARK                            x       y       z     vdW  Elec       q    Type
REMARK                         _______ _______ _______ _____ _____    ______ ____
ROOT
ATOM      1  C   LIG    1       29.218 -18.358   5.619  0.00  0.00    +0.086 C 
ATOM      2  C   LIG    1       30.056 -18.902   6.722  0.00  0.00    +0.112 A 
ATOM      3  N   LIG    1       29.902 -20.158   7.298  0.00  0.00    -0.268 N 
ATOM      4  C   LIG    1       30.872 -20.250   8.271  0.00  0.00    +0.368 A 
ATOM      5  C   LIG    1       31.570 -19.073   8.233  0.00  0.00    +0.217 A 
ATOM      6  N   LIG    1       31.059 -18.246   7.276  0.00  0.00    -0.234 NA
ENDROOT
BRANCH   4   7
ATOM      7  N   LIG    1       31.100 -21.351   9.141  0.00  0.00    +0.100 N 
ATOM      8  O   LIG    1       30.125 -21.985   9.548  0.00  0.00    -0.575 OA
ATOM      9  O   LIG    1       32.283 -21.583   9.437  0.00  0.00    +0.043 OA
ENDBRANCH   4   7
BRANCH   3  10
ATOM     10  C   LIG    1       28.943 -21.165   6.861  0.00  0.00    +0.157 C 
BRANCH  10  11
ATOM     11  C   LIG    1       27.529 -20.932   7.386  0.00  0.00    +0.177 C 
BRANCH  11  12
ATOM     12  O   LIG    1       27.372 -21.530   8.668  0.00  0.00    -0.393 OA
ATOM     13  H   LIG    1       26.437 -21.434   8.925  0.00  0.00    +0.209 HD
ENDBRANCH  11  12
ENDBRANCH  10  11
ENDBRANCH   3  10
TORSDOF 4
ENDMDL
MODEL 3
REMARK VINA RESULT:      -5.7      5.169      6.738
REMARK  Name = *****
REMARK                            x       y       z     vdW  Elec       q    Type
REMARK                         _______ _______ _______ _____ _____    ______ ____
ROOT
ATOM      1  C   LIG    1       24.029 -20.550   4.070  0.00  0.00    +0.086 C 
ATOM      2  C   LIG    1       24.973 -20.583   5.220  0.00  0.00    +0.112 A 
ATOM      3  N   LIG    1       24.675 -21.079   6.485  0.00  0.00    -0.268 N 
ATOM      4  C   LIG    1       25.818 -20.916   7.235  0.00  0.00    +0.368 A 
ATOM      5  C   LIG    1       26.749 -20.352   6.403  0.00  0.00    +0.217 A 
ATOM      6  N   LIG    1       26.218 -20.149   5.163  0.00  0.00    -0.234 NA
ENDROOT
BRANCH   4   7
ATOM      7  N   LIG    1       25.994 -21.263   8.602  0.00  0.00    +0.100 N 
ATOM      8  O   LIG    1       25.908 -20.371   9.446  0.00  0.00    -0.575 OA
ATOM      9  O   LIG    1       26.235 -22.457   8.839  0.00  0.00    +0.043 OA
ENDBRANCH   4   7
BRANCH   3  10
ATOM     10  C   LIG    1       23.416 -21.710   6.859  0.00  0.00    +0.157 C 
BRANCH  10  11
ATOM     11  C   LIG    1       23.449 -23.235   6.782  0.00  0.00    +0.177 C 
BRANCH  11  12
ATOM     12  O   LIG    1       22.131 -23.752   6.639  0.00  0.00    -0.393 OA
ATOM     13  H   LIG    1       21.684 -23.660   7.500  0.00  0.00    +0.209 HD
ENDBRANCH  11  12
ENDBRANCH  10  11
ENDBRANCH   3  10
TORSDOF 4
ENDMDL
MODEL 4
REMARK VINA RESULT:      -5.7      5.899      7.406
REMARK  Name = *****
REMARK                            x       y       z     vdW  Elec       q    Type
REMARK                         _______ _______ _______ _____ _____    ______ ____
ROOT
ATOM      1  C   LIG    1       25.804 -25.243   6.720  0.00  0.00    +0.086 C 
ATOM      2  C   LIG    1       24.681 -24.266   6.726  0.00  0.00    +0.112 A 
ATOM      3  N   LIG    1       24.822 -22.886   6.832  0.00  0.00    -0.268 N 
ATOM      4  C   LIG    1       23.546 -22.372   6.799  0.00  0.00    +0.368 A 
ATOM      5  C   LIG    1       22.701 -23.440   6.661  0.00  0.00    +0.217 A 
ATOM      6  N   LIG    1       23.410 -24.605   6.618  0.00  0.00    -0.234 NA
ENDROOT
BRANCH   4   7
ATOM      7  N   LIG    1       23.181 -21.000   6.892  0.00  0.00    +0.100 N 
ATOM      8  O   LIG    1       23.353 -20.423   7.966  0.00  0.00    -0.575 OA
ATOM      9  O   LIG    1       22.698 -20.489   5.869  0.00  0.00    +0.043 OA
ENDBRANCH   4   7
BRANCH   3  10
ATOM     10  C   LIG    1       26.095 -22.179   6.880  0.00  0.00    +0.157 C 
BRANCH  10  11
ATOM     11  C   LIG    1       26.690 -22.082   8.283  0.00  0.00    +0.177 C 
BRANCH  11  12
ATOM     12  O   LIG    1       25.934 -21.175   9.079  0.00  0.00    -0.393 OA
ATOM     13  H   LIG    1       25.045 -21.557   9.195  0.00  0.00    +0.209 HD
ENDBRANCH  11  12
ENDBRANCH  10  11
ENDBRANCH   3  10
TORSDOF 4
ENDMDL
MODEL 5
REMARK VINA RESULT:      -5.4      6.373      7.665
REMARK  Name = *****
REMARK                            x       y       z     vdW  Elec       q    Type
REMARK                         _______ _______ _______ _____ _____    ______ ____
ROOT
ATOM      1  C   LIG    1       26.670 -20.394   5.891  0.00  0.00    +0.086 C 
ATOM      2  C   LIG    1       26.024 -21.631   6.407  0.00  0.00    +0.112 A 
ATOM      3  N   LIG    1       24.870 -22.207   5.886  0.00  0.00    -0.268 N 
ATOM      4  C   LIG    1       24.623 -23.322   6.655  0.00  0.00    +0.368 A 
ATOM      5  C   LIG    1       25.628 -23.382   7.584  0.00  0.00    +0.217 A 
ATOM      6  N   LIG    1       26.486 -22.333   7.425  0.00  0.00    -0.234 NA
ENDROOT
BRANCH   4   7
ATOM      7  N   LIG    1       23.537 -24.229   6.512  0.00  0.00    +0.100 N 
ATOM      8  O   LIG    1       23.777 -25.366   6.105  0.00  0.00    -0.575 OA
ATOM      9  O   LIG    1       22.413 -23.790   6.802  0.00  0.00    +0.043 OA
ENDBRANCH   4   7
BRANCH   3  10
ATOM     10  C   LIG    1       24.158 -21.730   4.707  0.00  0.00    +0.157 C 
BRANCH  10  11
ATOM     11  C   LIG    1       22.962 -20.840   5.033  0.00  0.00    +0.177 C 
BRANCH  11  12
ATOM     12  O   LIG    1       21.756 -21.596   4.989  0.00  0.00    -0.393 OA
ATOM     13  H   LIG    1       21.044 -21.035   5.347  0.00  0.00    +0.209 HD
ENDBRANCH  11  12
ENDBRANCH  10  11
ENDBRANCH   3  10
TORSDOF 4
ENDMDL
MODEL 6
REMARK VINA RESULT:      -5.3      4.784      5.939
REMARK  Name = *****
REMARK                            x       y       z     vdW  Elec       q    Type
REMARK                         _______ _______ _______ _____ _____    ______ ____
ROOT
ATOM      1  C   LIG    1       23.268 -21.443   7.250  0.00  0.00    +0.086 C 
ATOM      2  C   LIG    1       24.692 -21.036   7.395  0.00  0.00    +0.112 A 
ATOM      3  N   LIG    1       25.600 -20.920   6.348  0.00  0.00    -0.268 N 
ATOM      4  C   LIG    1       26.789 -20.527   6.921  0.00  0.00    +0.368 A 
ATOM      5  C   LIG    1       26.552 -20.410   8.264  0.00  0.00    +0.217 A 
ATOM      6  N   LIG    1       25.255 -20.728   8.548  0.00  0.00    -0.234 NA
ENDROOT
BRANCH   4   7
ATOM      7  N   LIG    1       28.020 -20.292   6.247  0.00  0.00    +0.100 N 
ATOM      8  O   LIG    1       28.075 -19.363   5.441  0.00  0.00    -0.575 OA
ATOM      9  O   LIG    1       28.952 -21.063   6.521  0.00  0.00    +0.043 OA
ENDBRANCH   4   7
BRANCH   3  10
ATOM     10  C   LIG    1       25.278 -21.105   4.939  0.00  0.00    +0.157 C 
BRANCH  10  11
ATOM     11  C   LIG    1       24.779 -19.836   4.253  0.00  0.00    +0.177 C 
BRANCH  11  12
ATOM     12  O   LIG    1       25.846 -19.195   3.561  0.00  0.00    -0.393 OA
ATOM     13  H   LIG    1       26.680 -19.566   3.899  0.00  0.00    +0.209 HD
ENDBRANCH  11  12
ENDBRANCH  10  11
ENDBRANCH   3  10
TORSDOF 4
ENDMDL
MODEL 7
REMARK VINA RESULT:      -5.2      6.084      7.571
REMARK  Name = *****
REMARK                            x       y       z     vdW  Elec       q    Type
REMARK                         _______ _______ _______ _____ _____    ______ ____
ROOT
ATOM      1  C   LIG    1       26.035 -20.902   8.612  0.00  0.00    +0.086 C 
ATOM      2  C   LIG    1       25.952 -20.610   7.156  0.00  0.00    +0.112 A 
ATOM      3  N   LIG    1       24.786 -20.644   6.398  0.00  0.00    -0.268 N 
ATOM      4  C   LIG    1       25.159 -20.316   5.114  0.00  0.00    +0.368 A 
ATOM      5  C   LIG    1       26.509 -20.086   5.150  0.00  0.00    +0.217 A 
ATOM      6  N   LIG    1       26.990 -20.272   6.413  0.00  0.00    -0.234 NA
ENDROOT
BRANCH   4   7
ATOM      7  N   LIG    1       24.309 -20.233   3.978  0.00  0.00    +0.100 N 
ATOM      8  O   LIG    1       23.959 -19.118   3.590  0.00  0.00    -0.575 OA
ATOM      9  O   LIG    1       23.971 -21.312   3.465  0.00  0.00    +0.043 OA
ENDBRANCH   4   7
BRANCH   3  10
ATOM     10  C   LIG    1       23.453 -20.898   6.929  0.00  0.00    +0.157 C 
BRANCH  10  11
ATOM     11  C   LIG    1       23.103 -22.381   7.021  0.00  0.00    +0.177 C 
BRANCH  11  12
ATOM     12  O   LIG    1       23.530 -23.064   5.847  0.00  0.00    -0.393 OA
ATOM     13  H   LIG    1       23.560 -24.015   6.054  0.00  0.00    +0.209 HD
ENDBRANCH  11  12
ENDBRANCH  10  11
ENDBRANCH   3  10
TORSDOF 4
ENDMDL
MODEL 8
REMARK VINA RESULT:      -5.2      1.452      3.062
REMARK  Name = *****
REMARK                            x       y       z     vdW  Elec       q    Type
REMARK                         _______ _______ _______ _____ _____    ______ ____
ROOT
ATOM      1  C   LIG    1       28.801 -20.636   6.136  0.00  0.00    +0.086 C 
ATOM      2  C   LIG    1       29.475 -19.644   7.018  0.00  0.00    +0.112 A 
ATOM      3  N   LIG    1       29.959 -19.908   8.294  0.00  0.00    -0.268 N 
ATOM      4  C   LIG    1       30.497 -18.725   8.748  0.00  0.00    +0.368 A 
ATOM      5  C   LIG    1       30.333 -17.814   7.739  0.00  0.00    +0.217 A 
ATOM      6  N   LIG    1       29.699 -18.389   6.676  0.00  0.00    -0.234 NA
ENDROOT
BRANCH   4   7
ATOM      7  N   LIG    1       31.102 -18.497  10.015  0.00  0.00    +0.100 N 
ATOM      8  O   LIG    1       30.378 -18.476  11.011  0.00  0.00    -0.575 OA
ATOM      9  O   LIG    1       32.330 -18.323  10.014  0.00  0.00    +0.043 OA
ENDBRANCH   4   7
BRANCH   3  10
ATOM     10  C   LIG    1       29.948 -21.216   8.937  0.00  0.00    +0.157 C 
BRANCH  10  11
ATOM     11  C   LIG    1       31.237 -22.009   8.733  0.00  0.00    +0.177 C 
BRANCH  11  12
ATOM     12  O   LIG    1       32.287 -21.457   9.521  0.00  0.00    -0.393 OA
ATOM     13  H   LIG    1       32.318 -20.500   9.342  0.00  0.00    +0.209 HD
ENDBRANCH  11  12
ENDBRANCH  10  11
ENDBRANCH   3  10
TORSDOF 4
ENDMDL
MODEL 9
REMARK VINA RESULT:      -5.1      6.288      7.646
REMARK  Name = *****
REMARK                            x       y       z     vdW  Elec       q    Type
REMARK                         _______ _______ _______ _____ _____    ______ ____
ROOT
ATOM      1  C   LIG    1       25.866 -25.211   6.618  0.00  0.00    +0.086 C 
ATOM      2  C   LIG    1       24.720 -24.262   6.661  0.00  0.00    +0.112 A 
ATOM      3  N   LIG    1       24.830 -22.880   6.760  0.00  0.00    -0.268 N 
ATOM      4  C   LIG    1       23.541 -22.397   6.770  0.00  0.00    +0.368 A 
ATOM      5  C   LIG    1       22.719 -23.487   6.662  0.00  0.00    +0.217 A 
ATOM      6  N   LIG    1       23.455 -24.634   6.597  0.00  0.00    -0.234 NA
ENDROOT
BRANCH   4   7
ATOM      7  N   LIG    1       23.144 -21.035   6.873  0.00  0.00    +0.100 N 
ATOM      8  O   LIG    1       23.273 -20.471   7.960  0.00  0.00    -0.575 OA
ATOM      9  O   LIG    1       22.682 -20.518   5.844  0.00  0.00    +0.043 OA
ENDBRANCH   4   7
BRANCH   3  10
ATOM     10  C   LIG    1       26.086 -22.140   6.763  0.00  0.00    +0.157 C 
BRANCH  10  11
ATOM     11  C   LIG    1       26.075 -20.911   5.857  0.00  0.00    +0.177 C 
BRANCH  11  12
ATOM     12  O   LIG    1       25.473 -21.224   4.605  0.00  0.00    -0.393 OA
ATOM     13  H   LIG    1       24.549 -21.477   4.778  0.00  0.00    +0.209 HD
ENDBRANCH  11  12
ENDBRANCH  10  11
ENDBRANCH   3  10
TORSDOF 4
ENDMDL
