MODEL 1
REMARK VINA RESULT:      -9.0      0.000      0.000
REMARK  Name = *****
REMARK                            x       y       z     vdW  Elec       q    Type
REMARK                         _______ _______ _______ _____ _____    ______ ____
ROOT
ATOM      1  C   LIG    1       28.711 -20.140   7.157  0.00  0.00    -0.045 A 
ATOM      2  C   LIG    1       27.670 -20.262   8.076  0.00  0.00    +0.007 A 
ATOM      3  C   LIG    1       26.355 -20.496   7.628  0.00  0.00    +0.046 A 
ATOM      4  C   LIG    1       26.043 -20.483   6.273  0.00  0.00    +0.120 A 
ATOM      5  C   LIG    1       27.023 -20.011   5.392  0.00  0.00    +0.046 A 
ATOM      6  C   LIG    1       28.351 -19.884   5.824  0.00  0.00    +0.007 A 
ENDROOT
BRANCH   1   7
ATOM      7  C   LIG    1       30.191 -20.271   7.493  0.00  0.00    +0.067 C 
BRANCH   7   8
ATOM      8  C   LIG    1       30.691 -20.359   8.970  0.00  0.00    +0.189 C 
BRANCH   8   9
ATOM      9  N   LIG    1       31.515 -19.167   9.407  0.00  0.00    -0.180 NA
ATOM     10  H   LIG    1       32.376 -19.065   8.856  0.00  0.00    +0.148 HD
BRANCH   9  11
ATOM     11  S   LIG    1       30.835 -17.684   9.807  0.00  0.00    +0.030 S 
ATOM     12  O   LIG    1       30.275 -17.128   8.635  0.00  0.00    -0.158 OA
ATOM     13  O   LIG    1       30.049 -17.940  11.021  0.00  0.00    -0.158 OA
BRANCH  11  14
ATOM     14  C   LIG    1       32.318 -16.782  10.291  0.00  0.00    +0.185 C 
BRANCH  14  15
ATOM     15  C   LIG    1       32.701 -16.937  11.765  0.00  0.00    +0.024 C 
BRANCH  15  17
ATOM     16  C   LIG    1       32.527 -15.933  14.088  0.00  0.00    +0.004 C 
ATOM     17  C   LIG    1       31.914 -15.995  12.693  0.00  0.00    -0.002 C 
ENDBRANCH  15  17
ENDBRANCH  14  15
ENDBRANCH  11  14
ENDBRANCH   9  11
ENDBRANCH   8   9
BRANCH   8  18
ATOM     18  C   LIG    1       31.228 -21.714   9.335  0.00  0.00    +0.324 C 
ATOM     19  O   LIG    1       30.855 -22.472  10.204  0.00  0.00    -0.249 OA
BRANCH  18  20
ATOM     20  O   LIG    1       32.177 -22.138   8.402  0.00  0.00    -0.479 OA
ATOM     21  H   LIG    1       31.878 -22.718   7.627  0.00  0.00    +0.295 HD
ENDBRANCH  18  20
ENDBRANCH   8  18
ENDBRANCH   7   8
ENDBRANCH   1   7
BRANCH   4  22
ATOM     22  O   LIG    1       24.853 -20.867   5.715  0.00  0.00    -0.492 OA
BRANCH  22  23
ATOM     23  C   LIG    1       24.607 -22.254   5.402  0.00  0.00    +0.229 C 
BRANCH  23  24
ATOM     24  C   LIG    1       24.138 -23.074   6.614  0.00  0.00    +0.041 C 
BRANCH  24  25
ATOM     25  C   LIG    1       24.711 -24.507   6.733  0.00  0.00    +0.003 C 
BRANCH  25  26
ATOM     26  C   LIG    1       24.046 -25.638   5.902  0.00  0.00    +0.004 C 
BRANCH  26  27
ATOM     27  C   LIG    1       25.070 -26.766   5.517  0.00  0.00    -0.008 C 
ATOM     28  C   LIG    1       26.327 -26.870   6.406  0.00  0.00    +0.018 C 
ATOM     29  C   LIG    1       26.141 -27.659   7.707  0.00  0.00    +0.081 C 
ATOM     30  N   LIG    1       25.597 -28.992   7.472  0.00  0.00    -0.316 NA
ATOM     31  H   LIG    1       26.292 -29.546   6.970  0.00  0.00    +0.122 HD
ATOM     32  C   LIG    1       24.354 -28.937   6.702  0.00  0.00    +0.081 C 
ATOM     33  C   LIG    1       24.504 -28.197   5.370  0.00  0.00    +0.018 C 
ENDBRANCH  26  27
ENDBRANCH  25  26
ENDBRANCH  24  25
ENDBRANCH  23  24
ENDBRANCH  22  23
ENDBRANCH   4  22
TORSDOF 15
ENDMDL
MODEL 2
REMARK VINA RESULT:      -8.9      1.664      2.555
REMARK  Name = *****
REMARK                            x       y       z     vdW  Elec       q    Type
REMARK                         _______ _______ _______ _____ _____    ______ ____
ROOT
ATOM      1  C   LIG    1       27.204 -20.845   7.221  0.00  0.00    -0.045 A 
ATOM      2  C   LIG    1       26.603 -20.877   8.479  0.00  0.00    +0.007 A 
ATOM      3  C   LIG    1       25.213 -21.069   8.594  0.00  0.00    +0.046 A 
ATOM      4  C   LIG    1       24.395 -21.102   7.469  0.00  0.00    +0.120 A 
ATOM      5  C   LIG    1       24.963 -20.716   6.250  0.00  0.00    +0.046 A 
ATOM      6  C   LIG    1       26.357 -20.632   6.122  0.00  0.00    +0.007 A 
ENDROOT
BRANCH   1   7
ATOM      7  C   LIG    1       28.694 -21.030   6.962  0.00  0.00    +0.067 C 
BRANCH   7   8
ATOM      8  C   LIG    1       29.692 -19.832   7.029  0.00  0.00    +0.189 C 
BRANCH   8   9
ATOM      9  N   LIG    1       29.779 -19.185   8.395  0.00  0.00    -0.180 NA
ATOM     10  H   LIG    1       29.169 -19.643   9.082  0.00  0.00    +0.148 HD
BRANCH   9  11
ATOM     11  S   LIG    1       31.228 -18.671   9.070  0.00  0.00    +0.030 S 
ATOM     12  O   LIG    1       32.000 -19.814   9.376  0.00  0.00    -0.158 OA
ATOM     13  O   LIG    1       31.705 -17.602   8.184  0.00  0.00    -0.158 OA
BRANCH  11  14
ATOM     14  C   LIG    1       30.611 -17.901  10.579  0.00  0.00    +0.185 C 
BRANCH  14  15
ATOM     15  C   LIG    1       31.191 -16.513  10.864  0.00  0.00    +0.024 C 
BRANCH  15  17
ATOM     16  C   LIG    1       32.033 -15.956  13.191  0.00  0.00    +0.004 C 
ATOM     17  C   LIG    1       32.387 -16.548  11.831  0.00  0.00    -0.002 C 
ENDBRANCH  15  17
ENDBRANCH  14  15
ENDBRANCH  11  14
ENDBRANCH   9  11
ENDBRANCH   8   9
BRANCH   8  18
ATOM     18  C   LIG    1       29.583 -18.902   5.854  0.00  0.00    +0.324 C 
ATOM     19  O   LIG    1       28.596 -18.381   5.384  0.00  0.00    -0.249 OA
BRANCH  18  20
ATOM     20  O   LIG    1       30.850 -18.523   5.404  0.00  0.00    -0.479 OA
ATOM     21  H   LIG    1       31.002 -17.562   5.117  0.00  0.00    +0.295 HD
ENDBRANCH  18  20
ENDBRANCH   8  18
ENDBRANCH   7   8
ENDBRANCH   1   7
BRANCH   4  22
ATOM     22  O   LIG    1       23.072 -21.454   7.443  0.00  0.00    -0.492 OA
BRANCH  22  23
ATOM     23  C   LIG    1       22.598 -22.444   6.505  0.00  0.00    +0.229 C 
BRANCH  23  24
ATOM     24  C   LIG    1       23.123 -23.858   6.800  0.00  0.00    +0.041 C 
BRANCH  24  25
ATOM     25  C   LIG    1       24.408 -24.280   6.048  0.00  0.00    +0.003 C 
BRANCH  25  26
ATOM     26  C   LIG    1       25.623 -24.766   6.884  0.00  0.00    +0.004 C 
BRANCH  26  27
ATOM     27  C   LIG    1       26.241 -26.091   6.310  0.00  0.00    -0.008 C 
ATOM     28  C   LIG    1       26.209 -27.314   7.251  0.00  0.00    +0.018 C 
ATOM     29  C   LIG    1       24.887 -28.089   7.269  0.00  0.00    +0.081 C 
ATOM     30  N   LIG    1       24.463 -28.490   5.931  0.00  0.00    -0.316 NA
ATOM     31  H   LIG    1       25.123 -29.180   5.572  0.00  0.00    +0.122 HD
ATOM     32  C   LIG    1       24.396 -27.344   5.023  0.00  0.00    +0.081 C 
ATOM     33  C   LIG    1       25.713 -26.567   4.938  0.00  0.00    +0.018 C 
ENDBRANCH  26  27
ENDBRANCH  25  26
ENDBRANCH  24  25
ENDBRANCH  23  24
ENDBRANCH  22  23
ENDBRANCH   4  22
TORSDOF 15
ENDMDL
MODEL 3
REMARK VINA RESULT:      -8.8      4.601      9.812
REMARK  Name = *****
REMARK                            x       y       z     vdW  Elec       q    Type
REMARK                         _______ _______ _______ _____ _____    ______ ____
ROOT
ATOM      1  C   LIG    1       24.989 -25.584   6.393  0.00  0.00    -0.045 A 
ATOM      2  C   LIG    1       23.705 -25.043   6.430  0.00  0.00    +0.007 A 
ATOM      3  C   LIG    1       23.527 -23.655   6.594  0.00  0.00    +0.046 A 
ATOM      4  C   LIG    1       24.607 -22.816   6.848  0.00  0.00    +0.120 A 
ATOM      5  C   LIG    1       25.830 -23.419   7.158  0.00  0.00    +0.046 A 
ATOM      6  C   LIG    1       26.028 -24.781   6.891  0.00  0.00    +0.007 A 
ENDROOT
BRANCH   1   7
ATOM      7  C   LIG    1       25.338 -26.964   5.851  0.00  0.00    +0.067 C 
BRANCH   7   8
ATOM      8  C   LIG    1       24.792 -28.268   6.514  0.00  0.00    +0.189 C 
BRANCH   8   9
ATOM      9  N   LIG    1       25.517 -28.656   7.785  0.00  0.00    -0.180 NA
ATOM     10  H   LIG    1       25.783 -27.839   8.347  0.00  0.00    +0.148 HD
BRANCH   9  11
ATOM     11  S   LIG    1       25.057 -29.962   8.735  0.00  0.00    +0.030 S 
ATOM     12  O   LIG    1       23.651 -30.080   8.667  0.00  0.00    -0.158 OA
ATOM     13  O   LIG    1       25.967 -31.050   8.356  0.00  0.00    -0.158 OA
BRANCH  11  14
ATOM     14  C   LIG    1       25.564 -29.360  10.357  0.00  0.00    +0.185 C 
BRANCH  14  15
ATOM     15  C   LIG    1       26.734 -28.372  10.328  0.00  0.00    +0.024 C 
BRANCH  15  17
ATOM     16  C   LIG    1       27.372 -28.455  12.782  0.00  0.00    +0.004 C 
ATOM     17  C   LIG    1       26.880 -27.576  11.636  0.00  0.00    -0.002 C 
ENDBRANCH  15  17
ENDBRANCH  14  15
ENDBRANCH  11  14
ENDBRANCH   9  11
ENDBRANCH   8   9
BRANCH   8  18
ATOM     18  C   LIG    1       24.531 -29.372   5.529  0.00  0.00    +0.324 C 
ATOM     19  O   LIG    1       25.327 -30.061   4.929  0.00  0.00    -0.249 OA
BRANCH  18  20
ATOM     20  O   LIG    1       23.169 -29.675   5.475  0.00  0.00    -0.479 OA
ATOM     21  H   LIG    1       22.572 -29.392   6.244  0.00  0.00    +0.295 HD
ENDBRANCH  18  20
ENDBRANCH   8  18
ENDBRANCH   7   8
ENDBRANCH   1   7
BRANCH   4  22
ATOM     22  O   LIG    1       24.582 -21.447   6.850  0.00  0.00    -0.492 OA
BRANCH  22  23
ATOM     23  C   LIG    1       25.452 -20.699   5.973  0.00  0.00    +0.229 C 
BRANCH  23  24
ATOM     24  C   LIG    1       26.778 -20.297   6.636  0.00  0.00    +0.041 C 
BRANCH  24  25
ATOM     25  C   LIG    1       27.903 -19.825   5.684  0.00  0.00    +0.003 C 
BRANCH  25  26
ATOM     26  C   LIG    1       29.335 -19.656   6.262  0.00  0.00    +0.004 C 
BRANCH  26  27
ATOM     27  C   LIG    1       29.340 -19.664   7.833  0.00  0.00    -0.008 C 
ATOM     28  C   LIG    1       29.834 -20.966   8.500  0.00  0.00    +0.018 C 
ATOM     29  C   LIG    1       31.356 -21.099   8.621  0.00  0.00    +0.081 C 
ATOM     30  N   LIG    1       31.961 -19.948   9.286  0.00  0.00    -0.316 NA
ATOM     31  H   LIG    1       31.658 -19.937  10.260  0.00  0.00    +0.122 HD
ATOM     32  C   LIG    1       31.587 -18.694   8.632  0.00  0.00    +0.081 C 
ATOM     33  C   LIG    1       30.072 -18.496   8.531  0.00  0.00    +0.018 C 
ENDBRANCH  26  27
ENDBRANCH  25  26
ENDBRANCH  24  25
ENDBRANCH  23  24
ENDBRANCH  22  23
ENDBRANCH   4  22
TORSDOF 15
ENDMDL
MODEL 4
REMARK VINA RESULT:      -8.6      4.718      9.806
REMARK  Name = *****
REMARK                            x       y       z     vdW  Elec       q    Type
REMARK                         _______ _______ _______ _____ _____    ______ ____
ROOT
ATOM      1  C   LIG    1       25.323 -25.941   6.078  0.00  0.00    -0.045 A 
ATOM      2  C   LIG    1       26.171 -24.842   6.213  0.00  0.00    +0.007 A 
ATOM      3  C   LIG    1       25.668 -23.615   6.688  0.00  0.00    +0.046 A 
ATOM      4  C   LIG    1       24.307 -23.432   6.909  0.00  0.00    +0.120 A 
ATOM      5  C   LIG    1       23.440 -24.421   6.434  0.00  0.00    +0.046 A 
ATOM      6  C   LIG    1       23.944 -25.677   6.064  0.00  0.00    +0.007 A 
ENDROOT
BRANCH   1   7
ATOM      7  C   LIG    1       25.783 -27.387   5.953  0.00  0.00    +0.067 C 
BRANCH   7   8
ATOM      8  C   LIG    1       25.016 -28.554   6.652  0.00  0.00    +0.189 C 
BRANCH   8   9
ATOM      9  N   LIG    1       25.633 -28.993   7.962  0.00  0.00    -0.180 NA
ATOM     10  H   LIG    1       26.051 -28.209   8.477  0.00  0.00    +0.148 HD
BRANCH   9  11
ATOM     11  S   LIG    1       24.909 -30.113   8.982  0.00  0.00    +0.030 S 
ATOM     12  O   LIG    1       23.508 -29.972   8.865  0.00  0.00    -0.158 OA
ATOM     13  O   LIG    1       25.607 -31.378   8.718  0.00  0.00    -0.158 OA
BRANCH  11  14
ATOM     14  C   LIG    1       25.477 -29.494  10.577  0.00  0.00    +0.185 C 
BRANCH  14  15
ATOM     15  C   LIG    1       26.658 -28.524  10.495  0.00  0.00    +0.024 C 
BRANCH  15  17
ATOM     16  C   LIG    1       25.626 -27.819  12.703  0.00  0.00    +0.004 C 
ATOM     17  C   LIG    1       26.810 -27.653  11.754  0.00  0.00    -0.002 C 
ENDBRANCH  15  17
ENDBRANCH  14  15
ENDBRANCH  11  14
ENDBRANCH   9  11
ENDBRANCH   8   9
BRANCH   8  18
ATOM     18  C   LIG    1       24.608 -29.647   5.705  0.00  0.00    +0.324 C 
ATOM     19  O   LIG    1       25.299 -30.484   5.165  0.00  0.00    -0.249 OA
BRANCH  18  20
ATOM     20  O   LIG    1       23.217 -29.729   5.614  0.00  0.00    -0.479 OA
ATOM     21  H   LIG    1       22.722 -30.371   6.224  0.00  0.00    +0.295 HD
ENDBRANCH  18  20
ENDBRANCH   8  18
ENDBRANCH   7   8
ENDBRANCH   1   7
BRANCH   4  22
ATOM     22  O   LIG    1       23.728 -22.357   7.529  0.00  0.00    -0.492 OA
BRANCH  22  23
ATOM     23  C   LIG    1       24.183 -21.017   7.245  0.00  0.00    +0.229 C 
BRANCH  23  24
ATOM     24  C   LIG    1       25.310 -20.550   8.180  0.00  0.00    +0.041 C 
BRANCH  24  25
ATOM     25  C   LIG    1       26.711 -20.400   7.541  0.00  0.00    +0.003 C 
BRANCH  25  26
ATOM     26  C   LIG    1       27.930 -21.003   8.290  0.00  0.00    +0.004 C 
BRANCH  26  27
ATOM     27  C   LIG    1       29.225 -21.009   7.400  0.00  0.00    -0.008 C 
ATOM     28  C   LIG    1       29.264 -19.971   6.258  0.00  0.00    +0.018 C 
ATOM     29  C   LIG    1       29.709 -18.564   6.672  0.00  0.00    +0.081 C 
ATOM     30  N   LIG    1       30.990 -18.571   7.371  0.00  0.00    -0.316 NA
ATOM     31  H   LIG    1       31.719 -18.853   6.714  0.00  0.00    +0.122 HD
ATOM     32  C   LIG    1       30.972 -19.481   8.516  0.00  0.00    +0.081 C 
ATOM     33  C   LIG    1       30.578 -20.913   8.141  0.00  0.00    +0.018 C 
ENDBRANCH  26  27
ENDBRANCH  25  26
ENDBRANCH  24  25
ENDBRANCH  23  24
ENDBRANCH  22  23
ENDBRANCH   4  22
TORSDOF 15
ENDMDL
MODEL 5
REMARK VINA RESULT:      -8.4      2.148      3.853
REMARK  Name = *****
REMARK                            x       y       z     vdW  Elec       q    Type
REMARK                         _______ _______ _______ _____ _____    ______ ____
ROOT
ATOM      1  C   LIG    1       26.110 -21.497   7.641  0.00  0.00    -0.045 A 
ATOM      2  C   LIG    1       26.704 -22.744   7.452  0.00  0.00    +0.007 A 
ATOM      3  C   LIG    1       25.945 -23.820   6.953  0.00  0.00    +0.046 A 
ATOM      4  C   LIG    1       24.572 -23.705   6.760  0.00  0.00    +0.120 A 
ATOM      5  C   LIG    1       23.942 -22.572   7.286  0.00  0.00    +0.046 A 
ATOM      6  C   LIG    1       24.706 -21.465   7.682  0.00  0.00    +0.007 A 
ENDROOT
BRANCH   1   7
ATOM      7  C   LIG    1       26.867 -20.184   7.798  0.00  0.00    +0.067 C 
BRANCH   7   8
ATOM      8  C   LIG    1       28.338 -20.023   7.300  0.00  0.00    +0.189 C 
BRANCH   8   9
ATOM      9  N   LIG    1       29.261 -19.390   8.318  0.00  0.00    -0.180 NA
ATOM     10  H   LIG    1       28.778 -19.166   9.196  0.00  0.00    +0.148 HD
BRANCH   9  11
ATOM     11  S   LIG    1       30.836 -19.915   8.573  0.00  0.00    +0.030 S 
ATOM     12  O   LIG    1       30.788 -21.063   9.395  0.00  0.00    -0.158 OA
ATOM     13  O   LIG    1       31.460 -19.913   7.244  0.00  0.00    -0.158 OA
BRANCH  11  14
ATOM     14  C   LIG    1       31.488 -18.506   9.490  0.00  0.00    +0.185 C 
BRANCH  14  15
ATOM     15  C   LIG    1       30.471 -17.821  10.405  0.00  0.00    +0.024 C 
BRANCH  15  17
ATOM     16  C   LIG    1       31.857 -16.642  12.173  0.00  0.00    +0.004 C 
ATOM     17  C   LIG    1       30.965 -16.468  10.948  0.00  0.00    -0.002 C 
ENDBRANCH  15  17
ENDBRANCH  14  15
ENDBRANCH  11  14
ENDBRANCH   9  11
ENDBRANCH   8   9
BRANCH   8  18
ATOM     18  C   LIG    1       28.435 -19.503   5.894  0.00  0.00    +0.324 C 
ATOM     19  O   LIG    1       29.118 -18.601   5.461  0.00  0.00    -0.249 OA
BRANCH  18  20
ATOM     20  O   LIG    1       27.729 -20.325   5.012  0.00  0.00    -0.479 OA
ATOM     21  H   LIG    1       27.969 -21.309   4.959  0.00  0.00    +0.295 HD
ENDBRANCH  18  20
ENDBRANCH   8  18
ENDBRANCH   7   8
ENDBRANCH   1   7
BRANCH   4  22
ATOM     22  O   LIG    1       23.768 -24.612   6.123  0.00  0.00    -0.492 OA
BRANCH  22  23
ATOM     23  C   LIG    1       24.341 -25.765   5.471  0.00  0.00    +0.229 C 
BRANCH  23  24
ATOM     24  C   LIG    1       24.421 -26.999   6.384  0.00  0.00    +0.041 C 
BRANCH  24  25
ATOM     25  C   LIG    1       24.555 -28.367   5.673  0.00  0.00    +0.003 C 
BRANCH  25  26
ATOM     26  C   LIG    1       24.869 -29.618   6.539  0.00  0.00    +0.004 C 
BRANCH  26  27
ATOM     27  C   LIG    1       24.737 -29.319   8.076  0.00  0.00    -0.008 C 
ATOM     28  C   LIG    1       23.824 -30.274   8.874  0.00  0.00    +0.018 C 
ATOM     29  C   LIG    1       24.481 -31.586   9.315  0.00  0.00    +0.081 C 
ATOM     30  N   LIG    1       25.721 -31.364  10.053  0.00  0.00    -0.316 NA
ATOM     31  H   LIG    1       25.496 -30.914  10.942  0.00  0.00    +0.122 HD
ATOM     32  C   LIG    1       26.655 -30.531   9.295  0.00  0.00    +0.081 C 
ATOM     33  C   LIG    1       26.055 -29.186   8.873  0.00  0.00    +0.018 C 
ENDBRANCH  26  27
ENDBRANCH  25  26
ENDBRANCH  24  25
ENDBRANCH  23  24
ENDBRANCH  22  23
ENDBRANCH   4  22
TORSDOF 15
ENDMDL
MODEL 6
REMARK VINA RESULT:      -8.2      4.400      7.283
REMARK  Name = *****
REMARK                            x       y       z     vdW  Elec       q    Type
REMARK                         _______ _______ _______ _____ _____    ______ ____
ROOT
ATOM      1  C   LIG    1       25.456 -24.161   6.915  0.00  0.00    -0.045 A 
ATOM      2  C   LIG    1       24.111 -24.277   6.566  0.00  0.00    +0.007 A 
ATOM      3  C   LIG    1       23.609 -25.501   6.083  0.00  0.00    +0.046 A 
ATOM      4  C   LIG    1       24.456 -26.574   5.823  0.00  0.00    +0.120 A 
ATOM      5  C   LIG    1       25.832 -26.326   5.842  0.00  0.00    +0.046 A 
ATOM      6  C   LIG    1       26.324 -25.148   6.422  0.00  0.00    +0.007 A 
ENDROOT
BRANCH   1   7
ATOM      7  C   LIG    1       26.038 -23.057   7.789  0.00  0.00    +0.067 C 
BRANCH   7   8
ATOM      8  C   LIG    1       25.996 -21.559   7.351  0.00  0.00    +0.189 C 
BRANCH   8   9
ATOM      9  N   LIG    1       26.280 -21.344   5.880  0.00  0.00    -0.180 NA
ATOM     10  H   LIG    1       26.831 -22.110   5.474  0.00  0.00    +0.148 HD
BRANCH   9  11
ATOM     11  S   LIG    1       25.135 -20.744   4.808  0.00  0.00    +0.030 S 
ATOM     12  O   LIG    1       25.673 -19.593   4.190  0.00  0.00    -0.158 OA
ATOM     13  O   LIG    1       24.673 -21.913   4.048  0.00  0.00    -0.158 OA
BRANCH  11  14
ATOM     14  C   LIG    1       23.832 -20.290   5.967  0.00  0.00    +0.185 C 
BRANCH  14  15
ATOM     15  C   LIG    1       22.426 -20.719   5.539  0.00  0.00    +0.024 C 
BRANCH  15  17
ATOM     16  C   LIG    1       22.345 -18.357   4.618  0.00  0.00    +0.004 C 
ATOM     17  C   LIG    1       21.801 -19.777   4.496  0.00  0.00    -0.002 C 
ENDBRANCH  15  17
ENDBRANCH  14  15
ENDBRANCH  11  14
ENDBRANCH   9  11
ENDBRANCH   8   9
BRANCH   8  18
ATOM     18  C   LIG    1       26.701 -20.640   8.309  0.00  0.00    +0.324 C 
ATOM     19  O   LIG    1       27.718 -20.004   8.145  0.00  0.00    -0.249 OA
BRANCH  18  20
ATOM     20  O   LIG    1       25.930 -20.436   9.456  0.00  0.00    -0.479 OA
ATOM     21  H   LIG    1       25.427 -21.221   9.856  0.00  0.00    +0.295 HD
ENDBRANCH  18  20
ENDBRANCH   8  18
ENDBRANCH   7   8
ENDBRANCH   1   7
BRANCH   4  22
ATOM     22  O   LIG    1       24.069 -27.853   5.524  0.00  0.00    -0.492 OA
BRANCH  22  23
ATOM     23  C   LIG    1       25.028 -28.931   5.545  0.00  0.00    +0.229 C 
BRANCH  23  24
ATOM     24  C   LIG    1       24.638 -30.071   6.499  0.00  0.00    +0.041 C 
BRANCH  24  25
ATOM     25  C   LIG    1       24.602 -29.718   8.006  0.00  0.00    +0.003 C 
BRANCH  25  26
ATOM     26  C   LIG    1       25.812 -28.957   8.613  0.00  0.00    +0.004 C 
BRANCH  26  27
ATOM     27  C   LIG    1       26.337 -29.638   9.927  0.00  0.00    -0.008 C 
ATOM     28  C   LIG    1       27.356 -28.822  10.751  0.00  0.00    +0.018 C 
ATOM     29  C   LIG    1       26.745 -27.775  11.689  0.00  0.00    +0.081 C 
ATOM     30  N   LIG    1       25.742 -28.350  12.581  0.00  0.00    -0.316 NA
ATOM     31  H   LIG    1       26.208 -28.988  13.228  0.00  0.00    +0.122 HD
ATOM     32  C   LIG    1       24.706 -29.064  11.835  0.00  0.00    +0.081 C 
ATOM     33  C   LIG    1       25.269 -30.153  10.918  0.00  0.00    +0.018 C 
ENDBRANCH  26  27
ENDBRANCH  25  26
ENDBRANCH  24  25
ENDBRANCH  23  24
ENDBRANCH  22  23
ENDBRANCH   4  22
TORSDOF 15
ENDMDL
MODEL 7
REMARK VINA RESULT:      -8.1      4.476     10.791
REMARK  Name = *****
REMARK                            x       y       z     vdW  Elec       q    Type
REMARK                         _______ _______ _______ _____ _____    ______ ____
ROOT
ATOM      1  C   LIG    1       24.900 -25.625   6.421  0.00  0.00    -0.045 A 
ATOM      2  C   LIG    1       23.598 -25.126   6.411  0.00  0.00    +0.007 A 
ATOM      3  C   LIG    1       23.368 -23.748   6.589  0.00  0.00    +0.046 A 
ATOM      4  C   LIG    1       24.407 -22.879   6.905  0.00  0.00    +0.120 A 
ATOM      5  C   LIG    1       25.635 -23.448   7.258  0.00  0.00    +0.046 A 
ATOM      6  C   LIG    1       25.889 -24.798   6.977  0.00  0.00    +0.007 A 
ENDROOT
BRANCH   1   7
ATOM      7  C   LIG    1       25.318 -26.983   5.871  0.00  0.00    +0.067 C 
BRANCH   7   8
ATOM      8  C   LIG    1       24.832 -28.315   6.523  0.00  0.00    +0.189 C 
BRANCH   8   9
ATOM      9  N   LIG    1       25.617 -28.714   7.754  0.00  0.00    -0.180 NA
ATOM     10  H   LIG    1       26.086 -27.914   8.194  0.00  0.00    +0.148 HD
BRANCH   9  11
ATOM     11  S   LIG    1       25.044 -29.817   8.885  0.00  0.00    +0.030 S 
ATOM     12  O   LIG    1       25.515 -29.424  10.158  0.00  0.00    -0.158 OA
ATOM     13  O   LIG    1       23.617 -29.972   8.577  0.00  0.00    -0.158 OA
BRANCH  11  14
ATOM     14  C   LIG    1       25.893 -31.305   8.326  0.00  0.00    +0.185 C 
BRANCH  14  15
ATOM     15  C   LIG    1       25.005 -32.549   8.246  0.00  0.00    +0.024 C 
BRANCH  15  17
ATOM     16  C   LIG    1       23.264 -33.031   6.465  0.00  0.00    +0.004 C 
ATOM     17  C   LIG    1       24.752 -33.015   6.802  0.00  0.00    -0.002 C 
ENDBRANCH  15  17
ENDBRANCH  14  15
ENDBRANCH  11  14
ENDBRANCH   9  11
ENDBRANCH   8   9
BRANCH   8  18
ATOM     18  C   LIG    1       24.561 -29.402   5.522  0.00  0.00    +0.324 C 
ATOM     19  O   LIG    1       25.349 -30.111   4.935  0.00  0.00    -0.249 OA
BRANCH  18  20
ATOM     20  O   LIG    1       23.191 -29.663   5.434  0.00  0.00    -0.479 OA
ATOM     21  H   LIG    1       22.616 -29.552   6.262  0.00  0.00    +0.295 HD
ENDBRANCH  18  20
ENDBRANCH   8  18
ENDBRANCH   7   8
ENDBRANCH   1   7
BRANCH   4  22
ATOM     22  O   LIG    1       24.336 -21.512   6.928  0.00  0.00    -0.492 OA
BRANCH  22  23
ATOM     23  C   LIG    1       25.537 -20.717   6.840  0.00  0.00    +0.229 C 
BRANCH  23  24
ATOM     24  C   LIG    1       26.157 -20.402   8.211  0.00  0.00    +0.041 C 
BRANCH  24  25
ATOM     25  C   LIG    1       27.704 -20.388   8.274  0.00  0.00    +0.003 C 
BRANCH  25  26
ATOM     26  C   LIG    1       28.481 -19.680   7.131  0.00  0.00    +0.004 C 
BRANCH  26  27
ATOM     27  C   LIG    1       29.940 -20.243   6.974  0.00  0.00    -0.008 C 
ATOM     28  C   LIG    1       31.058 -19.190   6.828  0.00  0.00    +0.018 C 
ATOM     29  C   LIG    1       31.567 -18.592   8.144  0.00  0.00    +0.081 C 
ATOM     30  N   LIG    1       31.984 -19.619   9.094  0.00  0.00    -0.316 NA
ATOM     31  H   LIG    1       32.812 -20.089   8.725  0.00  0.00    +0.122 HD
ATOM     32  C   LIG    1       30.920 -20.596   9.329  0.00  0.00    +0.081 C 
ATOM     33  C   LIG    1       30.412 -21.254   8.043  0.00  0.00    +0.018 C 
ENDBRANCH  26  27
ENDBRANCH  25  26
ENDBRANCH  24  25
ENDBRANCH  23  24
ENDBRANCH  22  23
ENDBRANCH   4  22
TORSDOF 15
ENDMDL
MODEL 8
REMARK VINA RESULT:      -8.1      4.410     10.209
REMARK  Name = *****
REMARK                            x       y       z     vdW  Elec       q    Type
REMARK                         _______ _______ _______ _____ _____    ______ ____
ROOT
ATOM      1  C   LIG    1       24.779 -25.590   6.689  0.00  0.00    -0.045 A 
ATOM      2  C   LIG    1       25.915 -24.867   7.053  0.00  0.00    +0.007 A 
ATOM      3  C   LIG    1       25.802 -23.512   7.419  0.00  0.00    +0.046 A 
ATOM      4  C   LIG    1       24.593 -22.833   7.306  0.00  0.00    +0.120 A 
ATOM      5  C   LIG    1       23.561 -23.472   6.611  0.00  0.00    +0.046 A 
ATOM      6  C   LIG    1       23.639 -24.846   6.346  0.00  0.00    +0.007 A 
ENDROOT
BRANCH   1   7
ATOM      7  C   LIG    1       24.690 -27.111   6.648  0.00  0.00    +0.067 C 
BRANCH   7   8
ATOM      8  C   LIG    1       25.255 -27.932   5.446  0.00  0.00    +0.189 C 
BRANCH   8   9
ATOM      9  N   LIG    1       25.708 -29.327   5.819  0.00  0.00    -0.180 NA
ATOM     10  H   LIG    1       26.543 -29.319   6.416  0.00  0.00    +0.148 HD
BRANCH   9  11
ATOM     11  S   LIG    1       24.637 -30.552   6.236  0.00  0.00    +0.030 S 
ATOM     12  O   LIG    1       23.327 -30.106   5.952  0.00  0.00    -0.158 OA
ATOM     13  O   LIG    1       25.207 -31.773   5.652  0.00  0.00    -0.158 OA
BRANCH  11  14
ATOM     14  C   LIG    1       24.913 -30.613   8.016  0.00  0.00    +0.185 C 
BRANCH  14  15
ATOM     15  C   LIG    1       26.173 -29.881   8.487  0.00  0.00    +0.024 C 
BRANCH  15  17
ATOM     16  C   LIG    1       27.253 -29.749  10.779  0.00  0.00    +0.004 C 
ATOM     17  C   LIG    1       26.937 -30.644   9.584  0.00  0.00    -0.002 C 
ENDBRANCH  15  17
ENDBRANCH  14  15
ENDBRANCH  11  14
ENDBRANCH   9  11
ENDBRANCH   8   9
BRANCH   8  18
ATOM     18  C   LIG    1       26.184 -27.139   4.570  0.00  0.00    +0.324 C 
ATOM     19  O   LIG    1       25.915 -26.387   3.659  0.00  0.00    -0.249 OA
BRANCH  18  20
ATOM     20  O   LIG    1       27.498 -27.224   5.037  0.00  0.00    -0.479 OA
ATOM     21  H   LIG    1       27.880 -26.450   5.569  0.00  0.00    +0.295 HD
ENDBRANCH  18  20
ENDBRANCH   8  18
ENDBRANCH   7   8
ENDBRANCH   1   7
BRANCH   4  22
ATOM     22  O   LIG    1       24.322 -21.582   7.791  0.00  0.00    -0.492 OA
BRANCH  22  23
ATOM     23  C   LIG    1       25.365 -20.586   7.866  0.00  0.00    +0.229 C 
BRANCH  23  24
ATOM     24  C   LIG    1       26.085 -20.361   6.527  0.00  0.00    +0.041 C 
BRANCH  24  25
ATOM     25  C   LIG    1       27.633 -20.377   6.573  0.00  0.00    +0.003 C 
BRANCH  25  26
ATOM     26  C   LIG    1       28.336 -19.861   7.858  0.00  0.00    +0.004 C 
BRANCH  26  27
ATOM     27  C   LIG    1       29.651 -19.066   7.530  0.00  0.00    -0.008 C 
ATOM     28  C   LIG    1       30.037 -17.956   8.531  0.00  0.00    +0.018 C 
ATOM     29  C   LIG    1       30.788 -18.435   9.778  0.00  0.00    +0.081 C 
ATOM     30  N   LIG    1       31.970 -19.224   9.443  0.00  0.00    -0.316 NA
ATOM     31  H   LIG    1       32.652 -18.615   8.990  0.00  0.00    +0.122 HD
ATOM     32  C   LIG    1       31.637 -20.342   8.561  0.00  0.00    +0.081 C 
ATOM     33  C   LIG    1       30.925 -19.905   7.277  0.00  0.00    +0.018 C 
ENDBRANCH  26  27
ENDBRANCH  25  26
ENDBRANCH  24  25
ENDBRANCH  23  24
ENDBRANCH  22  23
ENDBRANCH   4  22
TORSDOF 15
ENDMDL
MODEL 9
REMARK VINA RESULT:      -8.1      4.244      7.006
REMARK  Name = *****
REMARK                            x       y       z     vdW  Elec       q    Type
REMARK                         _______ _______ _______ _____ _____    ______ ____
ROOT
ATOM      1  C   LIG    1       25.073 -22.839   7.307  0.00  0.00    -0.045 A 
ATOM      2  C   LIG    1       26.016 -23.866   7.283  0.00  0.00    +0.007 A 
ATOM      3  C   LIG    1       25.710 -25.093   6.663  0.00  0.00    +0.046 A 
ATOM      4  C   LIG    1       24.433 -25.356   6.179  0.00  0.00    +0.120 A 
ATOM      5  C   LIG    1       23.416 -24.460   6.527  0.00  0.00    +0.046 A 
ATOM      6  C   LIG    1       23.741 -23.198   7.046  0.00  0.00    +0.007 A 
ENDROOT
BRANCH   1   7
ATOM      7  C   LIG    1       25.385 -21.374   7.586  0.00  0.00    +0.067 C 
BRANCH   7   8
ATOM      8  C   LIG    1       26.251 -20.521   6.606  0.00  0.00    +0.189 C 
BRANCH   8   9
ATOM      9  N   LIG    1       26.055 -20.878   5.149  0.00  0.00    -0.180 NA
ATOM     10  H   LIG    1       26.130 -21.888   4.982  0.00  0.00    +0.148 HD
BRANCH   9  11
ATOM     11  S   LIG    1       24.886 -20.157   4.181  0.00  0.00    +0.030 S 
ATOM     12  O   LIG    1       25.419 -18.949   3.676  0.00  0.00    -0.158 OA
ATOM     13  O   LIG    1       24.390 -21.233   3.314  0.00  0.00    -0.158 OA
BRANCH  11  14
ATOM     14  C   LIG    1       23.621 -19.821   5.421  0.00  0.00    +0.185 C 
BRANCH  14  15
ATOM     15  C   LIG    1       22.184 -19.975   4.916  0.00  0.00    +0.024 C 
BRANCH  15  17
ATOM     16  C   LIG    1       22.278 -17.458   4.613  0.00  0.00    +0.004 C 
ATOM     17  C   LIG    1       21.706 -18.770   4.087  0.00  0.00    -0.002 C 
ENDBRANCH  15  17
ENDBRANCH  14  15
ENDBRANCH  11  14
ENDBRANCH   9  11
ENDBRANCH   8   9
BRANCH   8  18
ATOM     18  C   LIG    1       27.670 -20.345   7.067  0.00  0.00    +0.324 C 
ATOM     19  O   LIG    1       28.080 -19.931   8.129  0.00  0.00    -0.249 OA
BRANCH  18  20
ATOM     20  O   LIG    1       28.562 -20.900   6.146  0.00  0.00    -0.479 OA
ATOM     21  H   LIG    1       29.472 -21.209   6.469  0.00  0.00    +0.295 HD
ENDBRANCH  18  20
ENDBRANCH   8  18
ENDBRANCH   7   8
ENDBRANCH   1   7
BRANCH   4  22
ATOM     22  O   LIG    1       24.066 -26.428   5.410  0.00  0.00    -0.492 OA
BRANCH  22  23
ATOM     23  C   LIG    1       24.893 -27.610   5.363  0.00  0.00    +0.229 C 
BRANCH  23  24
ATOM     24  C   LIG    1       24.197 -28.858   5.929  0.00  0.00    +0.041 C 
BRANCH  24  25
ATOM     25  C   LIG    1       25.060 -30.140   6.021  0.00  0.00    +0.003 C 
BRANCH  25  26
ATOM     26  C   LIG    1       25.539 -30.605   7.423  0.00  0.00    +0.004 C 
BRANCH  26  27
ATOM     27  C   LIG    1       25.138 -29.587   8.550  0.00  0.00    -0.008 C 
ATOM     28  C   LIG    1       24.272 -30.153   9.696  0.00  0.00    +0.018 C 
ATOM     29  C   LIG    1       25.047 -30.878  10.802  0.00  0.00    +0.081 C 
ATOM     30  N   LIG    1       26.116 -30.054  11.358  0.00  0.00    -0.316 NA
ATOM     31  H   LIG    1       25.697 -29.267  11.855  0.00  0.00    +0.122 HD
ATOM     32  C   LIG    1       27.014 -29.563  10.314  0.00  0.00    +0.081 C 
ATOM     33  C   LIG    1       26.287 -28.791   9.209  0.00  0.00    +0.018 C 
ENDBRANCH  26  27
ENDBRANCH  25  26
ENDBRANCH  24  25
ENDBRANCH  23  24
ENDBRANCH  22  23
ENDBRANCH   4  22
TORSDOF 15
ENDMDL
