MODEL 1
REMARK VINA RESULT:      -9.8      0.000      0.000
REMARK  Name = *****
REMARK                            x       y       z     vdW  Elec       q    Type
REMARK                         _______ _______ _______ _____ _____    ______ ____
ROOT
ATOM      1  C   LIG    1       30.013 -20.340   7.741  0.00  0.00    +0.148 A 
ATOM      2  O   LIG    1       28.874 -21.076   7.890  0.00  0.00    -0.454 OA
ATOM      3  C   LIG    1       27.961 -20.647   6.975  0.00  0.00    +0.136 A 
ATOM      4  C   LIG    1       28.478 -19.563   6.296  0.00  0.00    +0.050 A 
ATOM      5  C   LIG    1       29.800 -19.369   6.783  0.00  0.00    +0.051 A 
ENDROOT
BRANCH   3   6
ATOM      6  C   LIG    1       26.726 -21.425   6.913  0.00  0.00    +0.018 A 
ATOM      7  C   LIG    1       25.523 -20.844   6.487  0.00  0.00    +0.018 A 
ATOM      8  C   LIG    1       24.348 -21.604   6.421  0.00  0.00    +0.085 A 
ATOM      9  C   LIG    1       24.390 -22.955   6.777  0.00  0.00    +0.273 A 
ATOM     10  C   LIG    1       25.570 -23.566   7.190  0.00  0.00    +0.085 A 
ATOM     11  C   LIG    1       26.728 -22.791   7.261  0.00  0.00    +0.018 A 
BRANCH   9  12
ATOM     12  N   LIG    1       23.173 -23.744   6.729  0.00  0.00    +0.080 N 
ATOM     13  O   LIG    1       23.301 -24.967   6.588  0.00  0.00    -0.576 OA
ATOM     14  O   LIG    1       22.102 -23.132   6.824  0.00  0.00    +0.041 OA
ENDBRANCH   9  12
ENDBRANCH   3   6
BRANCH   1  16
ATOM     15  N   LIG    1       31.835 -19.895   9.362  0.00  0.00    -0.180 NA
ATOM     16  C   LIG    1       31.176 -20.662   8.534  0.00  0.00    +0.176 C 
BRANCH  15  21
ATOM     17  O   LIG    1       30.378 -15.936  11.560  0.00  0.00    -0.272 OA
ATOM     18  C   LIG    1       30.912 -16.708  10.783  0.00  0.00    +0.260 C 
ATOM     19  N   LIG    1       31.642 -16.355   9.658  0.00  0.00    -0.129 NA
ATOM     20  C   LIG    1       31.874 -17.479   9.068  0.00  0.00    +0.295 C 
ATOM     21  N   LIG    1       31.364 -18.631   9.601  0.00  0.00    -0.170 N 
ATOM     22  C   LIG    1       30.833 -18.239  10.909  0.00  0.00    +0.234 C 
BRANCH  20  23
ATOM     23  O   LIG    1       32.601 -17.607   7.955  0.00  0.00    -0.482 OA
ATOM     24  H   LIG    1       33.157 -16.814   7.886  0.00  0.00    +0.295 HD
ENDBRANCH  20  23
ENDBRANCH  15  21
ENDBRANCH   1  16
TORSDOF 5
ENDMDL
MODEL 2
REMARK VINA RESULT:      -8.8      2.488      3.902
REMARK  Name = *****
REMARK                            x       y       z     vdW  Elec       q    Type
REMARK                         _______ _______ _______ _____ _____    ______ ____
ROOT
ATOM      1  C   LIG    1       26.900 -20.758   6.900  0.00  0.00    +0.148 A 
ATOM      2  O   LIG    1       26.741 -22.058   6.516  0.00  0.00    -0.454 OA
ATOM      3  C   LIG    1       25.769 -22.619   7.287  0.00  0.00    +0.136 A 
ATOM      4  C   LIG    1       25.367 -21.708   8.241  0.00  0.00    +0.050 A 
ATOM      5  C   LIG    1       26.087 -20.508   7.988  0.00  0.00    +0.051 A 
ENDROOT
BRANCH   3   6
ATOM      6  C   LIG    1       25.383 -23.978   6.914  0.00  0.00    +0.018 A 
ATOM      7  C   LIG    1       24.062 -24.286   6.562  0.00  0.00    +0.018 A 
ATOM      8  C   LIG    1       23.707 -25.591   6.194  0.00  0.00    +0.085 A 
ATOM      9  C   LIG    1       24.691 -26.583   6.172  0.00  0.00    +0.273 A 
ATOM     10  C   LIG    1       26.014 -26.308   6.501  0.00  0.00    +0.085 A 
ATOM     11  C   LIG    1       26.347 -25.006   6.877  0.00  0.00    +0.018 A 
BRANCH   9  12
ATOM     12  N   LIG    1       24.327 -27.940   5.810  0.00  0.00    +0.080 N 
ATOM     13  O   LIG    1       23.758 -28.620   6.675  0.00  0.00    -0.576 OA
ATOM     14  O   LIG    1       24.622 -28.317   4.669  0.00  0.00    +0.041 OA
ENDBRANCH   9  12
ENDBRANCH   3   6
BRANCH   1  16
ATOM     15  N   LIG    1       28.998 -19.495   6.523  0.00  0.00    -0.180 NA
ATOM     16  C   LIG    1       27.809 -19.907   6.171  0.00  0.00    +0.176 C 
BRANCH  15  21
ATOM     17  O   LIG    1       31.363 -22.109   9.717  0.00  0.00    -0.272 OA
ATOM     18  C   LIG    1       30.903 -21.171   9.091  0.00  0.00    +0.260 C 
ATOM     19  N   LIG    1       31.060 -19.829   9.403  0.00  0.00    -0.129 NA
ATOM     20  C   LIG    1       30.285 -19.219   8.572  0.00  0.00    +0.295 C 
ATOM     21  N   LIG    1       29.531 -19.955   7.698  0.00  0.00    -0.170 N 
ATOM     22  C   LIG    1       30.023 -21.328   7.838  0.00  0.00    +0.234 C 
BRANCH  20  23
ATOM     23  O   LIG    1       30.167 -17.892   8.489  0.00  0.00    -0.482 OA
ATOM     24  H   LIG    1       29.565 -17.615   9.200  0.00  0.00    +0.295 HD
ENDBRANCH  20  23
ENDBRANCH  15  21
ENDBRANCH   1  16
TORSDOF 5
ENDMDL
MODEL 3
REMARK VINA RESULT:      -8.7      2.419      8.517
REMARK  Name = *****
REMARK                            x       y       z     vdW  Elec       q    Type
REMARK                         _______ _______ _______ _____ _____    ______ ____
ROOT
ATOM      1  C   LIG    1       24.492 -22.134   6.273  0.00  0.00    +0.148 A 
ATOM      2  O   LIG    1       25.745 -21.989   6.795  0.00  0.00    -0.454 OA
ATOM      3  C   LIG    1       26.380 -20.990   6.122  0.00  0.00    +0.136 A 
ATOM      4  C   LIG    1       25.570 -20.553   5.094  0.00  0.00    +0.050 A 
ATOM      5  C   LIG    1       24.353 -21.282   5.196  0.00  0.00    +0.051 A 
ENDROOT
BRANCH   3   6
ATOM      6  C   LIG    1       27.691 -20.618   6.648  0.00  0.00    +0.018 A 
ATOM      7  C   LIG    1       28.288 -21.345   7.687  0.00  0.00    +0.018 A 
ATOM      8  C   LIG    1       29.552 -20.985   8.174  0.00  0.00    +0.085 A 
ATOM      9  C   LIG    1       30.217 -19.896   7.604  0.00  0.00    +0.273 A 
ATOM     10  C   LIG    1       29.658 -19.163   6.562  0.00  0.00    +0.085 A 
ATOM     11  C   LIG    1       28.394 -19.528   6.098  0.00  0.00    +0.018 A 
BRANCH   9  12
ATOM     12  N   LIG    1       31.517 -19.505   8.116  0.00  0.00    +0.080 N 
ATOM     13  O   LIG    1       31.974 -20.169   9.056  0.00  0.00    -0.576 OA
ATOM     14  O   LIG    1       32.065 -18.534   7.579  0.00  0.00    +0.041 OA
ENDBRANCH   9  12
ENDBRANCH   3   6
BRANCH   1  16
ATOM     15  N   LIG    1       23.580 -24.375   6.810  0.00  0.00    -0.180 NA
ATOM     16  C   LIG    1       23.574 -23.070   6.877  0.00  0.00    +0.176 C 
BRANCH  15  21
ATOM     17  O   LIG    1       27.675 -26.602   5.863  0.00  0.00    -0.272 OA
ATOM     18  C   LIG    1       26.503 -26.271   5.865  0.00  0.00    +0.260 C 
ATOM     19  N   LIG    1       25.506 -26.801   5.060  0.00  0.00    -0.129 NA
ATOM     20  C   LIG    1       24.481 -26.052   5.292  0.00  0.00    +0.295 C 
ATOM     21  N   LIG    1       24.610 -24.993   6.150  0.00  0.00    -0.170 N 
ATOM     22  C   LIG    1       25.930 -25.160   6.762  0.00  0.00    +0.234 C 
BRANCH  20  23
ATOM     23  O   LIG    1       23.274 -26.242   4.755  0.00  0.00    -0.482 OA
ATOM     24  H   LIG    1       22.865 -26.983   5.231  0.00  0.00    +0.295 HD
ENDBRANCH  20  23
ENDBRANCH  15  21
ENDBRANCH   1  16
TORSDOF 5
ENDMDL
MODEL 4
REMARK VINA RESULT:      -8.7      2.404      7.759
REMARK  Name = *****
REMARK                            x       y       z     vdW  Elec       q    Type
REMARK                         _______ _______ _______ _____ _____    ______ ____
ROOT
ATOM      1  C   LIG    1       24.460 -20.539   5.527  0.00  0.00    +0.148 A 
ATOM      2  O   LIG    1       25.613 -20.522   6.258  0.00  0.00    -0.454 OA
ATOM      3  C   LIG    1       26.619 -20.058   5.465  0.00  0.00    +0.136 A 
ATOM      4  C   LIG    1       26.134 -19.867   4.187  0.00  0.00    +0.050 A 
ATOM      5  C   LIG    1       24.745 -20.168   4.228  0.00  0.00    +0.051 A 
ENDROOT
BRANCH   3   6
ATOM      6  C   LIG    1       27.899 -19.853   6.137  0.00  0.00    +0.018 A 
ATOM      7  C   LIG    1       28.834 -18.928   5.651  0.00  0.00    +0.018 A 
ATOM      8  C   LIG    1       30.054 -18.732   6.312  0.00  0.00    +0.085 A 
ATOM      9  C   LIG    1       30.326 -19.464   7.470  0.00  0.00    +0.273 A 
ATOM     10  C   LIG    1       29.414 -20.379   7.987  0.00  0.00    +0.085 A 
ATOM     11  C   LIG    1       28.210 -20.570   7.310  0.00  0.00    +0.018 A 
BRANCH   9  12
ATOM     12  N   LIG    1       31.595 -19.280   8.150  0.00  0.00    +0.080 N 
ATOM     13  O   LIG    1       31.916 -20.138   8.983  0.00  0.00    -0.576 OA
ATOM     14  O   LIG    1       32.254 -18.277   7.850  0.00  0.00    +0.041 OA
ENDBRANCH   9  12
ENDBRANCH   3   6
BRANCH   1  16
ATOM     15  N   LIG    1       22.920 -22.009   6.795  0.00  0.00    -0.180 NA
ATOM     16  C   LIG    1       23.219 -20.902   6.168  0.00  0.00    +0.176 C 
BRANCH  15  21
ATOM     17  O   LIG    1       26.279 -25.261   5.918  0.00  0.00    -0.272 OA
ATOM     18  C   LIG    1       25.658 -24.328   6.393  0.00  0.00    +0.260 C 
ATOM     19  N   LIG    1       26.047 -23.562   7.483  0.00  0.00    -0.129 NA
ATOM     20  C   LIG    1       25.025 -22.810   7.720  0.00  0.00    +0.295 C 
ATOM     21  N   LIG    1       23.898 -22.956   6.958  0.00  0.00    -0.170 N 
ATOM     22  C   LIG    1       24.289 -23.857   5.872  0.00  0.00    +0.234 C 
BRANCH  20  23
ATOM     23  O   LIG    1       24.988 -21.871   8.668  0.00  0.00    -0.482 OA
ATOM     24  H   LIG    1       24.515 -22.252   9.426  0.00  0.00    +0.295 HD
ENDBRANCH  20  23
ENDBRANCH  15  21
ENDBRANCH   1  16
TORSDOF 5
ENDMDL
MODEL 5
REMARK VINA RESULT:      -8.7      1.915      2.431
REMARK  Name = *****
REMARK                            x       y       z     vdW  Elec       q    Type
REMARK                         _______ _______ _______ _____ _____    ______ ____
ROOT
ATOM      1  C   LIG    1       30.979 -19.561   7.897  0.00  0.00    +0.148 A 
ATOM      2  O   LIG    1       29.727 -19.547   7.354  0.00  0.00    -0.454 OA
ATOM      3  C   LIG    1       29.028 -20.603   7.856  0.00  0.00    +0.136 A 
ATOM      4  C   LIG    1       29.864 -21.359   8.652  0.00  0.00    +0.050 A 
ATOM      5  C   LIG    1       31.116 -20.686   8.686  0.00  0.00    +0.051 A 
ENDROOT
BRANCH   3   6
ATOM      6  C   LIG    1       27.619 -20.657   7.474  0.00  0.00    +0.018 A 
ATOM      7  C   LIG    1       26.620 -20.919   8.422  0.00  0.00    +0.018 A 
ATOM      8  C   LIG    1       25.272 -20.957   8.045  0.00  0.00    +0.085 A 
ATOM      9  C   LIG    1       24.931 -20.720   6.711  0.00  0.00    +0.273 A 
ATOM     10  C   LIG    1       25.896 -20.443   5.748  0.00  0.00    +0.085 A 
ATOM     11  C   LIG    1       27.235 -20.421   6.139  0.00  0.00    +0.018 A 
BRANCH   9  12
ATOM     12  N   LIG    1       23.538 -20.776   6.309  0.00  0.00    +0.080 N 
ATOM     13  O   LIG    1       22.859 -21.707   6.761  0.00  0.00    -0.576 OA
ATOM     14  O   LIG    1       23.138 -19.894   5.538  0.00  0.00    +0.041 OA
ENDBRANCH   9  12
ENDBRANCH   3   6
BRANCH   1  16
ATOM     15  N   LIG    1       32.238 -17.476   8.355  0.00  0.00    -0.180 NA
ATOM     16  C   LIG    1       31.894 -18.485   7.599  0.00  0.00    +0.176 C 
BRANCH  15  21
ATOM     17  O   LIG    1       31.822 -16.641  13.020  0.00  0.00    -0.272 OA
ATOM     18  C   LIG    1       31.585 -16.745  11.830  0.00  0.00    +0.260 C 
ATOM     19  N   LIG    1       30.358 -16.522  11.222  0.00  0.00    -0.129 NA
ATOM     20  C   LIG    1       30.538 -16.899  10.001  0.00  0.00    +0.295 C 
ATOM     21  N   LIG    1       31.751 -17.419   9.635  0.00  0.00    -0.170 N 
ATOM     22  C   LIG    1       32.626 -17.183  10.785  0.00  0.00    +0.234 C 
BRANCH  20  23
ATOM     23  O   LIG    1       29.614 -16.808   9.042  0.00  0.00    -0.482 OA
ATOM     24  H   LIG    1       28.754 -16.717   9.484  0.00  0.00    +0.295 HD
ENDBRANCH  20  23
ENDBRANCH  15  21
ENDBRANCH   1  16
TORSDOF 5
ENDMDL
MODEL 6
REMARK VINA RESULT:      -8.4      5.514     10.259
REMARK  Name = *****
REMARK                            x       y       z     vdW  Elec       q    Type
REMARK                         _______ _______ _______ _____ _____    ______ ____
ROOT
ATOM      1  C   LIG    1       24.530 -28.585   5.794  0.00  0.00    +0.148 A 
ATOM      2  O   LIG    1       24.312 -27.400   6.436  0.00  0.00    -0.454 OA
ATOM      3  C   LIG    1       25.158 -26.468   5.917  0.00  0.00    +0.136 A 
ATOM      4  C   LIG    1       25.996 -27.076   5.006  0.00  0.00    +0.050 A 
ATOM      5  C   LIG    1       25.588 -28.435   4.920  0.00  0.00    +0.051 A 
ENDROOT
BRANCH   3   6
ATOM      6  C   LIG    1       24.960 -25.105   6.406  0.00  0.00    +0.018 A 
ATOM      7  C   LIG    1       26.043 -24.324   6.834  0.00  0.00    +0.018 A 
ATOM      8  C   LIG    1       25.841 -23.014   7.289  0.00  0.00    +0.085 A 
ATOM      9  C   LIG    1       24.546 -22.490   7.304  0.00  0.00    +0.273 A 
ATOM     10  C   LIG    1       23.452 -23.234   6.873  0.00  0.00    +0.085 A 
ATOM     11  C   LIG    1       23.670 -24.540   6.434  0.00  0.00    +0.018 A 
BRANCH   9  12
ATOM     12  N   LIG    1       24.327 -21.142   7.792  0.00  0.00    +0.080 N 
ATOM     13  O   LIG    1       25.218 -20.646   8.494  0.00  0.00    -0.576 OA
ATOM     14  O   LIG    1       23.263 -20.594   7.476  0.00  0.00    +0.041 OA
ENDBRANCH   9  12
ENDBRANCH   3   6
BRANCH   1  16
ATOM     15  N   LIG    1       23.977 -30.782   6.799  0.00  0.00    -0.180 NA
ATOM     16  C   LIG    1       23.690 -29.720   6.093  0.00  0.00    +0.176 C 
BRANCH  15  21
ATOM     17  O   LIG    1       27.372 -30.999  10.124  0.00  0.00    -0.272 OA
ATOM     18  C   LIG    1       26.716 -31.187   9.115  0.00  0.00    +0.260 C 
ATOM     19  N   LIG    1       27.075 -32.002   8.051  0.00  0.00    -0.129 NA
ATOM     20  C   LIG    1       26.171 -31.774   7.160  0.00  0.00    +0.295 C 
ATOM     21  N   LIG    1       25.197 -30.848   7.419  0.00  0.00    -0.170 N 
ATOM     22  C   LIG    1       25.364 -30.509   8.834  0.00  0.00    +0.234 C 
BRANCH  20  23
ATOM     23  O   LIG    1       26.105 -32.395   5.980  0.00  0.00    -0.482 OA
ATOM     24  H   LIG    1       26.950 -32.237   5.528  0.00  0.00    +0.295 HD
ENDBRANCH  20  23
ENDBRANCH  15  21
ENDBRANCH   1  16
TORSDOF 5
ENDMDL
MODEL 7
REMARK VINA RESULT:      -8.4      2.172      2.796
REMARK  Name = *****
REMARK                            x       y       z     vdW  Elec       q    Type
REMARK                         _______ _______ _______ _____ _____    ______ ____
ROOT
ATOM      1  C   LIG    1       29.557 -20.224   6.906  0.00  0.00    +0.148 A 
ATOM      2  O   LIG    1       28.382 -20.111   6.221  0.00  0.00    -0.454 OA
ATOM      3  C   LIG    1       27.401 -20.718   6.945  0.00  0.00    +0.136 A 
ATOM      4  C   LIG    1       27.963 -21.312   8.057  0.00  0.00    +0.050 A 
ATOM      5  C   LIG    1       29.348 -20.988   8.036  0.00  0.00    +0.051 A 
ENDROOT
BRANCH   3   6
ATOM      6  C   LIG    1       26.049 -20.571   6.411  0.00  0.00    +0.018 A 
ATOM      7  C   LIG    1       24.923 -20.775   7.221  0.00  0.00    +0.018 A 
ATOM      8  C   LIG    1       23.632 -20.619   6.699  0.00  0.00    +0.085 A 
ATOM      9  C   LIG    1       23.479 -20.248   5.361  0.00  0.00    +0.273 A 
ATOM     10  C   LIG    1       24.575 -20.024   4.534  0.00  0.00    +0.085 A 
ATOM     11  C   LIG    1       25.853 -20.196   5.067  0.00  0.00    +0.018 A 
BRANCH   9  12
ATOM     12  N   LIG    1       22.145 -20.103   4.809  0.00  0.00    +0.080 N 
ATOM     13  O   LIG    1       21.830 -18.983   4.386  0.00  0.00    -0.576 OA
ATOM     14  O   LIG    1       21.422 -21.108   4.811  0.00  0.00    +0.041 OA
ENDBRANCH   9  12
ENDBRANCH   3   6
BRANCH   1  16
ATOM     15  N   LIG    1       31.540 -18.741   7.005  0.00  0.00    -0.180 NA
ATOM     16  C   LIG    1       30.742 -19.577   6.395  0.00  0.00    +0.176 C 
BRANCH  15  21
ATOM     17  O   LIG    1       29.458 -17.379  11.060  0.00  0.00    -0.272 OA
ATOM     18  C   LIG    1       30.109 -17.995  10.235  0.00  0.00    +0.260 C 
ATOM     19  N   LIG    1       30.881 -19.121  10.481  0.00  0.00    -0.129 NA
ATOM     20  C   LIG    1       31.499 -19.329   9.368  0.00  0.00    +0.295 C 
ATOM     21  N   LIG    1       31.310 -18.460   8.327  0.00  0.00    -0.170 N 
ATOM     22  C   LIG    1       30.209 -17.593   8.753  0.00  0.00    +0.234 C 
BRANCH  20  23
ATOM     23  O   LIG    1       32.321 -20.357   9.145  0.00  0.00    -0.482 OA
ATOM     24  H   LIG    1       31.793 -21.167   9.235  0.00  0.00    +0.295 HD
ENDBRANCH  20  23
ENDBRANCH  15  21
ENDBRANCH   1  16
TORSDOF 5
ENDMDL
MODEL 8
REMARK VINA RESULT:      -7.9      2.414      7.442
REMARK  Name = *****
REMARK                            x       y       z     vdW  Elec       q    Type
REMARK                         _______ _______ _______ _____ _____    ______ ____
ROOT
ATOM      1  C   LIG    1       25.478 -19.594   4.122  0.00  0.00    +0.148 A 
ATOM      2  O   LIG    1       26.441 -20.061   4.969  0.00  0.00    -0.454 OA
ATOM      3  C   LIG    1       27.467 -19.165   4.990  0.00  0.00    +0.136 A 
ATOM      4  C   LIG    1       27.210 -18.163   4.077  0.00  0.00    +0.050 A 
ATOM      5  C   LIG    1       25.927 -18.434   3.525  0.00  0.00    +0.051 A 
ENDROOT
BRANCH   3   6
ATOM      6  C   LIG    1       28.527 -19.451   5.954  0.00  0.00    +0.018 A 
ATOM      7  C   LIG    1       29.609 -18.576   6.124  0.00  0.00    +0.018 A 
ATOM      8  C   LIG    1       30.612 -18.857   7.060  0.00  0.00    +0.085 A 
ATOM      9  C   LIG    1       30.518 -20.018   7.832  0.00  0.00    +0.273 A 
ATOM     10  C   LIG    1       29.450 -20.899   7.699  0.00  0.00    +0.085 A 
ATOM     11  C   LIG    1       28.466 -20.610   6.753  0.00  0.00    +0.018 A 
BRANCH   9  12
ATOM     12  N   LIG    1       31.563 -20.325   8.791  0.00  0.00    +0.080 N 
ATOM     13  O   LIG    1       32.163 -19.366   9.295  0.00  0.00    -0.576 OA
ATOM     14  O   LIG    1       31.781 -21.521   9.023  0.00  0.00    +0.041 OA
ENDBRANCH   9  12
ENDBRANCH   3   6
BRANCH   1  16
ATOM     15  N   LIG    1       23.796 -21.315   4.714  0.00  0.00    -0.180 NA
ATOM     16  C   LIG    1       24.235 -20.317   3.994  0.00  0.00    +0.176 C 
BRANCH  15  21
ATOM     17  O   LIG    1       25.325 -22.052   9.157  0.00  0.00    -0.272 OA
ATOM     18  C   LIG    1       25.034 -22.208   7.985  0.00  0.00    +0.260 C 
ATOM     19  N   LIG    1       25.262 -23.353   7.235  0.00  0.00    -0.129 NA
ATOM     20  C   LIG    1       24.941 -23.011   6.033  0.00  0.00    +0.295 C 
ATOM     21  N   LIG    1       24.539 -21.726   5.789  0.00  0.00    -0.170 N 
ATOM     22  C   LIG    1       24.381 -21.121   7.114  0.00  0.00    +0.234 C 
BRANCH  20  23
ATOM     23  O   LIG    1       24.962 -23.838   4.986  0.00  0.00    -0.482 OA
ATOM     24  H   LIG    1       25.264 -23.321   4.221  0.00  0.00    +0.295 HD
ENDBRANCH  20  23
ENDBRANCH  15  21
ENDBRANCH   1  16
TORSDOF 5
ENDMDL
MODEL 9
REMARK VINA RESULT:      -7.9      5.922     11.001
REMARK  Name = *****
REMARK                            x       y       z     vdW  Elec       q    Type
REMARK                         _______ _______ _______ _____ _____    ______ ____
ROOT
ATOM      1  C   LIG    1       24.477 -28.836   5.905  0.00  0.00    +0.148 A 
ATOM      2  O   LIG    1       24.237 -27.622   6.481  0.00  0.00    -0.454 OA
ATOM      3  C   LIG    1       25.093 -26.712   5.939  0.00  0.00    +0.136 A 
ATOM      4  C   LIG    1       25.957 -27.361   5.081  0.00  0.00    +0.050 A 
ATOM      5  C   LIG    1       25.556 -28.725   5.052  0.00  0.00    +0.051 A 
ENDROOT
BRANCH   3   6
ATOM      6  C   LIG    1       24.878 -25.328   6.354  0.00  0.00    +0.018 A 
ATOM      7  C   LIG    1       23.592 -24.769   6.378  0.00  0.00    +0.018 A 
ATOM      8  C   LIG    1       23.398 -23.445   6.790  0.00  0.00    +0.085 A 
ATOM      9  C   LIG    1       24.502 -22.686   7.187  0.00  0.00    +0.273 A 
ATOM     10  C   LIG    1       25.789 -23.215   7.189  0.00  0.00    +0.085 A 
ATOM     11  C   LIG    1       25.965 -24.532   6.765  0.00  0.00    +0.018 A 
BRANCH   9  12
ATOM     12  N   LIG    1       24.311 -21.307   7.597  0.00  0.00    +0.080 N 
ATOM     13  O   LIG    1       23.403 -20.676   7.041  0.00  0.00    -0.576 OA
ATOM     14  O   LIG    1       25.076 -20.866   8.464  0.00  0.00    +0.041 OA
ENDBRANCH   9  12
ENDBRANCH   3   6
BRANCH   1  16
ATOM     15  N   LIG    1       23.934 -31.231   6.241  0.00  0.00    -0.180 NA
ATOM     16  C   LIG    1       23.633 -29.959   6.238  0.00  0.00    +0.176 C 
BRANCH  15  21
ATOM     17  O   LIG    1       28.315 -33.041   6.637  0.00  0.00    -0.272 OA
ATOM     18  C   LIG    1       27.221 -32.723   6.206  0.00  0.00    +0.260 C 
ATOM     19  N   LIG    1       26.756 -32.947   4.919  0.00  0.00    -0.129 NA
ATOM     20  C   LIG    1       25.634 -32.311   4.874  0.00  0.00    +0.295 C 
ATOM     21  N   LIG    1       25.225 -31.600   5.969  0.00  0.00    -0.170 N 
ATOM     22  C   LIG    1       26.163 -31.970   7.032  0.00  0.00    +0.234 C 
BRANCH  20  23
ATOM     23  O   LIG    1       24.817 -32.303   3.818  0.00  0.00    -0.482 OA
ATOM     24  H   LIG    1       23.909 -32.286   4.162  0.00  0.00    +0.295 HD
ENDBRANCH  20  23
ENDBRANCH  15  21
ENDBRANCH   1  16
TORSDOF 5
ENDMDL
