MODEL 1
REMARK VINA RESULT:      -2.6      0.000      0.000
REMARK  Name = *****
REMARK                            x       y       z     vdW  Elec       q    Type
REMARK                         _______ _______ _______ _____ _____    ______ ____
ROOT
ATOM      1  O   LIG    1       22.936 -18.153   3.833  0.00  0.00    -0.459 OA
ENDROOT
BRANCH   1   2
ATOM      2  C   LIG    1       22.573 -16.979   4.420  0.00  0.00    +0.340 C 
ATOM      3  O   LIG    1       21.570 -16.761   5.046  0.00  0.00    -0.245 OA
BRANCH   2   4
ATOM      4  C   LIG    1       23.577 -15.932   4.113  0.00  0.00    +0.066 A 
ATOM      5  C   LIG    1       23.243 -14.586   4.266  0.00  0.00    +0.064 A 
ATOM      6  C   LIG    1       24.193 -13.584   4.001  0.00  0.00    +0.166 A 
ATOM      7  C   LIG    1       25.493 -13.950   3.590  0.00  0.00    +0.203 A 
ATOM      8  C   LIG    1       25.821 -15.321   3.469  0.00  0.00    +0.166 A 
ATOM      9  C   LIG    1       24.855 -16.298   3.715  0.00  0.00    +0.064 A 
BRANCH   6  10
ATOM     10  O   LIG    1       23.858 -12.256   4.029  0.00  0.00    -0.491 OA
ATOM     11  C   LIG    1       24.010 -11.578   5.272  0.00  0.00    +0.277 C 
ENDBRANCH   6  10
BRANCH   7  12
ATOM     12  O   LIG    1       26.495 -13.076   3.233  0.00  0.00    -0.488 OA
ATOM     13  C   LIG    1       27.312 -12.534   4.264  0.00  0.00    +0.277 C 
ENDBRANCH   7  12
BRANCH   8  14
ATOM     14  O   LIG    1       27.104 -15.651   3.092  0.00  0.00    -0.491 OA
ATOM     15  C   LIG    1       28.038 -15.819   4.159  0.00  0.00    +0.277 C 
ENDBRANCH   8  14
ENDBRANCH   2   4
ENDBRANCH   1   2
BRANCH   1  16
ATOM     16  C   LIG    1       24.257 -18.693   4.074  0.00  0.00    +0.259 C 
BRANCH  16  17
ATOM     17  C   LIG    1       24.284 -20.033   4.944  0.00  0.00    +0.081 C 
BRANCH  17  18
ATOM     18  C   LIG    1       25.699 -20.346   5.533  0.00  0.00    -0.024 A 
ATOM     19  C   LIG    1       25.905 -21.357   6.493  0.00  0.00    +0.005 A 
ATOM     20  C   LIG    1       27.172 -21.571   7.062  0.00  0.00    +0.000 A 
ATOM     21  C   LIG    1       28.261 -20.790   6.684  0.00  0.00    +0.000 A 
ATOM     22  C   LIG    1       28.094 -19.822   5.710  0.00  0.00    +0.000 A 
ATOM     23  C   LIG    1       26.839 -19.634   5.133  0.00  0.00    +0.005 A 
ENDBRANCH  17  18
BRANCH  17  24
ATOM     24  N   LIG    1       23.818 -21.226   4.111  0.00  0.00    -0.296 NA
ATOM     25  C   LIG    1       24.159 -21.127   2.684  0.00  0.00    +0.105 C 
ATOM     26  C   LIG    1       22.394 -21.567   4.225  0.00  0.00    +0.105 C 
ENDBRANCH  17  24
BRANCH  17  28
ATOM     27  C   LIG    1       23.055 -21.091   7.062  0.00  0.00    +0.006 C 
ATOM     28  C   LIG    1       23.291 -19.868   6.169  0.00  0.00    +0.027 C 
ENDBRANCH  17  28
ENDBRANCH  16  17
ENDBRANCH   1  16
TORSDOF 10
ENDMDL
MODEL 2
REMARK VINA RESULT:      -2.5      2.374      7.475
REMARK  Name = *****
REMARK                            x       y       z     vdW  Elec       q    Type
REMARK                         _______ _______ _______ _____ _____    ______ ____
ROOT
ATOM      1  O   LIG    1       25.578 -16.085   3.836  0.00  0.00    -0.459 OA
ENDROOT
BRANCH   1   2
ATOM      2  C   LIG    1       26.027 -17.258   3.308  0.00  0.00    +0.340 C 
ATOM      3  O   LIG    1       26.833 -17.395   2.427  0.00  0.00    -0.245 OA
BRANCH   2   4
ATOM      4  C   LIG    1       25.307 -18.396   3.929  0.00  0.00    +0.066 A 
ATOM      5  C   LIG    1       26.029 -19.421   4.541  0.00  0.00    +0.064 A 
ATOM      6  C   LIG    1       25.359 -20.494   5.154  0.00  0.00    +0.166 A 
ATOM      7  C   LIG    1       23.948 -20.521   5.157  0.00  0.00    +0.203 A 
ATOM      8  C   LIG    1       23.233 -19.457   4.557  0.00  0.00    +0.166 A 
ATOM      9  C   LIG    1       23.920 -18.414   3.935  0.00  0.00    +0.064 A 
BRANCH   6  10
ATOM     10  O   LIG    1       26.042 -21.570   5.657  0.00  0.00    -0.491 OA
ATOM     11  C   LIG    1       26.733 -21.378   6.887  0.00  0.00    +0.277 C 
ENDBRANCH   6  10
BRANCH   7  12
ATOM     12  O   LIG    1       23.168 -21.540   5.658  0.00  0.00    -0.488 OA
ATOM     13  C   LIG    1       22.926 -21.572   7.059  0.00  0.00    +0.277 C 
ENDBRANCH   7  12
BRANCH   8  14
ATOM     14  O   LIG    1       21.857 -19.495   4.598  0.00  0.00    -0.491 OA
ATOM     15  C   LIG    1       21.187 -18.580   3.730  0.00  0.00    +0.277 C 
ENDBRANCH   8  14
ENDBRANCH   2   4
ENDBRANCH   1   2
BRANCH   1  16
ATOM     16  C   LIG    1       24.661 -15.264   3.073  0.00  0.00    +0.259 C 
BRANCH  16  17
ATOM     17  C   LIG    1       24.842 -13.690   3.281  0.00  0.00    +0.081 C 
BRANCH  17  18
ATOM     18  C   LIG    1       26.215 -13.317   3.930  0.00  0.00    -0.024 A 
ATOM     19  C   LIG    1       27.337 -12.955   3.157  0.00  0.00    +0.005 A 
ATOM     20  C   LIG    1       28.580 -12.695   3.758  0.00  0.00    +0.000 A 
ATOM     21  C   LIG    1       28.733 -12.783   5.139  0.00  0.00    +0.000 A 
ATOM     22  C   LIG    1       27.636 -13.090   5.923  0.00  0.00    +0.000 A 
ATOM     23  C   LIG    1       26.400 -13.322   5.320  0.00  0.00    +0.005 A 
ENDBRANCH  17  18
BRANCH  17  24
ATOM     24  N   LIG    1       23.715 -13.128   4.146  0.00  0.00    -0.296 NA
ATOM     25  C   LIG    1       24.039 -11.844   4.785  0.00  0.00    +0.105 C 
ATOM     26  C   LIG    1       23.185 -14.035   5.172  0.00  0.00    +0.105 C 
ENDBRANCH  17  24
BRANCH  17  28
ATOM     27  C   LIG    1       24.225 -11.550   1.814  0.00  0.00    +0.006 C 
ATOM     28  C   LIG    1       24.781 -12.977   1.866  0.00  0.00    +0.027 C 
ENDBRANCH  17  28
ENDBRANCH  16  17
ENDBRANCH   1  16
TORSDOF 10
ENDMDL
MODEL 3
REMARK VINA RESULT:      -2.1      0.757      1.223
REMARK  Name = *****
REMARK                            x       y       z     vdW  Elec       q    Type
REMARK                         _______ _______ _______ _____ _____    ______ ____
ROOT
ATOM      1  O   LIG    1       22.902 -17.835   4.025  0.00  0.00    -0.459 OA
ENDROOT
BRANCH   1   2
ATOM      2  C   LIG    1       22.743 -16.618   4.614  0.00  0.00    +0.340 C 
ATOM      3  O   LIG    1       21.866 -16.284   5.365  0.00  0.00    -0.245 OA
BRANCH   2   4
ATOM      4  C   LIG    1       23.788 -15.685   4.129  0.00  0.00    +0.066 A 
ATOM      5  C   LIG    1       23.506 -14.322   4.021  0.00  0.00    +0.064 A 
ATOM      6  C   LIG    1       24.496 -13.424   3.586  0.00  0.00    +0.166 A 
ATOM      7  C   LIG    1       25.783 -13.908   3.271  0.00  0.00    +0.203 A 
ATOM      8  C   LIG    1       26.060 -15.288   3.415  0.00  0.00    +0.166 A 
ATOM      9  C   LIG    1       25.055 -16.165   3.827  0.00  0.00    +0.064 A 
BRANCH   6  10
ATOM     10  O   LIG    1       24.211 -12.103   3.359  0.00  0.00    -0.491 OA
ATOM     11  C   LIG    1       24.162 -11.678   2.001  0.00  0.00    +0.277 C 
ENDBRANCH   6  10
BRANCH   7  12
ATOM     12  O   LIG    1       26.821 -13.153   2.770  0.00  0.00    -0.488 OA
ATOM     13  C   LIG    1       27.843 -12.738   3.669  0.00  0.00    +0.277 C 
ENDBRANCH   7  12
BRANCH   8  14
ATOM     14  O   LIG    1       27.331 -15.730   3.126  0.00  0.00    -0.491 OA
ATOM     15  C   LIG    1       28.076 -16.236   4.234  0.00  0.00    +0.277 C 
ENDBRANCH   8  14
ENDBRANCH   2   4
ENDBRANCH   1   2
BRANCH   1  16
ATOM     16  C   LIG    1       24.202 -18.471   4.043  0.00  0.00    +0.259 C 
BRANCH  16  17
ATOM     17  C   LIG    1       24.227 -19.926   4.704  0.00  0.00    +0.081 C 
BRANCH  17  18
ATOM     18  C   LIG    1       25.572 -20.234   5.442  0.00  0.00    -0.024 A 
ATOM     19  C   LIG    1       26.769 -19.558   5.133  0.00  0.00    +0.005 A 
ATOM     20  C   LIG    1       27.980 -19.902   5.758  0.00  0.00    +0.000 A 
ATOM     21  C   LIG    1       28.025 -20.921   6.706  0.00  0.00    +0.000 A 
ATOM     22  C   LIG    1       26.854 -21.568   7.060  0.00  0.00    +0.000 A 
ATOM     23  C   LIG    1       25.653 -21.202   6.454  0.00  0.00    +0.005 A 
ENDBRANCH  17  18
BRANCH  17  24
ATOM     24  N   LIG    1       23.983 -21.002   3.648  0.00  0.00    -0.296 NA
ATOM     25  C   LIG    1       25.024 -21.066   2.610  0.00  0.00    +0.105 C 
ATOM     26  C   LIG    1       22.672 -20.963   2.987  0.00  0.00    +0.105 C 
ENDBRANCH  17  24
BRANCH  17  28
ATOM     27  C   LIG    1       22.553 -21.413   6.152  0.00  0.00    +0.006 C 
ATOM     28  C   LIG    1       23.068 -20.018   5.781  0.00  0.00    +0.027 C 
ENDBRANCH  17  28
ENDBRANCH  16  17
ENDBRANCH   1  16
TORSDOF 10
ENDMDL
MODEL 4
REMARK VINA RESULT:      -1.4      1.696      3.993
REMARK  Name = *****
REMARK                            x       y       z     vdW  Elec       q    Type
REMARK                         _______ _______ _______ _____ _____    ______ ____
ROOT
ATOM      1  O   LIG    1       26.177 -18.404   3.961  0.00  0.00    -0.459 OA
ENDROOT
BRANCH   1   2
ATOM      2  C   LIG    1       27.198 -17.504   4.010  0.00  0.00    +0.340 C 
ATOM      3  O   LIG    1       28.352 -17.729   4.258  0.00  0.00    -0.245 OA
BRANCH   2   4
ATOM      4  C   LIG    1       26.672 -16.136   3.787  0.00  0.00    +0.066 A 
ATOM      5  C   LIG    1       25.301 -15.894   3.890  0.00  0.00    +0.064 A 
ATOM      6  C   LIG    1       24.792 -14.597   3.704  0.00  0.00    +0.166 A 
ATOM      7  C   LIG    1       25.680 -13.536   3.425  0.00  0.00    +0.203 A 
ATOM      8  C   LIG    1       27.069 -13.795   3.354  0.00  0.00    +0.166 A 
ATOM      9  C   LIG    1       27.550 -15.095   3.519  0.00  0.00    +0.064 A 
BRANCH   6  10
ATOM     10  O   LIG    1       23.444 -14.355   3.683  0.00  0.00    -0.491 OA
ATOM     11  C   LIG    1       22.671 -14.913   4.740  0.00  0.00    +0.277 C 
ENDBRANCH   6  10
BRANCH   7  12
ATOM     12  O   LIG    1       25.313 -12.236   3.154  0.00  0.00    -0.488 OA
ATOM     13  C   LIG    1       24.587 -11.981   1.958  0.00  0.00    +0.277 C 
ENDBRANCH   7  12
BRANCH   8  14
ATOM     14  O   LIG    1       27.915 -12.737   3.107  0.00  0.00    -0.491 OA
ATOM     15  C   LIG    1       29.018 -12.604   4.004  0.00  0.00    +0.277 C 
ENDBRANCH   8  14
ENDBRANCH   2   4
ENDBRANCH   1   2
BRANCH   1  16
ATOM     16  C   LIG    1       25.865 -19.193   5.133  0.00  0.00    +0.259 C 
BRANCH  16  17
ATOM     17  C   LIG    1       24.860 -20.408   4.874  0.00  0.00    +0.081 C 
BRANCH  17  18
ATOM     18  C   LIG    1       23.381 -19.940   4.672  0.00  0.00    -0.024 A 
ATOM     19  C   LIG    1       22.293 -20.833   4.755  0.00  0.00    +0.005 A 
ATOM     20  C   LIG    1       20.980 -20.404   4.498  0.00  0.00    +0.000 A 
ATOM     21  C   LIG    1       20.719 -19.079   4.159  0.00  0.00    +0.000 A 
ATOM     22  C   LIG    1       21.765 -18.173   4.117  0.00  0.00    +0.000 A 
ATOM     23  C   LIG    1       23.061 -18.602   4.398  0.00  0.00    +0.005 A 
ENDBRANCH  17  18
BRANCH  17  24
ATOM     24  N   LIG    1       24.911 -21.406   6.030  0.00  0.00    -0.296 NA
ATOM     25  C   LIG    1       23.887 -21.176   7.061  0.00  0.00    +0.105 C 
ATOM     26  C   LIG    1       26.213 -21.548   6.694  0.00  0.00    +0.105 C 
ENDBRANCH  17  24
BRANCH  17  28
ATOM     27  C   LIG    1       24.451 -20.943   2.293  0.00  0.00    +0.006 C 
ATOM     28  C   LIG    1       25.299 -21.163   3.551  0.00  0.00    +0.027 C 
ENDBRANCH  17  28
ENDBRANCH  16  17
ENDBRANCH   1  16
TORSDOF 10
ENDMDL
MODEL 5
REMARK VINA RESULT:      -1.0      2.633      6.911
REMARK  Name = *****
REMARK                            x       y       z     vdW  Elec       q    Type
REMARK                         _______ _______ _______ _____ _____    ______ ____
ROOT
ATOM      1  O   LIG    1       22.806 -14.995   4.178  0.00  0.00    -0.459 OA
ENDROOT
BRANCH   1   2
ATOM      2  C   LIG    1       22.150 -16.036   4.761  0.00  0.00    +0.340 C 
ATOM      3  O   LIG    1       21.146 -15.985   5.419  0.00  0.00    -0.245 OA
BRANCH   2   4
ATOM      4  C   LIG    1       22.906 -17.292   4.540  0.00  0.00    +0.066 A 
ATOM      5  C   LIG    1       22.315 -18.520   4.842  0.00  0.00    +0.064 A 
ATOM      6  C   LIG    1       23.012 -19.719   4.615  0.00  0.00    +0.166 A 
ATOM      7  C   LIG    1       24.311 -19.674   4.065  0.00  0.00    +0.203 A 
ATOM      8  C   LIG    1       24.883 -18.422   3.738  0.00  0.00    +0.166 A 
ATOM      9  C   LIG    1       24.181 -17.243   3.993  0.00  0.00    +0.064 A 
BRANCH   6  10
ATOM     10  O   LIG    1       22.503 -20.928   5.012  0.00  0.00    -0.491 OA
ATOM     11  C   LIG    1       22.855 -21.379   6.316  0.00  0.00    +0.277 C 
ENDBRANCH   6  10
BRANCH   7  12
ATOM     12  O   LIG    1       25.130 -20.763   3.856  0.00  0.00    -0.488 OA
ATOM     13  C   LIG    1       26.129 -21.046   4.828  0.00  0.00    +0.277 C 
ENDBRANCH   7  12
BRANCH   8  14
ATOM     14  O   LIG    1       26.141 -18.409   3.178  0.00  0.00    -0.491 OA
ATOM     15  C   LIG    1       26.945 -17.271   3.491  0.00  0.00    +0.277 C 
ENDBRANCH   8  14
ENDBRANCH   2   4
ENDBRANCH   1   2
BRANCH   1  16
ATOM     16  C   LIG    1       23.791 -14.256   4.940  0.00  0.00    +0.259 C 
BRANCH  16  17
ATOM     17  C   LIG    1       24.501 -13.068   4.141  0.00  0.00    +0.081 C 
BRANCH  17  18
ATOM     18  C   LIG    1       26.056 -13.221   4.081  0.00  0.00    -0.024 A 
ATOM     19  C   LIG    1       26.853 -13.240   5.243  0.00  0.00    +0.005 A 
ATOM     20  C   LIG    1       28.255 -13.305   5.162  0.00  0.00    +0.000 A 
ATOM     21  C   LIG    1       28.893 -13.358   3.925  0.00  0.00    +0.000 A 
ATOM     22  C   LIG    1       28.130 -13.388   2.772  0.00  0.00    +0.000 A 
ATOM     23  C   LIG    1       26.739 -13.349   2.863  0.00  0.00    +0.005 A 
ENDBRANCH  17  18
BRANCH  17  24
ATOM     24  N   LIG    1       24.159 -11.717   4.768  0.00  0.00    -0.296 NA
ATOM     25  C   LIG    1       24.856 -11.455   6.036  0.00  0.00    +0.105 C 
ATOM     26  C   LIG    1       22.728 -11.447   4.961  0.00  0.00    +0.105 C 
ENDBRANCH  17  24
BRANCH  17  28
ATOM     27  C   LIG    1       24.072 -11.757   1.858  0.00  0.00    +0.006 C 
ATOM     28  C   LIG    1       23.971 -13.067   2.647  0.00  0.00    +0.027 C 
ENDBRANCH  17  28
ENDBRANCH  16  17
ENDBRANCH   1  16
TORSDOF 10
ENDMDL
MODEL 6
REMARK VINA RESULT:      -0.9      2.484      7.158
REMARK  Name = *****
REMARK                            x       y       z     vdW  Elec       q    Type
REMARK                         _______ _______ _______ _____ _____    ______ ____
ROOT
ATOM      1  O   LIG    1       26.705 -14.807   4.589  0.00  0.00    -0.459 OA
ENDROOT
BRANCH   1   2
ATOM      2  C   LIG    1       26.852 -15.552   3.459  0.00  0.00    +0.340 C 
ATOM      3  O   LIG    1       27.060 -15.150   2.346  0.00  0.00    -0.245 OA
BRANCH   2   4
ATOM      4  C   LIG    1       26.637 -16.986   3.772  0.00  0.00    +0.066 A 
ATOM      5  C   LIG    1       27.614 -17.698   4.469  0.00  0.00    +0.064 A 
ATOM      6  C   LIG    1       27.412 -19.051   4.793  0.00  0.00    +0.166 A 
ATOM      7  C   LIG    1       26.207 -19.682   4.419  0.00  0.00    +0.203 A 
ATOM      8  C   LIG    1       25.215 -18.936   3.738  0.00  0.00    +0.166 A 
ATOM      9  C   LIG    1       25.447 -17.600   3.407  0.00  0.00    +0.064 A 
BRANCH   6  10
ATOM     10  O   LIG    1       28.402 -19.802   5.370  0.00  0.00    -0.491 OA
ATOM     11  C   LIG    1       28.999 -19.283   6.554  0.00  0.00    +0.277 C 
ENDBRANCH   6  10
BRANCH   7  12
ATOM     12  O   LIG    1       25.908 -21.013   4.610  0.00  0.00    -0.488 OA
ATOM     13  C   LIG    1       25.438 -21.417   5.890  0.00  0.00    +0.277 C 
ENDBRANCH   7  12
BRANCH   8  14
ATOM     14  O   LIG    1       24.038 -19.569   3.409  0.00  0.00    -0.491 OA
ATOM     15  C   LIG    1       22.946 -19.348   4.302  0.00  0.00    +0.277 C 
ENDBRANCH   8  14
ENDBRANCH   2   4
ENDBRANCH   1   2
BRANCH   1  16
ATOM     16  C   LIG    1       26.490 -13.379   4.478  0.00  0.00    +0.259 C 
BRANCH  16  17
ATOM     17  C   LIG    1       24.979 -12.951   4.182  0.00  0.00    +0.081 C 
BRANCH  17  18
ATOM     18  C   LIG    1       23.947 -14.065   4.559  0.00  0.00    -0.024 A 
ATOM     19  C   LIG    1       23.412 -14.948   3.600  0.00  0.00    +0.005 A 
ATOM     20  C   LIG    1       22.432 -15.893   3.949  0.00  0.00    +0.000 A 
ATOM     21  C   LIG    1       21.968 -15.983   5.259  0.00  0.00    +0.000 A 
ATOM     22  C   LIG    1       22.511 -15.159   6.228  0.00  0.00    +0.000 A 
ATOM     23  C   LIG    1       23.502 -14.242   5.877  0.00  0.00    +0.005 A 
ENDBRANCH  17  18
BRANCH  17  24
ATOM     24  N   LIG    1       24.801 -12.589   2.708  0.00  0.00    -0.296 NA
ATOM     25  C   LIG    1       26.063 -12.313   2.005  0.00  0.00    +0.105 C 
ATOM     26  C   LIG    1       23.866 -11.490   2.430  0.00  0.00    +0.105 C 
ENDBRANCH  17  24
BRANCH  17  28
ATOM     27  C   LIG    1       23.166 -11.469   5.459  0.00  0.00    +0.006 C 
ATOM     28  C   LIG    1       24.630 -11.673   5.051  0.00  0.00    +0.027 C 
ENDBRANCH  17  28
ENDBRANCH  16  17
ENDBRANCH   1  16
TORSDOF 10
ENDMDL
MODEL 7
REMARK VINA RESULT:      -0.9      2.662      7.041
REMARK  Name = *****
REMARK                            x       y       z     vdW  Elec       q    Type
REMARK                         _______ _______ _______ _____ _____    ______ ____
ROOT
ATOM      1  O   LIG    1       22.941 -15.183   4.006  0.00  0.00    -0.459 OA
ENDROOT
BRANCH   1   2
ATOM      2  C   LIG    1       22.213 -16.208   4.528  0.00  0.00    +0.340 C 
ATOM      3  O   LIG    1       21.146 -16.135   5.076  0.00  0.00    -0.245 OA
BRANCH   2   4
ATOM      4  C   LIG    1       22.970 -17.477   4.403  0.00  0.00    +0.066 A 
ATOM      5  C   LIG    1       24.291 -17.454   3.952  0.00  0.00    +0.064 A 
ATOM      6  C   LIG    1       25.028 -18.648   3.851  0.00  0.00    +0.166 A 
ATOM      7  C   LIG    1       24.426 -19.869   4.222  0.00  0.00    +0.203 A 
ATOM      8  C   LIG    1       23.096 -19.868   4.705  0.00  0.00    +0.166 A 
ATOM      9  C   LIG    1       22.376 -18.674   4.776  0.00  0.00    +0.064 A 
BRANCH   6  10
ATOM     10  O   LIG    1       26.282 -18.668   3.300  0.00  0.00    -0.491 OA
ATOM     11  C   LIG    1       27.273 -17.855   3.921  0.00  0.00    +0.277 C 
ENDBRANCH   6  10
BRANCH   7  12
ATOM     12  O   LIG    1       25.005 -21.113   4.109  0.00  0.00    -0.488 OA
ATOM     13  C   LIG    1       25.824 -21.571   5.178  0.00  0.00    +0.277 C 
ENDBRANCH   7  12
BRANCH   8  14
ATOM     14  O   LIG    1       22.542 -21.070   5.086  0.00  0.00    -0.491 OA
ATOM     15  C   LIG    1       22.813 -21.478   6.427  0.00  0.00    +0.277 C 
ENDBRANCH   8  14
ENDBRANCH   2   4
ENDBRANCH   1   2
BRANCH   1  16
ATOM     16  C   LIG    1       23.528 -14.200   4.893  0.00  0.00    +0.259 C 
BRANCH  16  17
ATOM     17  C   LIG    1       24.313 -13.019   4.157  0.00  0.00    +0.081 C 
BRANCH  17  18
ATOM     18  C   LIG    1       25.850 -13.286   4.048  0.00  0.00    -0.024 A 
ATOM     19  C   LIG    1       26.676 -13.386   5.185  0.00  0.00    +0.005 A 
ATOM     20  C   LIG    1       28.066 -13.553   5.062  0.00  0.00    +0.000 A 
ATOM     21  C   LIG    1       28.663 -13.631   3.806  0.00  0.00    +0.000 A 
ATOM     22  C   LIG    1       27.867 -13.583   2.675  0.00  0.00    +0.000 A 
ATOM     23  C   LIG    1       26.486 -13.443   2.808  0.00  0.00    +0.005 A 
ENDBRANCH  17  18
BRANCH  17  24
ATOM     24  N   LIG    1       24.090 -11.691   4.880  0.00  0.00    -0.296 NA
ATOM     25  C   LIG    1       25.034 -11.447   5.981  0.00  0.00    +0.105 C 
ATOM     26  C   LIG    1       22.728 -11.456   5.377  0.00  0.00    +0.105 C 
ENDBRANCH  17  24
BRANCH  17  28
ATOM     27  C   LIG    1       23.904 -11.514   1.993  0.00  0.00    +0.006 C 
ATOM     28  C   LIG    1       23.755 -12.876   2.680  0.00  0.00    +0.027 C 
ENDBRANCH  17  28
ENDBRANCH  16  17
ENDBRANCH   1  16
TORSDOF 10
ENDMDL
MODEL 8
REMARK VINA RESULT:      -0.4      0.904      2.557
REMARK  Name = *****
REMARK                            x       y       z     vdW  Elec       q    Type
REMARK                         _______ _______ _______ _____ _____    ______ ____
ROOT
ATOM      1  O   LIG    1       23.599 -18.482   4.300  0.00  0.00    -0.459 OA
ENDROOT
BRANCH   1   2
ATOM      2  C   LIG    1       22.850 -17.345   4.317  0.00  0.00    +0.340 C 
ATOM      3  O   LIG    1       21.658 -17.264   4.449  0.00  0.00    -0.245 OA
BRANCH   2   4
ATOM      4  C   LIG    1       23.716 -16.169   4.063  0.00  0.00    +0.066 A 
ATOM      5  C   LIG    1       25.043 -16.356   3.675  0.00  0.00    +0.064 A 
ATOM      6  C   LIG    1       25.868 -15.249   3.407  0.00  0.00    +0.166 A 
ATOM      7  C   LIG    1       25.340 -13.946   3.521  0.00  0.00    +0.203 A 
ATOM      8  C   LIG    1       23.983 -13.776   3.888  0.00  0.00    +0.166 A 
ATOM      9  C   LIG    1       23.190 -14.889   4.170  0.00  0.00    +0.064 A 
BRANCH   6  10
ATOM     10  O   LIG    1       27.203 -15.401   3.140  0.00  0.00    -0.491 OA
ATOM     11  C   LIG    1       28.116 -14.804   4.055  0.00  0.00    +0.277 C 
ENDBRANCH   6  10
BRANCH   7  12
ATOM     12  O   LIG    1       26.051 -12.777   3.357  0.00  0.00    -0.488 OA
ATOM     13  C   LIG    1       26.036 -12.159   2.076  0.00  0.00    +0.277 C 
ENDBRANCH   7  12
BRANCH   8  14
ATOM     14  O   LIG    1       23.487 -12.495   3.966  0.00  0.00    -0.491 OA
ATOM     15  C   LIG    1       23.828 -11.770   5.148  0.00  0.00    +0.277 C 
ENDBRANCH   8  14
ENDBRANCH   2   4
ENDBRANCH   1   2
BRANCH   1  16
ATOM     16  C   LIG    1       23.764 -19.247   5.517  0.00  0.00    +0.259 C 
BRANCH  16  17
ATOM     17  C   LIG    1       24.776 -20.479   5.402  0.00  0.00    +0.081 C 
BRANCH  17  18
ATOM     18  C   LIG    1       26.260 -20.073   5.682  0.00  0.00    -0.024 A 
ATOM     19  C   LIG    1       26.955 -19.160   4.864  0.00  0.00    +0.005 A 
ATOM     20  C   LIG    1       28.311 -18.866   5.092  0.00  0.00    +0.000 A 
ATOM     21  C   LIG    1       29.001 -19.469   6.140  0.00  0.00    +0.000 A 
ATOM     22  C   LIG    1       28.328 -20.333   6.985  0.00  0.00    +0.000 A 
ATOM     23  C   LIG    1       26.977 -20.599   6.767  0.00  0.00    +0.005 A 
ENDBRANCH  17  18
BRANCH  17  24
ATOM     24  N   LIG    1       24.689 -21.120   4.017  0.00  0.00    -0.296 NA
ATOM     25  C   LIG    1       25.250 -20.290   2.941  0.00  0.00    +0.105 C 
ATOM     26  C   LIG    1       23.354 -21.572   3.606  0.00  0.00    +0.105 C 
ENDBRANCH  17  24
BRANCH  17  28
ATOM     27  C   LIG    1       22.930 -21.572   6.988  0.00  0.00    +0.006 C 
ATOM     28  C   LIG    1       24.376 -21.572   6.478  0.00  0.00    +0.027 C 
ENDBRANCH  17  28
ENDBRANCH  16  17
ENDBRANCH   1  16
TORSDOF 10
ENDMDL
