MODEL 1
REMARK VINA RESULT:      -4.7      0.000      0.000
REMARK  Name = *****
REMARK                            x       y       z     vdW  Elec       q    Type
REMARK                         _______ _______ _______ _____ _____    ______ ____
ROOT
ATOM      1  C   LIG    1       22.660 -18.178   4.287  0.00  0.00    +0.122 A 
ATOM      2  C   LIG    1       22.040 -17.051   4.798  0.00  0.00    +0.046 A 
ATOM      3  C   LIG    1       22.687 -15.808   4.747  0.00  0.00    +0.007 A 
ATOM      4  C   LIG    1       23.973 -15.650   4.203  0.00  0.00    -0.041 A 
ATOM      5  C   LIG    1       24.564 -16.793   3.646  0.00  0.00    +0.007 A 
ATOM      6  C   LIG    1       23.914 -18.035   3.684  0.00  0.00    +0.046 A 
ENDROOT
BRANCH   4   7
ATOM      7  C   LIG    1       24.733 -14.348   4.351  0.00  0.00    +0.058 C 
ATOM      8  C   LIG    1       26.210 -14.160   4.093  0.00  0.00    +0.126 C 
ATOM      9 CL   LIG    1       27.219 -15.504   3.591  0.00  0.00    -0.100 Cl
ATOM     10 CL   LIG    1       27.072 -12.959   5.059  0.00  0.00    -0.100 Cl
ATOM     11  C   LIG    1       25.212 -13.629   3.108  0.00  0.00    +0.050 C 
ENDBRANCH   4   7
BRANCH   1  12
ATOM     12  O   LIG    1       22.211 -19.461   4.350  0.00  0.00    -0.475 OA
BRANCH  12  14
ATOM     13  C   LIG    1       23.142 -20.061   6.564  0.00  0.00    +0.067 C 
ATOM     14  C   LIG    1       22.823 -20.496   5.130  0.00  0.00    +0.200 C 
ATOM     15  C   LIG    1       21.721 -21.572   5.210  0.00  0.00    +0.067 C 
BRANCH  14  16
ATOM     16  C   LIG    1       24.037 -21.213   4.484  0.00  0.00    +0.348 C 
ATOM     17  O   LIG    1       25.062 -21.506   5.072  0.00  0.00    -0.246 OA
BRANCH  16  18
ATOM     18  O   LIG    1       23.831 -21.550   3.183  0.00  0.00    -0.478 OA
ATOM     19  H   LIG    1       23.921 -22.509   3.031  0.00  0.00    +0.295 HD
ENDBRANCH  16  18
ENDBRANCH  14  16
ENDBRANCH  12  14
ENDBRANCH   1  12
TORSDOF 5
ENDMDL
MODEL 2
REMARK VINA RESULT:      -4.5      1.436      2.088
REMARK  Name = *****
REMARK                            x       y       z     vdW  Elec       q    Type
REMARK                         _______ _______ _______ _____ _____    ______ ____
ROOT
ATOM      1  C   LIG    1       23.533 -18.150   4.114  0.00  0.00    +0.122 A 
ATOM      2  C   LIG    1       24.818 -18.227   3.602  0.00  0.00    +0.046 A 
ATOM      3  C   LIG    1       25.543 -17.055   3.344  0.00  0.00    +0.007 A 
ATOM      4  C   LIG    1       25.011 -15.775   3.571  0.00  0.00    -0.041 A 
ATOM      5  C   LIG    1       23.730 -15.718   4.136  0.00  0.00    +0.007 A 
ATOM      6  C   LIG    1       23.006 -16.889   4.407  0.00  0.00    +0.046 A 
ENDROOT
BRANCH   4   7
ATOM      7  C   LIG    1       25.729 -14.531   3.088  0.00  0.00    +0.058 C 
ATOM      8  C   LIG    1       25.322 -13.109   3.397  0.00  0.00    +0.126 C 
ATOM      9 CL   LIG    1       23.909 -12.763   4.376  0.00  0.00    -0.100 Cl
ATOM     10 CL   LIG    1       25.651 -11.872   2.180  0.00  0.00    -0.100 Cl
ATOM     11  C   LIG    1       26.518 -13.703   4.080  0.00  0.00    +0.050 C 
ENDBRANCH   4   7
BRANCH   1  12
ATOM     12  O   LIG    1       22.671 -19.182   4.324  0.00  0.00    -0.475 OA
BRANCH  12  14
ATOM     13  C   LIG    1       23.321 -20.257   6.457  0.00  0.00    +0.067 C 
ATOM     14  C   LIG    1       23.025 -20.415   4.962  0.00  0.00    +0.200 C 
ATOM     15  C   LIG    1       21.740 -21.257   4.834  0.00  0.00    +0.067 C 
BRANCH  14  16
ATOM     16  C   LIG    1       24.126 -21.257   4.264  0.00  0.00    +0.348 C 
ATOM     17  O   LIG    1       24.117 -21.572   3.088  0.00  0.00    -0.246 OA
BRANCH  16  18
ATOM     18  O   LIG    1       25.162 -21.572   5.086  0.00  0.00    -0.478 OA
ATOM     19  H   LIG    1       26.025 -21.331   4.702  0.00  0.00    +0.295 HD
ENDBRANCH  16  18
ENDBRANCH  14  16
ENDBRANCH  12  14
ENDBRANCH   1  12
TORSDOF 5
ENDMDL
MODEL 3
REMARK VINA RESULT:      -4.5      1.580      2.115
REMARK  Name = *****
REMARK                            x       y       z     vdW  Elec       q    Type
REMARK                         _______ _______ _______ _____ _____    ______ ____
ROOT
ATOM      1  C   LIG    1       24.470 -18.005   3.733  0.00  0.00    +0.122 A 
ATOM      2  C   LIG    1       23.247 -17.488   4.123  0.00  0.00    +0.046 A 
ATOM      3  C   LIG    1       23.057 -16.100   4.186  0.00  0.00    +0.007 A 
ATOM      4  C   LIG    1       24.079 -15.186   3.880  0.00  0.00    -0.041 A 
ATOM      5  C   LIG    1       25.294 -15.727   3.437  0.00  0.00    +0.007 A 
ATOM      6  C   LIG    1       25.483 -17.115   3.361  0.00  0.00    +0.046 A 
ENDROOT
BRANCH   4   7
ATOM      7  C   LIG    1       23.917 -13.706   4.158  0.00  0.00    +0.058 C 
ATOM      8  C   LIG    1       24.972 -12.806   4.760  0.00  0.00    +0.126 C 
ATOM      9 CL   LIG    1       26.542 -13.435   5.222  0.00  0.00    -0.100 Cl
ATOM     10 CL   LIG    1       24.433 -11.459   5.767  0.00  0.00    -0.100 Cl
ATOM     11  C   LIG    1       24.661 -12.707   3.296  0.00  0.00    +0.050 C 
ENDBRANCH   4   7
BRANCH   1  12
ATOM     12  O   LIG    1       24.839 -19.314   3.716  0.00  0.00    -0.475 OA
BRANCH  12  14
ATOM     13  C   LIG    1       23.391 -19.911   5.633  0.00  0.00    +0.067 C 
ATOM     14  C   LIG    1       24.641 -20.224   4.806  0.00  0.00    +0.200 C 
ATOM     15  C   LIG    1       24.398 -21.572   4.097  0.00  0.00    +0.067 C 
BRANCH  14  16
ATOM     16  C   LIG    1       25.867 -20.471   5.724  0.00  0.00    +0.348 C 
ATOM     17  O   LIG    1       25.804 -20.880   6.869  0.00  0.00    -0.246 OA
BRANCH  16  18
ATOM     18  O   LIG    1       27.055 -20.241   5.105  0.00  0.00    -0.478 OA
ATOM     19  H   LIG    1       27.146 -20.752   4.279  0.00  0.00    +0.295 HD
ENDBRANCH  16  18
ENDBRANCH  14  16
ENDBRANCH  12  14
ENDBRANCH   1  12
TORSDOF 5
ENDMDL
MODEL 4
REMARK VINA RESULT:      -4.3      4.200      6.803
REMARK  Name = *****
REMARK                            x       y       z     vdW  Elec       q    Type
REMARK                         _______ _______ _______ _____ _____    ______ ____
ROOT
ATOM      1  C   LIG    1       26.592 -16.808   3.365  0.00  0.00    +0.122 A 
ATOM      2  C   LIG    1       27.438 -17.637   4.082  0.00  0.00    +0.046 A 
ATOM      3  C   LIG    1       26.961 -18.849   4.601  0.00  0.00    +0.007 A 
ATOM      4  C   LIG    1       25.629 -19.266   4.438  0.00  0.00    -0.041 A 
ATOM      5  C   LIG    1       24.802 -18.439   3.666  0.00  0.00    +0.007 A 
ATOM      6  C   LIG    1       25.280 -17.231   3.135  0.00  0.00    +0.046 A 
ENDROOT
BRANCH   4   7
ATOM      7  C   LIG    1       25.087 -20.468   5.183  0.00  0.00    +0.058 C 
ATOM      8  C   LIG    1       23.642 -20.679   5.575  0.00  0.00    +0.126 C 
ATOM      9 CL   LIG    1       22.418 -19.484   5.193  0.00  0.00    -0.100 Cl
ATOM     10 CL   LIG    1       23.311 -21.572   7.062  0.00  0.00    -0.100 Cl
ATOM     11  C   LIG    1       24.227 -21.469   4.441  0.00  0.00    +0.050 C 
ENDBRANCH   4   7
BRANCH   1  12
ATOM     12  O   LIG    1       26.874 -15.566   2.886  0.00  0.00    -0.475 OA
BRANCH  12  14
ATOM     13  C   LIG    1       25.874 -13.355   2.392  0.00  0.00    +0.067 C 
ATOM     14  C   LIG    1       26.370 -14.348   3.449  0.00  0.00    +0.200 C 
ATOM     15  C   LIG    1       25.141 -14.816   4.253  0.00  0.00    +0.067 C 
BRANCH  14  16
ATOM     16  C   LIG    1       27.283 -13.644   4.487  0.00  0.00    +0.348 C 
ATOM     17  O   LIG    1       28.437 -13.315   4.284  0.00  0.00    -0.246 OA
BRANCH  16  18
ATOM     18  O   LIG    1       26.649 -13.364   5.657  0.00  0.00    -0.478 OA
ATOM     19  H   LIG    1       27.274 -13.147   6.373  0.00  0.00    +0.295 HD
ENDBRANCH  16  18
ENDBRANCH  14  16
ENDBRANCH  12  14
ENDBRANCH   1  12
TORSDOF 5
ENDMDL
MODEL 5
REMARK VINA RESULT:      -4.1      4.001      6.737
REMARK  Name = *****
REMARK                            x       y       z     vdW  Elec       q    Type
REMARK                         _______ _______ _______ _____ _____    ______ ____
ROOT
ATOM      1  C   LIG    1       24.986 -15.851   3.411  0.00  0.00    +0.122 A 
ATOM      2  C   LIG    1       25.374 -17.172   3.266  0.00  0.00    +0.046 A 
ATOM      3  C   LIG    1       24.541 -18.203   3.724  0.00  0.00    +0.007 A 
ATOM      4  C   LIG    1       23.309 -17.954   4.352  0.00  0.00    -0.041 A 
ATOM      5  C   LIG    1       22.911 -16.613   4.443  0.00  0.00    +0.007 A 
ATOM      6  C   LIG    1       23.736 -15.580   3.975  0.00  0.00    +0.046 A 
ENDROOT
BRANCH   4   7
ATOM      7  C   LIG    1       22.532 -19.067   5.024  0.00  0.00    +0.058 C 
ATOM      8  C   LIG    1       22.687 -20.543   4.735  0.00  0.00    +0.126 C 
ATOM      9 CL   LIG    1       23.823 -21.115   3.528  0.00  0.00    -0.100 Cl
ATOM     10 CL   LIG    1       21.260 -21.571   4.897  0.00  0.00    -0.100 Cl
ATOM     11  C   LIG    1       23.244 -19.973   6.006  0.00  0.00    +0.050 C 
ENDBRANCH   4   7
BRANCH   1  12
ATOM     12  O   LIG    1       25.719 -14.744   3.111  0.00  0.00    -0.475 OA
BRANCH  12  14
ATOM     13  C   LIG    1       27.746 -15.242   4.443  0.00  0.00    +0.067 C 
ATOM     14  C   LIG    1       26.738 -14.195   3.956  0.00  0.00    +0.200 C 
ATOM     15  C   LIG    1       27.492 -13.233   3.016  0.00  0.00    +0.067 C 
BRANCH  14  16
ATOM     16  C   LIG    1       26.250 -13.307   5.130  0.00  0.00    +0.348 C 
ATOM     17  O   LIG    1       25.258 -12.601   5.099  0.00  0.00    -0.246 OA
BRANCH  16  18
ATOM     18  O   LIG    1       27.012 -13.431   6.249  0.00  0.00    -0.478 OA
ATOM     19  H   LIG    1       26.891 -14.295   6.684  0.00  0.00    +0.295 HD
ENDBRANCH  16  18
ENDBRANCH  14  16
ENDBRANCH  12  14
ENDBRANCH   1  12
TORSDOF 5
ENDMDL
MODEL 6
REMARK VINA RESULT:      -4.0      4.356      6.647
REMARK  Name = *****
REMARK                            x       y       z     vdW  Elec       q    Type
REMARK                         _______ _______ _______ _____ _____    ______ ____
ROOT
ATOM      1  C   LIG    1       26.327 -16.586   3.311  0.00  0.00    +0.122 A 
ATOM      2  C   LIG    1       27.579 -16.674   3.897  0.00  0.00    +0.046 A 
ATOM      3  C   LIG    1       27.962 -17.845   4.567  0.00  0.00    +0.007 A 
ATOM      4  C   LIG    1       27.110 -18.955   4.689  0.00  0.00    -0.041 A 
ATOM      5  C   LIG    1       25.867 -18.867   4.046  0.00  0.00    +0.007 A 
ATOM      6  C   LIG    1       25.486 -17.702   3.365  0.00  0.00    +0.046 A 
ENDROOT
BRANCH   4   7
ATOM      7  C   LIG    1       27.462 -20.119   5.593  0.00  0.00    +0.058 C 
ATOM      8  C   LIG    1       28.483 -20.085   6.707  0.00  0.00    +0.126 C 
ATOM      9 CL   LIG    1       29.399 -18.631   7.052  0.00  0.00    -0.100 Cl
ATOM     10 CL   LIG    1       29.368 -21.572   7.062  0.00  0.00    -0.100 Cl
ATOM     11  C   LIG    1       27.021 -20.087   7.041  0.00  0.00    +0.050 C 
ENDBRANCH   4   7
BRANCH   1  12
ATOM     12  O   LIG    1       25.775 -15.494   2.717  0.00  0.00    -0.475 OA
BRANCH  12  14
ATOM     13  C   LIG    1       25.030 -13.152   2.423  0.00  0.00    +0.067 C 
ATOM     14  C   LIG    1       25.636 -14.214   3.346  0.00  0.00    +0.200 C 
ATOM     15  C   LIG    1       24.615 -14.484   4.469  0.00  0.00    +0.067 C 
BRANCH  14  16
ATOM     16  C   LIG    1       26.894 -13.667   4.072  0.00  0.00    +0.348 C 
ATOM     17  O   LIG    1       26.989 -13.518   5.276  0.00  0.00    -0.246 OA
BRANCH  16  18
ATOM     18  O   LIG    1       27.931 -13.414   3.230  0.00  0.00    -0.478 OA
ATOM     19  H   LIG    1       28.242 -14.220   2.776  0.00  0.00    +0.295 HD
ENDBRANCH  16  18
ENDBRANCH  14  16
ENDBRANCH  12  14
ENDBRANCH   1  12
TORSDOF 5
ENDMDL
MODEL 7
REMARK VINA RESULT:      -3.8      0.689      1.521
REMARK  Name = *****
REMARK                            x       y       z     vdW  Elec       q    Type
REMARK                         _______ _______ _______ _____ _____    ______ ____
ROOT
ATOM      1  C   LIG    1       23.287 -18.084   4.141  0.00  0.00    +0.122 A 
ATOM      2  C   LIG    1       24.587 -18.019   3.671  0.00  0.00    +0.046 A 
ATOM      3  C   LIG    1       25.235 -16.780   3.564  0.00  0.00    +0.007 A 
ATOM      4  C   LIG    1       24.607 -15.570   3.905  0.00  0.00    -0.041 A 
ATOM      5  C   LIG    1       23.309 -15.661   4.426  0.00  0.00    +0.007 A 
ATOM      6  C   LIG    1       22.663 -16.900   4.546  0.00  0.00    +0.046 A 
ENDROOT
BRANCH   4   7
ATOM      7  C   LIG    1       25.248 -14.236   3.581  0.00  0.00    +0.058 C 
ATOM      8  C   LIG    1       26.732 -13.948   3.600  0.00  0.00    +0.126 C 
ATOM      9 CL   LIG    1       27.889 -15.192   4.032  0.00  0.00    -0.100 Cl
ATOM     10 CL   LIG    1       27.253 -12.320   4.044  0.00  0.00    -0.100 Cl
ATOM     11  C   LIG    1       26.018 -14.082   2.287  0.00  0.00    +0.050 C 
ENDBRANCH   4   7
BRANCH   1  12
ATOM     12  O   LIG    1       22.495 -19.188   4.210  0.00  0.00    -0.475 OA
BRANCH  12  14
ATOM     13  C   LIG    1       23.147 -20.249   6.349  0.00  0.00    +0.067 C 
ATOM     14  C   LIG    1       22.868 -20.414   4.851  0.00  0.00    +0.200 C 
ATOM     15  C   LIG    1       21.602 -21.283   4.712  0.00  0.00    +0.067 C 
BRANCH  14  16
ATOM     16  C   LIG    1       23.993 -21.232   4.164  0.00  0.00    +0.348 C 
ATOM     17  O   LIG    1       23.989 -21.569   2.994  0.00  0.00    -0.246 OA
BRANCH  16  18
ATOM     18  O   LIG    1       25.041 -21.499   4.987  0.00  0.00    -0.478 OA
ATOM     19  H   LIG    1       25.029 -20.947   5.792  0.00  0.00    +0.295 HD
ENDBRANCH  16  18
ENDBRANCH  14  16
ENDBRANCH  12  14
ENDBRANCH   1  12
TORSDOF 5
ENDMDL
MODEL 8
REMARK VINA RESULT:      -3.8      2.013      2.641
REMARK  Name = *****
REMARK                            x       y       z     vdW  Elec       q    Type
REMARK                         _______ _______ _______ _____ _____    ______ ____
ROOT
ATOM      1  C   LIG    1       25.500 -18.342   3.480  0.00  0.00    +0.122 A 
ATOM      2  C   LIG    1       24.898 -17.107   3.315  0.00  0.00    +0.046 A 
ATOM      3  C   LIG    1       25.632 -15.932   3.530  0.00  0.00    +0.007 A 
ATOM      4  C   LIG    1       26.978 -15.948   3.930  0.00  0.00    -0.041 A 
ATOM      5  C   LIG    1       27.585 -17.206   4.043  0.00  0.00    +0.007 A 
ATOM      6  C   LIG    1       26.856 -18.383   3.817  0.00  0.00    +0.046 A 
ENDROOT
BRANCH   4   7
ATOM      7  C   LIG    1       27.684 -14.678   4.360  0.00  0.00    +0.058 C 
ATOM      8  C   LIG    1       27.494 -13.315   3.735  0.00  0.00    +0.126 C 
ATOM      9 CL   LIG    1       26.400 -13.082   2.385  0.00  0.00    -0.100 Cl
ATOM     10 CL   LIG    1       28.876 -12.215   3.714  0.00  0.00    -0.100 Cl
ATOM     11  C   LIG    1       26.895 -13.604   5.079  0.00  0.00    +0.050 C 
ENDBRANCH   4   7
BRANCH   1  12
ATOM     12  O   LIG    1       24.902 -19.562   3.407  0.00  0.00    -0.475 OA
BRANCH  12  14
ATOM     13  C   LIG    1       22.957 -19.388   4.928  0.00  0.00    +0.067 C 
ATOM     14  C   LIG    1       24.191 -20.181   4.486  0.00  0.00    +0.200 C 
ATOM     15  C   LIG    1       23.692 -21.501   3.865  0.00  0.00    +0.067 C 
BRANCH  14  16
ATOM     16  C   LIG    1       25.042 -20.611   5.710  0.00  0.00    +0.348 C 
ATOM     17  O   LIG    1       24.710 -20.461   6.871  0.00  0.00    -0.246 OA
BRANCH  16  18
ATOM     18  O   LIG    1       26.196 -21.241   5.365  0.00  0.00    -0.478 OA
ATOM     19  H   LIG    1       26.496 -21.000   4.469  0.00  0.00    +0.295 HD
ENDBRANCH  16  18
ENDBRANCH  14  16
ENDBRANCH  12  14
ENDBRANCH   1  12
TORSDOF 5
ENDMDL
MODEL 9
REMARK VINA RESULT:      -3.7      1.176      1.736
REMARK  Name = *****
REMARK                            x       y       z     vdW  Elec       q    Type
REMARK                         _______ _______ _______ _____ _____    ______ ____
ROOT
ATOM      1  C   LIG    1       23.524 -18.190   4.064  0.00  0.00    +0.122 A 
ATOM      2  C   LIG    1       23.283 -16.828   4.130  0.00  0.00    +0.046 A 
ATOM      3  C   LIG    1       24.294 -15.918   3.789  0.00  0.00    +0.007 A 
ATOM      4  C   LIG    1       25.575 -16.331   3.387  0.00  0.00    -0.041 A 
ATOM      5  C   LIG    1       25.784 -17.712   3.277  0.00  0.00    +0.007 A 
ATOM      6  C   LIG    1       24.771 -18.625   3.606  0.00  0.00    +0.046 A 
ENDROOT
BRANCH   4   7
ATOM      7  C   LIG    1       26.706 -15.335   3.230  0.00  0.00    +0.058 C 
ATOM      8  C   LIG    1       26.867 -14.058   4.022  0.00  0.00    +0.126 C 
ATOM      9 CL   LIG    1       25.691 -13.592   5.236  0.00  0.00    -0.100 Cl
ATOM     10 CL   LIG    1       27.633 -12.681   3.223  0.00  0.00    -0.100 Cl
ATOM     11  C   LIG    1       27.753 -15.231   4.319  0.00  0.00    +0.050 C 
ENDBRANCH   4   7
BRANCH   1  12
ATOM     12  O   LIG    1       22.688 -19.190   4.453  0.00  0.00    -0.475 OA
BRANCH  12  14
ATOM     13  C   LIG    1       23.584 -20.265   6.495  0.00  0.00    +0.067 C 
ATOM     14  C   LIG    1       23.120 -20.423   5.043  0.00  0.00    +0.200 C 
ATOM     15  C   LIG    1       21.834 -21.273   5.061  0.00  0.00    +0.067 C 
BRANCH  14  16
ATOM     16  C   LIG    1       24.139 -21.256   4.222  0.00  0.00    +0.348 C 
ATOM     17  O   LIG    1       23.995 -21.572   3.055  0.00  0.00    -0.246 OA
BRANCH  16  18
ATOM     18  O   LIG    1       25.266 -21.562   4.917  0.00  0.00    -0.478 OA
ATOM     19  H   LIG    1       25.748 -22.315   4.527  0.00  0.00    +0.295 HD
ENDBRANCH  16  18
ENDBRANCH  14  16
ENDBRANCH  12  14
ENDBRANCH   1  12
TORSDOF 5
ENDMDL
