MODEL 1
REMARK VINA RESULT:      -0.6      0.000      0.000
REMARK  Name = *****
REMARK                            x       y       z     vdW  Elec       q    Type
REMARK                         _______ _______ _______ _____ _____    ______ ____
ROOT
ATOM      1  C   LIG    1       26.656 -16.085   4.022  0.00  0.00    -0.013 C 
ATOM      2  C   LIG    1       25.370 -15.887   3.642  0.00  0.00    -0.014 C 
ATOM      3  C   LIG    1       24.425 -17.025   3.784  0.00  0.00    -0.014 A 
ATOM      4  C   LIG    1       23.203 -16.918   4.484  0.00  0.00    -0.039 A 
ATOM      5  C   LIG    1       22.364 -18.053   4.550  0.00  0.00    +0.004 A 
ATOM      6  C   LIG    1       22.721 -19.263   3.955  0.00  0.00    +0.000 A 
ATOM      7  C   LIG    1       23.918 -19.362   3.262  0.00  0.00    +0.001 A 
ATOM      8  C   LIG    1       22.667 -15.658   5.141  0.00  0.00    +0.040 C 
ATOM      9  C   LIG    1       23.628 -14.505   5.458  0.00  0.00    +0.040 C 
ATOM     10  C   LIG    1       24.115 -13.818   4.205  0.00  0.00    -0.039 A 
ATOM     11  C   LIG    1       23.751 -12.494   3.922  0.00  0.00    +0.004 A 
ATOM     12  C   LIG    1       24.170 -11.886   2.737  0.00  0.00    +0.000 A 
ATOM     13  C   LIG    1       24.941 -12.598   1.819  0.00  0.00    +0.001 A 
ATOM     14  C   LIG    1       25.312 -13.914   2.095  0.00  0.00    +0.009 A 
ATOM     15  C   LIG    1       24.757 -18.251   3.171  0.00  0.00    +0.009 A 
ATOM     16  C   LIG    1       24.924 -14.520   3.297  0.00  0.00    -0.014 A 
ENDROOT
BRANCH   1  17
ATOM     17  C   LIG    1       27.766 -15.063   4.077  0.00  0.00    +0.078 C 
BRANCH  17  18
ATOM     18  C   LIG    1       27.546 -14.066   5.215  0.00  0.00    +0.134 C 
BRANCH  18  20
ATOM     19  C   LIG    1       28.278 -12.565   3.407  0.00  0.00    +0.189 C 
ATOM     20  N   LIG    1       27.870 -12.622   4.856  0.00  0.00    +0.213 N 
ATOM     21  O   LIG    1       26.763 -11.833   5.032  0.00  0.00    -0.776 OA
ATOM     22  C   LIG    1       29.002 -12.096   5.696  0.00  0.00    +0.189 C 
ENDBRANCH  18  20
ENDBRANCH  17  18
ENDBRANCH   1  17
TORSDOF 3
ENDMDL
