MODEL 1
REMARK VINA RESULT:      -4.6      0.000      0.000
REMARK  Name = *****
REMARK                            x       y       z     vdW  Elec       q    Type
REMARK                         _______ _______ _______ _____ _____    ______ ____
ROOT
ATOM      1  C   LIG    1       25.263 -20.260   4.032  0.00  0.00    +0.044 C 
ENDROOT
BRANCH   1   2
ATOM      2  C   LIG    1       26.240 -20.528   5.181  0.00  0.00    +0.105 C 
BRANCH   2   5
ATOM      3  C   LIG    1       29.469 -18.703   5.934  0.00  0.00    +0.109 C 
ATOM      4  C   LIG    1       28.440 -19.792   6.024  0.00  0.00    +0.210 C 
ATOM      5  N   LIG    1       27.332 -19.577   5.235  0.00  0.00    -0.316 N 
ATOM      6  H   LIG    1       27.382 -18.873   4.506  0.00  0.00    +0.149 HD
ATOM      7  O   LIG    1       28.564 -20.749   6.781  0.00  0.00    -0.276 OA
ENDBRANCH   2   5
ENDBRANCH   1   2
BRANCH   1   8
ATOM      8  C   LIG    1       23.998 -21.115   4.062  0.00  0.00    +0.199 C 
BRANCH   8   9
ATOM      9  S   LIG    1       22.734 -20.455   5.141  0.00  0.00    +0.080 S 
ATOM     10  O   LIG    1       22.298 -19.167   4.644  0.00  0.00    -0.147 OA
ATOM     11  O   LIG    1       23.067 -20.677   6.525  0.00  0.00    -0.147 OA
BRANCH   9  12
ATOM     12  O   LIG    1       21.576 -21.531   4.821  0.00  0.00    -0.254 OA
ATOM     13  H   LIG    1       20.729 -21.150   5.148  0.00  0.00    +0.244 HD
ENDBRANCH   9  12
ENDBRANCH   8   9
ENDBRANCH   1   8
TORSDOF 5
ENDMDL
MODEL 2
REMARK VINA RESULT:      -4.3      1.770      1.920
REMARK  Name = *****
REMARK                            x       y       z     vdW  Elec       q    Type
REMARK                         _______ _______ _______ _____ _____    ______ ____
ROOT
ATOM      1  C   LIG    1       24.786 -20.824   7.062  0.00  0.00    +0.044 C 
ENDROOT
BRANCH   1   2
ATOM      2  C   LIG    1       26.031 -21.563   6.562  0.00  0.00    +0.105 C 
BRANCH   2   5
ATOM      3  C   LIG    1       29.181 -19.481   6.832  0.00  0.00    +0.109 C 
ATOM      4  C   LIG    1       27.923 -20.016   6.211  0.00  0.00    +0.210 C 
ATOM      5  N   LIG    1       27.271 -20.946   6.991  0.00  0.00    -0.316 N 
ATOM      6  H   LIG    1       27.524 -21.026   7.971  0.00  0.00    +0.149 HD
ATOM      7  O   LIG    1       27.556 -19.691   5.088  0.00  0.00    -0.276 OA
ENDBRANCH   2   5
ENDBRANCH   1   2
BRANCH   1   8
ATOM      8  C   LIG    1       23.465 -21.373   6.528  0.00  0.00    +0.199 C 
BRANCH   8   9
ATOM      9  S   LIG    1       22.920 -20.552   5.036  0.00  0.00    +0.080 S 
ATOM     10  O   LIG    1       23.880 -20.782   3.978  0.00  0.00    -0.147 OA
ATOM     11  O   LIG    1       22.390 -19.244   5.329  0.00  0.00    -0.147 OA
BRANCH   9  12
ATOM     12  O   LIG    1       21.621 -21.461   4.736  0.00  0.00    -0.254 OA
ATOM     13  H   LIG    1       21.025 -21.380   5.515  0.00  0.00    +0.244 HD
ENDBRANCH   9  12
ENDBRANCH   8   9
ENDBRANCH   1   8
TORSDOF 5
ENDMDL
MODEL 3
REMARK VINA RESULT:      -4.2      1.893      2.280
REMARK  Name = *****
REMARK                            x       y       z     vdW  Elec       q    Type
REMARK                         _______ _______ _______ _____ _____    ______ ____
ROOT
ATOM      1  C   LIG    1       25.364 -21.497   5.693  0.00  0.00    +0.044 C 
ENDROOT
BRANCH   1   2
ATOM      2  C   LIG    1       26.407 -21.138   6.756  0.00  0.00    +0.105 C 
BRANCH   2   5
ATOM      3  C   LIG    1       29.404 -18.948   6.011  0.00  0.00    +0.109 C 
ATOM      4  C   LIG    1       28.657 -20.152   6.509  0.00  0.00    +0.210 C 
ATOM      5  N   LIG    1       27.291 -20.064   6.347  0.00  0.00    -0.316 N 
ATOM      6  H   LIG    1       26.918 -19.355   5.724  0.00  0.00    +0.149 HD
ATOM      7  O   LIG    1       29.221 -21.091   7.059  0.00  0.00    -0.276 OA
ENDBRANCH   2   5
ENDBRANCH   1   2
BRANCH   1   8
ATOM      8  C   LIG    1       24.257 -20.461   5.516  0.00  0.00    +0.199 C 
BRANCH   8   9
ATOM      9  S   LIG    1       24.228 -19.742   3.879  0.00  0.00    +0.080 S 
ATOM     10  O   LIG    1       23.340 -18.599   3.868  0.00  0.00    -0.147 OA
ATOM     11  O   LIG    1       24.184 -20.764   2.865  0.00  0.00    -0.147 OA
BRANCH   9  12
ATOM     12  O   LIG    1       25.745 -19.195   3.842  0.00  0.00    -0.254 OA
ATOM     13  H   LIG    1       26.158 -19.541   3.019  0.00  0.00    +0.244 HD
ENDBRANCH   9  12
ENDBRANCH   8   9
ENDBRANCH   1   8
TORSDOF 5
ENDMDL
MODEL 4
REMARK VINA RESULT:      -4.2      4.096      4.629
REMARK  Name = *****
REMARK                            x       y       z     vdW  Elec       q    Type
REMARK                         _______ _______ _______ _____ _____    ______ ____
ROOT
ATOM      1  C   LIG    1       25.866 -17.978   3.525  0.00  0.00    +0.044 C 
ENDROOT
BRANCH   1   2
ATOM      2  C   LIG    1       25.697 -16.518   3.091  0.00  0.00    +0.105 C 
BRANCH   2   5
ATOM      3  C   LIG    1       28.161 -13.699   3.644  0.00  0.00    +0.109 C 
ATOM      4  C   LIG    1       27.064 -14.467   2.965  0.00  0.00    +0.210 C 
ATOM      5  N   LIG    1       26.742 -15.649   3.594  0.00  0.00    -0.316 N 
ATOM      6  H   LIG    1       27.066 -15.800   4.544  0.00  0.00    +0.149 HD
ATOM      7  O   LIG    1       26.556 -14.092   1.914  0.00  0.00    -0.276 OA
ENDBRANCH   2   5
ENDBRANCH   1   2
BRANCH   1   8
ATOM      8  C   LIG    1       24.569 -18.783   3.562  0.00  0.00    +0.199 C 
BRANCH   8   9
ATOM      9  S   LIG    1       24.743 -20.348   4.409  0.00  0.00    +0.080 S 
ATOM     10  O   LIG    1       24.184 -21.405   3.592  0.00  0.00    -0.147 OA
ATOM     11  O   LIG    1       24.443 -20.214   5.811  0.00  0.00    -0.147 OA
BRANCH   9  12
ATOM     12  O   LIG    1       26.351 -20.466   4.344  0.00  0.00    -0.254 OA
ATOM     13  H   LIG    1       26.625 -20.187   3.441  0.00  0.00    +0.244 HD
ENDBRANCH   9  12
ENDBRANCH   8   9
ENDBRANCH   1   8
TORSDOF 5
ENDMDL
MODEL 5
REMARK VINA RESULT:      -4.2      4.608      6.056
REMARK  Name = *****
REMARK                            x       y       z     vdW  Elec       q    Type
REMARK                         _______ _______ _______ _____ _____    ______ ____
ROOT
ATOM      1  C   LIG    1       25.375 -17.251   3.346  0.00  0.00    +0.044 C 
ENDROOT
BRANCH   1   2
ATOM      2  C   LIG    1       25.398 -18.769   3.557  0.00  0.00    +0.105 C 
BRANCH   2   5
ATOM      3  C   LIG    1       22.424 -20.582   5.036  0.00  0.00    +0.109 C 
ATOM      4  C   LIG    1       23.844 -20.109   4.929  0.00  0.00    +0.210 C 
ATOM      5  N   LIG    1       24.087 -19.328   3.820  0.00  0.00    -0.316 N 
ATOM      6  H   LIG    1       23.298 -18.941   3.313  0.00  0.00    +0.149 HD
ATOM      7  O   LIG    1       24.709 -20.446   5.730  0.00  0.00    -0.276 OA
ENDBRANCH   2   5
ENDBRANCH   1   2
BRANCH   1   8
ATOM      8  C   LIG    1       26.742 -16.578   3.429  0.00  0.00    +0.199 C 
BRANCH   8   9
ATOM      9  S   LIG    1       26.652 -14.796   3.308  0.00  0.00    +0.080 S 
ATOM     10  O   LIG    1       25.692 -14.294   4.268  0.00  0.00    -0.147 OA
ATOM     11  O   LIG    1       26.665 -14.369   1.932  0.00  0.00    -0.147 OA
BRANCH   9  12
ATOM     12  O   LIG    1       28.130 -14.454   3.857  0.00  0.00    -0.254 OA
ATOM     13  H   LIG    1       28.570 -13.898   3.174  0.00  0.00    +0.244 HD
ENDBRANCH   9  12
ENDBRANCH   8   9
ENDBRANCH   1   8
TORSDOF 5
ENDMDL
MODEL 6
REMARK VINA RESULT:      -4.2      5.122      6.370
REMARK  Name = *****
REMARK                            x       y       z     vdW  Elec       q    Type
REMARK                         _______ _______ _______ _____ _____    ______ ____
ROOT
ATOM      1  C   LIG    1       25.755 -16.488   3.306  0.00  0.00    +0.044 C 
ENDROOT
BRANCH   1   2
ATOM      2  C   LIG    1       25.757 -18.020   3.287  0.00  0.00    +0.105 C 
BRANCH   2   5
ATOM      3  C   LIG    1       23.002 -20.223   4.661  0.00  0.00    +0.109 C 
ATOM      4  C   LIG    1       24.405 -19.800   4.337  0.00  0.00    +0.210 C 
ATOM      5  N   LIG    1       24.483 -18.596   3.670  0.00  0.00    -0.316 N 
ATOM      6  H   LIG    1       23.668 -17.992   3.658  0.00  0.00    +0.149 HD
ATOM      7  O   LIG    1       25.377 -20.501   4.595  0.00  0.00    -0.276 OA
ENDBRANCH   2   5
ENDBRANCH   1   2
BRANCH   1   8
ATOM      8  C   LIG    1       27.095 -15.857   3.675  0.00  0.00    +0.199 C 
BRANCH   8   9
ATOM      9  S   LIG    1       27.132 -14.090   3.407  0.00  0.00    +0.080 S 
ATOM     10  O   LIG    1       28.472 -13.593   3.636  0.00  0.00    -0.147 OA
ATOM     11  O   LIG    1       25.966 -13.456   3.969  0.00  0.00    -0.147 OA
BRANCH   9  12
ATOM     12  O   LIG    1       26.868 -14.094   1.816  0.00  0.00    -0.254 OA
ATOM     13  H   LIG    1       27.612 -13.603   1.398  0.00  0.00    +0.244 HD
ENDBRANCH   9  12
ENDBRANCH   8   9
ENDBRANCH   1   8
TORSDOF 5
ENDMDL
MODEL 7
REMARK VINA RESULT:      -4.0      3.050      5.483
REMARK  Name = *****
REMARK                            x       y       z     vdW  Elec       q    Type
REMARK                         _______ _______ _______ _____ _____    ______ ____
ROOT
ATOM      1  C   LIG    1       25.791 -20.581   5.604  0.00  0.00    +0.044 C 
ENDROOT
BRANCH   1   2
ATOM      2  C   LIG    1       24.410 -21.217   5.792  0.00  0.00    +0.105 C 
BRANCH   2   5
ATOM      3  C   LIG    1       22.044 -18.585   4.450  0.00  0.00    +0.109 C 
ATOM      4  C   LIG    1       23.254 -19.474   4.482  0.00  0.00    +0.210 C 
ATOM      5  N   LIG    1       23.321 -20.282   5.596  0.00  0.00    -0.316 N 
ATOM      6  H   LIG    1       22.488 -20.400   6.163  0.00  0.00    +0.149 HD
ATOM      7  O   LIG    1       24.122 -19.430   3.617  0.00  0.00    -0.276 OA
ENDBRANCH   2   5
ENDBRANCH   1   2
BRANCH   1   8
ATOM      8  C   LIG    1       26.579 -20.383   6.897  0.00  0.00    +0.199 C 
BRANCH   8   9
ATOM      9  S   LIG    1       28.346 -20.307   6.633  0.00  0.00    +0.080 S 
ATOM     10  O   LIG    1       28.946 -21.569   7.009  0.00  0.00    -0.147 OA
ATOM     11  O   LIG    1       28.880 -19.039   7.062  0.00  0.00    -0.147 OA
BRANCH   9  12
ATOM     12  O   LIG    1       28.334 -20.222   5.022  0.00  0.00    -0.254 OA
ATOM     13  H   LIG    1       27.866 -21.023   4.694  0.00  0.00    +0.244 HD
ENDBRANCH   9  12
ENDBRANCH   8   9
ENDBRANCH   1   8
TORSDOF 5
ENDMDL
MODEL 8
REMARK VINA RESULT:      -4.0      2.696      3.340
REMARK  Name = *****
REMARK                            x       y       z     vdW  Elec       q    Type
REMARK                         _______ _______ _______ _____ _____    ______ ____
ROOT
ATOM      1  C   LIG    1       25.350 -19.578   4.026  0.00  0.00    +0.044 C 
ENDROOT
BRANCH   1   2
ATOM      2  C   LIG    1       25.047 -18.243   3.339  0.00  0.00    +0.105 C 
BRANCH   2   5
ATOM      3  C   LIG    1       27.287 -15.197   3.524  0.00  0.00    +0.109 C 
ATOM      4  C   LIG    1       26.003 -15.975   3.532  0.00  0.00    +0.210 C 
ATOM      5  N   LIG    1       26.173 -17.330   3.347  0.00  0.00    -0.316 N 
ATOM      6  H   LIG    1       27.101 -17.724   3.457  0.00  0.00    +0.149 HD
ATOM      7  O   LIG    1       24.908 -15.432   3.633  0.00  0.00    -0.276 OA
ENDBRANCH   2   5
ENDBRANCH   1   2
BRANCH   1   8
ATOM      8  C   LIG    1       24.188 -20.568   4.027  0.00  0.00    +0.199 C 
BRANCH   8   9
ATOM      9  S   LIG    1       22.993 -20.241   5.317  0.00  0.00    +0.080 S 
ATOM     10  O   LIG    1       22.286 -19.013   5.022  0.00  0.00    -0.147 OA
ATOM     11  O   LIG    1       23.545 -20.521   6.618  0.00  0.00    -0.147 OA
BRANCH   9  12
ATOM     12  O   LIG    1       21.995 -21.473   5.023  0.00  0.00    -0.254 OA
ATOM     13  H   LIG    1       22.311 -22.236   5.558  0.00  0.00    +0.244 HD
ENDBRANCH   9  12
ENDBRANCH   8   9
ENDBRANCH   1   8
TORSDOF 5
ENDMDL
MODEL 9
REMARK VINA RESULT:      -3.8      3.791      3.953
REMARK  Name = *****
REMARK                            x       y       z     vdW  Elec       q    Type
REMARK                         _______ _______ _______ _____ _____    ______ ____
ROOT
ATOM      1  C   LIG    1       24.989 -18.490   3.413  0.00  0.00    +0.044 C 
ENDROOT
BRANCH   1   2
ATOM      2  C   LIG    1       26.099 -17.443   3.280  0.00  0.00    +0.105 C 
BRANCH   2   5
ATOM      3  C   LIG    1       25.724 -13.678   3.368  0.00  0.00    +0.109 C 
ATOM      4  C   LIG    1       26.422 -15.003   3.467  0.00  0.00    +0.210 C 
ATOM      5  N   LIG    1       25.598 -16.084   3.240  0.00  0.00    -0.316 N 
ATOM      6  H   LIG    1       24.694 -15.925   2.808  0.00  0.00    +0.149 HD
ATOM      7  O   LIG    1       27.603 -15.099   3.781  0.00  0.00    -0.276 OA
ENDBRANCH   2   5
ENDBRANCH   1   2
BRANCH   1   8
ATOM      8  C   LIG    1       25.403 -19.763   4.147  0.00  0.00    +0.199 C 
BRANCH   8   9
ATOM      9  S   LIG    1       24.030 -20.587   4.944  0.00  0.00    +0.080 S 
ATOM     10  O   LIG    1       22.949 -19.645   5.141  0.00  0.00    -0.147 OA
ATOM     11  O   LIG    1       24.489 -21.467   5.988  0.00  0.00    -0.147 OA
BRANCH   9  12
ATOM     12  O   LIG    1       23.619 -21.570   3.732  0.00  0.00    -0.254 OA
ATOM     13  H   LIG    1       24.036 -21.213   2.916  0.00  0.00    +0.244 HD
ENDBRANCH   9  12
ENDBRANCH   8   9
ENDBRANCH   1   8
TORSDOF 5
ENDMDL
