MODEL 1
REMARK VINA RESULT:      -5.8      0.000      0.000
REMARK  Name = *****
REMARK                            x       y       z     vdW  Elec       q    Type
REMARK                         _______ _______ _______ _____ _____    ______ ____
ROOT
ATOM      1  C   LIG    1       22.553 -16.472   4.711  0.00  0.00    +0.000 C 
ENDROOT
BRANCH   1   2
ATOM      2  C   LIG    1       22.353 -17.966   4.371  0.00  0.00    -0.000 C 
BRANCH   2   3
ATOM      3  C   LIG    1       23.580 -18.804   3.957  0.00  0.00    -0.000 C 
BRANCH   3   4
ATOM      4  C   LIG    1       23.407 -20.294   4.285  0.00  0.00    -0.000 C 
BRANCH   4   5
ATOM      5  C   LIG    1       22.573 -20.613   5.535  0.00  0.00    -0.000 C 
BRANCH   5   6
ATOM      6  C   LIG    1       23.420 -20.628   6.826  0.00  0.00    -0.000 C 
BRANCH   6   7
ATOM      7  C   LIG    1       24.773 -21.359   6.803  0.00  0.00    -0.000 C 
BRANCH   7   9
ATOM      8  C   LIG    1       26.855 -20.254   5.814  0.00  0.00    +0.004 C 
ATOM      9  C   LIG    1       26.018 -20.510   7.061  0.00  0.00    -0.003 C 
ENDBRANCH   7   9
ENDBRANCH   6   7
ENDBRANCH   5   6
ENDBRANCH   4   5
ENDBRANCH   3   4
ENDBRANCH   2   3
ENDBRANCH   1   2
BRANCH   1  10
ATOM     10  C   LIG    1       23.789 -15.747   4.142  0.00  0.00    +0.002 C 
BRANCH  10  11
ATOM     11  C   LIG    1       23.600 -14.229   4.244  0.00  0.00    +0.030 C 
BRANCH  11  12
ATOM     12  C   LIG    1       24.792 -13.346   3.880  0.00  0.00    +0.196 C 
BRANCH  12  13
ATOM     13  O   LIG    1       26.027 -13.825   4.384  0.00  0.00    -0.216 OA
BRANCH  13  14
ATOM     14  S   LIG    1       27.240 -14.182   3.365  0.00  0.00    +0.207 S 
ATOM     15  O   LIG    1       28.372 -13.353   3.643  0.00  0.00    -0.118 OA
ATOM     16  O   LIG    1       26.711 -14.314   2.007  0.00  0.00    -0.118 OA
BRANCH  14  17
ATOM     17  O   LIG    1       27.646 -15.666   3.818  0.00  0.00    -0.231 OA
ATOM     18  H   LIG    1       26.878 -16.245   3.624  0.00  0.00    +0.247 HD
ENDBRANCH  14  17
ENDBRANCH  13  14
ENDBRANCH  12  13
ENDBRANCH  11  12
ENDBRANCH  10  11
ENDBRANCH   1  10
TORSDOF 13
ENDMDL
MODEL 2
REMARK VINA RESULT:      -5.5      1.002      2.367
REMARK  Name = *****
REMARK                            x       y       z     vdW  Elec       q    Type
REMARK                         _______ _______ _______ _____ _____    ______ ____
ROOT
ATOM      1  C   LIG    1       23.986 -14.330   4.631  0.00  0.00    +0.000 C 
ENDROOT
BRANCH   1   2
ATOM      2  C   LIG    1       23.105 -15.459   4.051  0.00  0.00    -0.000 C 
BRANCH   2   3
ATOM      3  C   LIG    1       22.370 -16.403   5.025  0.00  0.00    -0.000 C 
BRANCH   3   4
ATOM      4  C   LIG    1       22.154 -17.802   4.431  0.00  0.00    -0.000 C 
BRANCH   4   5
ATOM      5  C   LIG    1       23.423 -18.553   4.004  0.00  0.00    -0.000 C 
BRANCH   5   6
ATOM      6  C   LIG    1       23.505 -19.973   4.605  0.00  0.00    -0.000 C 
BRANCH   6   7
ATOM      7  C   LIG    1       22.819 -20.233   5.957  0.00  0.00    -0.000 C 
BRANCH   7   9
ATOM      8  C   LIG    1       25.174 -20.722   6.824  0.00  0.00    +0.004 C 
ATOM      9  C   LIG    1       23.675 -20.877   7.049  0.00  0.00    -0.003 C 
ENDBRANCH   7   9
ENDBRANCH   6   7
ENDBRANCH   5   6
ENDBRANCH   4   5
ENDBRANCH   3   4
ENDBRANCH   2   3
ENDBRANCH   1   2
BRANCH   1  10
ATOM     10  C   LIG    1       23.984 -12.960   3.924  0.00  0.00    +0.002 C 
BRANCH  10  11
ATOM     11  C   LIG    1       24.490 -13.112   2.484  0.00  0.00    +0.030 C 
BRANCH  11  12
ATOM     12  C   LIG    1       25.878 -13.715   2.286  0.00  0.00    +0.196 C 
BRANCH  12  13
ATOM     13  O   LIG    1       26.923 -12.920   2.819  0.00  0.00    -0.216 OA
BRANCH  13  14
ATOM     14  S   LIG    1       27.870 -13.503   4.003  0.00  0.00    +0.207 S 
ATOM     15  O   LIG    1       27.274 -13.243   5.278  0.00  0.00    -0.118 OA
ATOM     16  O   LIG    1       29.263 -13.148   3.730  0.00  0.00    -0.118 OA
BRANCH  14  17
ATOM     17  O   LIG    1       27.773 -15.087   3.775  0.00  0.00    -0.231 OA
ATOM     18  H   LIG    1       28.691 -15.420   3.679  0.00  0.00    +0.247 HD
ENDBRANCH  14  17
ENDBRANCH  13  14
ENDBRANCH  12  13
ENDBRANCH  11  12
ENDBRANCH  10  11
ENDBRANCH   1  10
TORSDOF 13
ENDMDL
MODEL 3
REMARK VINA RESULT:      -5.4      1.117      2.038
REMARK  Name = *****
REMARK                            x       y       z     vdW  Elec       q    Type
REMARK                         _______ _______ _______ _____ _____    ______ ____
ROOT
ATOM      1  C   LIG    1       22.578 -15.823   4.122  0.00  0.00    +0.000 C 
ENDROOT
BRANCH   1   2
ATOM      2  C   LIG    1       22.410 -17.066   5.024  0.00  0.00    -0.000 C 
BRANCH   2   3
ATOM      3  C   LIG    1       22.211 -18.445   4.361  0.00  0.00    -0.000 C 
BRANCH   3   4
ATOM      4  C   LIG    1       22.403 -19.602   5.352  0.00  0.00    -0.000 C 
BRANCH   4   5
ATOM      5  C   LIG    1       23.320 -20.741   4.883  0.00  0.00    -0.000 C 
BRANCH   5   6
ATOM      6  C   LIG    1       24.723 -20.677   5.524  0.00  0.00    -0.000 C 
BRANCH   6   7
ATOM      7  C   LIG    1       25.849 -19.972   4.748  0.00  0.00    -0.000 C 
BRANCH   7   9
ATOM      8  C   LIG    1       25.797 -17.851   3.322  0.00  0.00    +0.004 C 
ATOM      9  C   LIG    1       25.468 -19.336   3.410  0.00  0.00    -0.003 C 
ENDBRANCH   7   9
ENDBRANCH   6   7
ENDBRANCH   5   6
ENDBRANCH   4   5
ENDBRANCH   3   4
ENDBRANCH   2   3
ENDBRANCH   1   2
BRANCH   1  10
ATOM     10  C   LIG    1       23.757 -14.867   4.399  0.00  0.00    +0.002 C 
BRANCH  10  11
ATOM     11  C   LIG    1       23.684 -13.659   3.458  0.00  0.00    +0.030 C 
BRANCH  11  12
ATOM     12  C   LIG    1       24.944 -12.810   3.305  0.00  0.00    +0.196 C 
BRANCH  12  13
ATOM     13  O   LIG    1       26.058 -13.315   4.021  0.00  0.00    -0.216 OA
BRANCH  13  14
ATOM     14  S   LIG    1       27.265 -14.062   3.231  0.00  0.00    +0.207 S 
ATOM     15  O   LIG    1       26.868 -14.344   1.886  0.00  0.00    -0.118 OA
ATOM     16  O   LIG    1       27.834 -15.102   4.089  0.00  0.00    -0.118 OA
BRANCH  14  17
ATOM     17  O   LIG    1       28.382 -12.914   3.142  0.00  0.00    -0.231 OA
ATOM     18  H   LIG    1       28.717 -12.913   2.220  0.00  0.00    +0.247 HD
ENDBRANCH  14  17
ENDBRANCH  13  14
ENDBRANCH  12  13
ENDBRANCH  11  12
ENDBRANCH  10  11
ENDBRANCH   1  10
TORSDOF 13
ENDMDL
MODEL 4
REMARK VINA RESULT:      -5.4      2.114      3.407
REMARK  Name = *****
REMARK                            x       y       z     vdW  Elec       q    Type
REMARK                         _______ _______ _______ _____ _____    ______ ____
ROOT
ATOM      1  C   LIG    1       25.560 -17.740   3.302  0.00  0.00    +0.000 C 
ENDROOT
BRANCH   1   2
ATOM      2  C   LIG    1       25.473 -19.227   3.716  0.00  0.00    -0.000 C 
BRANCH   2   3
ATOM      3  C   LIG    1       26.363 -19.730   4.871  0.00  0.00    -0.000 C 
BRANCH   3   4
ATOM      4  C   LIG    1       25.737 -20.921   5.613  0.00  0.00    -0.000 C 
BRANCH   4   5
ATOM      5  C   LIG    1       25.169 -20.618   7.007  0.00  0.00    -0.000 C 
BRANCH   5   6
ATOM      6  C   LIG    1       23.631 -20.739   7.062  0.00  0.00    -0.000 C 
BRANCH   6   7
ATOM      7  C   LIG    1       22.920 -21.521   5.944  0.00  0.00    -0.000 C 
BRANCH   7   9
ATOM      8  C   LIG    1       22.343 -19.191   5.066  0.00  0.00    +0.004 C 
ATOM      9  C   LIG    1       22.189 -20.696   4.884  0.00  0.00    -0.003 C 
ENDBRANCH   7   9
ENDBRANCH   6   7
ENDBRANCH   5   6
ENDBRANCH   4   5
ENDBRANCH   3   4
ENDBRANCH   2   3
ENDBRANCH   1   2
BRANCH   1  10
ATOM     10  C   LIG    1       26.842 -16.956   3.647  0.00  0.00    +0.002 C 
BRANCH  10  11
ATOM     11  C   LIG    1       26.696 -15.494   3.207  0.00  0.00    +0.030 C 
BRANCH  11  12
ATOM     12  C   LIG    1       26.495 -14.447   4.300  0.00  0.00    +0.196 C 
BRANCH  12  13
ATOM     13  O   LIG    1       25.827 -13.281   3.851  0.00  0.00    -0.216 OA
BRANCH  13  14
ATOM     14  S   LIG    1       24.211 -13.167   3.975  0.00  0.00    +0.207 S 
ATOM     15  O   LIG    1       23.855 -11.930   4.599  0.00  0.00    -0.118 OA
ATOM     16  O   LIG    1       23.670 -14.441   4.450  0.00  0.00    -0.118 OA
BRANCH  14  17
ATOM     17  O   LIG    1       23.755 -13.047   2.442  0.00  0.00    -0.231 OA
ATOM     18  H   LIG    1       22.786 -13.199   2.418  0.00  0.00    +0.247 HD
ENDBRANCH  14  17
ENDBRANCH  13  14
ENDBRANCH  12  13
ENDBRANCH  11  12
ENDBRANCH  10  11
ENDBRANCH   1  10
TORSDOF 13
ENDMDL
MODEL 5
REMARK VINA RESULT:      -5.1      2.091      2.822
REMARK  Name = *****
REMARK                            x       y       z     vdW  Elec       q    Type
REMARK                         _______ _______ _______ _____ _____    ______ ____
ROOT
ATOM      1  C   LIG    1       26.262 -17.522   3.542  0.00  0.00    +0.000 C 
ENDROOT
BRANCH   1   2
ATOM      2  C   LIG    1       25.356 -18.601   2.907  0.00  0.00    -0.000 C 
BRANCH   2   3
ATOM      3  C   LIG    1       24.542 -19.527   3.834  0.00  0.00    -0.000 C 
BRANCH   3   4
ATOM      4  C   LIG    1       23.147 -18.964   4.143  0.00  0.00    -0.000 C 
BRANCH   4   5
ATOM      5  C   LIG    1       22.334 -19.726   5.199  0.00  0.00    -0.000 C 
BRANCH   5   6
ATOM      6  C   LIG    1       23.075 -20.970   5.736  0.00  0.00    -0.000 C 
BRANCH   6   7
ATOM      7  C   LIG    1       23.875 -20.836   7.043  0.00  0.00    -0.000 C 
BRANCH   7   9
ATOM      8  C   LIG    1       26.396 -20.449   6.878  0.00  0.00    +0.004 C 
ATOM      9  C   LIG    1       25.271 -21.459   7.062  0.00  0.00    -0.003 C 
ENDBRANCH   7   9
ENDBRANCH   6   7
ENDBRANCH   5   6
ENDBRANCH   4   5
ENDBRANCH   3   4
ENDBRANCH   2   3
ENDBRANCH   1   2
BRANCH   1  10
ATOM     10  C   LIG    1       25.876 -16.040   3.363  0.00  0.00    +0.002 C 
BRANCH  10  11
ATOM     11  C   LIG    1       27.136 -15.167   3.355  0.00  0.00    +0.030 C 
BRANCH  11  12
ATOM     12  C   LIG    1       26.991 -13.726   2.873  0.00  0.00    +0.196 C 
BRANCH  12  13
ATOM     13  O   LIG    1       25.767 -13.472   2.206  0.00  0.00    -0.216 OA
BRANCH  13  14
ATOM     14  S   LIG    1       24.573 -12.675   2.965  0.00  0.00    +0.207 S 
ATOM     15  O   LIG    1       24.218 -11.504   2.223  0.00  0.00    -0.118 OA
ATOM     16  O   LIG    1       24.868 -12.606   4.396  0.00  0.00    -0.118 OA
BRANCH  14  17
ATOM     17  O   LIG    1       23.337 -13.689   2.825  0.00  0.00    -0.231 OA
ATOM     18  H   LIG    1       22.576 -13.277   3.286  0.00  0.00    +0.247 HD
ENDBRANCH  14  17
ENDBRANCH  13  14
ENDBRANCH  12  13
ENDBRANCH  11  12
ENDBRANCH  10  11
ENDBRANCH   1  10
TORSDOF 13
ENDMDL
MODEL 6
REMARK VINA RESULT:      -4.9      3.655      6.593
REMARK  Name = *****
REMARK                            x       y       z     vdW  Elec       q    Type
REMARK                         _______ _______ _______ _____ _____    ______ ____
ROOT
ATOM      1  C   LIG    1       22.031 -16.581   4.820  0.00  0.00    +0.000 C 
ENDROOT
BRANCH   1   2
ATOM      2  C   LIG    1       22.809 -15.265   5.049  0.00  0.00    -0.000 C 
BRANCH   2   3
ATOM      3  C   LIG    1       23.892 -14.855   4.029  0.00  0.00    -0.000 C 
BRANCH   3   4
ATOM      4  C   LIG    1       23.950 -13.335   3.819  0.00  0.00    -0.000 C 
BRANCH   4   5
ATOM      5  C   LIG    1       24.661 -12.861   2.544  0.00  0.00    -0.000 C 
BRANCH   5   6
ATOM      6  C   LIG    1       25.929 -13.684   2.229  0.00  0.00    -0.000 C 
BRANCH   6   7
ATOM      7  C   LIG    1       27.217 -13.366   3.007  0.00  0.00    -0.000 C 
BRANCH   7   9
ATOM      8  C   LIG    1       27.180 -13.500   5.559  0.00  0.00    +0.004 C 
ATOM      9  C   LIG    1       27.496 -14.211   4.250  0.00  0.00    -0.003 C 
ENDBRANCH   7   9
ENDBRANCH   6   7
ENDBRANCH   5   6
ENDBRANCH   4   5
ENDBRANCH   3   4
ENDBRANCH   2   3
ENDBRANCH   1   2
BRANCH   1  10
ATOM     10  C   LIG    1       22.778 -17.777   4.197  0.00  0.00    +0.002 C 
BRANCH  10  11
ATOM     11  C   LIG    1       21.975 -19.066   4.410  0.00  0.00    +0.030 C 
BRANCH  11  12
ATOM     12  C   LIG    1       22.561 -20.111   5.356  0.00  0.00    +0.196 C 
BRANCH  12  13
ATOM     13  O   LIG    1       23.909 -19.860   5.714  0.00  0.00    -0.216 OA
BRANCH  13  14
ATOM     14  S   LIG    1       25.114 -20.646   4.960  0.00  0.00    +0.207 S 
ATOM     15  O   LIG    1       24.575 -21.571   4.011  0.00  0.00    -0.118 OA
ATOM     16  O   LIG    1       26.112 -21.064   5.945  0.00  0.00    -0.118 OA
BRANCH  14  17
ATOM     17  O   LIG    1       25.808 -19.478   4.107  0.00  0.00    -0.231 OA
ATOM     18  H   LIG    1       26.204 -19.899   3.315  0.00  0.00    +0.247 HD
ENDBRANCH  14  17
ENDBRANCH  13  14
ENDBRANCH  12  13
ENDBRANCH  11  12
ENDBRANCH  10  11
ENDBRANCH   1  10
TORSDOF 13
ENDMDL
MODEL 7
REMARK VINA RESULT:      -4.9      1.797      2.407
REMARK  Name = *****
REMARK                            x       y       z     vdW  Elec       q    Type
REMARK                         _______ _______ _______ _____ _____    ______ ____
ROOT
ATOM      1  C   LIG    1       23.980 -19.048   3.464  0.00  0.00    +0.000 C 
ENDROOT
BRANCH   1   2
ATOM      2  C   LIG    1       22.762 -18.932   4.408  0.00  0.00    -0.000 C 
BRANCH   2   3
ATOM      3  C   LIG    1       22.010 -20.218   4.812  0.00  0.00    -0.000 C 
BRANCH   3   4
ATOM      4  C   LIG    1       22.949 -21.284   5.394  0.00  0.00    -0.000 C 
BRANCH   4   5
ATOM      5  C   LIG    1       23.419 -21.048   6.837  0.00  0.00    -0.000 C 
BRANCH   5   6
ATOM      6  C   LIG    1       24.886 -21.477   7.062  0.00  0.00    -0.000 C 
BRANCH   6   7
ATOM      7  C   LIG    1       25.981 -20.399   6.983  0.00  0.00    -0.000 C 
BRANCH   7   9
ATOM      8  C   LIG    1       28.217 -19.887   5.855  0.00  0.00    +0.004 C 
ATOM      9  C   LIG    1       27.398 -20.881   6.669  0.00  0.00    -0.003 C 
ENDBRANCH   7   9
ENDBRANCH   6   7
ENDBRANCH   5   6
ENDBRANCH   4   5
ENDBRANCH   3   4
ENDBRANCH   2   3
ENDBRANCH   1   2
BRANCH   1  10
ATOM     10  C   LIG    1       25.340 -18.507   3.950  0.00  0.00    +0.002 C 
BRANCH  10  11
ATOM     11  C   LIG    1       25.839 -17.413   2.999  0.00  0.00    +0.030 C 
BRANCH  11  12
ATOM     12  C   LIG    1       26.850 -16.410   3.550  0.00  0.00    +0.196 C 
BRANCH  12  13
ATOM     13  O   LIG    1       26.840 -15.165   2.873  0.00  0.00    -0.216 OA
BRANCH  13  14
ATOM     14  S   LIG    1       26.894 -13.777   3.714  0.00  0.00    +0.207 S 
ATOM     15  O   LIG    1       28.077 -13.047   3.376  0.00  0.00    -0.118 OA
ATOM     16  O   LIG    1       26.538 -14.041   5.109  0.00  0.00    -0.118 OA
BRANCH  14  17
ATOM     17  O   LIG    1       25.663 -12.953   3.100  0.00  0.00    -0.231 OA
ATOM     18  H   LIG    1       25.284 -13.498   2.379  0.00  0.00    +0.247 HD
ENDBRANCH  14  17
ENDBRANCH  13  14
ENDBRANCH  12  13
ENDBRANCH  11  12
ENDBRANCH  10  11
ENDBRANCH   1  10
TORSDOF 13
ENDMDL
MODEL 8
REMARK VINA RESULT:      -4.9      4.431      7.221
REMARK  Name = *****
REMARK                            x       y       z     vdW  Elec       q    Type
REMARK                         _______ _______ _______ _____ _____    ______ ____
ROOT
ATOM      1  C   LIG    1       26.034 -16.344   3.236  0.00  0.00    +0.000 C 
ENDROOT
BRANCH   1   2
ATOM      2  C   LIG    1       27.105 -15.328   3.694  0.00  0.00    -0.000 C 
BRANCH   2   3
ATOM      3  C   LIG    1       27.484 -14.170   2.747  0.00  0.00    -0.000 C 
BRANCH   3   4
ATOM      4  C   LIG    1       26.521 -12.980   2.866  0.00  0.00    -0.000 C 
BRANCH   4   5
ATOM      5  C   LIG    1       25.279 -13.030   1.964  0.00  0.00    -0.000 C 
BRANCH   5   6
ATOM      6  C   LIG    1       23.960 -12.963   2.764  0.00  0.00    -0.000 C 
BRANCH   6   7
ATOM      7  C   LIG    1       24.041 -12.807   4.293  0.00  0.00    -0.000 C 
BRANCH   7   9
ATOM      8  C   LIG    1       23.091 -15.176   4.432  0.00  0.00    +0.004 C 
ATOM      9  C   LIG    1       23.898 -14.083   5.122  0.00  0.00    -0.003 C 
ENDBRANCH   7   9
ENDBRANCH   6   7
ENDBRANCH   5   6
ENDBRANCH   4   5
ENDBRANCH   3   4
ENDBRANCH   2   3
ENDBRANCH   1   2
BRANCH   1  10
ATOM     10  C   LIG    1       26.360 -17.848   3.329  0.00  0.00    +0.002 C 
BRANCH  10  11
ATOM     11  C   LIG    1       25.068 -18.655   3.494  0.00  0.00    +0.030 C 
BRANCH  11  12
ATOM     12  C   LIG    1       25.152 -19.967   4.272  0.00  0.00    +0.196 C 
BRANCH  12  13
ATOM     13  O   LIG    1       23.955 -20.724   4.237  0.00  0.00    -0.216 OA
BRANCH  13  14
ATOM     14  S   LIG    1       22.776 -20.438   5.318  0.00  0.00    +0.207 S 
ATOM     15  O   LIG    1       22.173 -19.166   5.058  0.00  0.00    -0.118 OA
ATOM     16  O   LIG    1       23.247 -20.795   6.656  0.00  0.00    -0.118 OA
BRANCH  14  17
ATOM     17  O   LIG    1       21.680 -21.544   4.933  0.00  0.00    -0.231 OA
ATOM     18  H   LIG    1       22.099 -22.150   4.286  0.00  0.00    +0.247 HD
ENDBRANCH  14  17
ENDBRANCH  13  14
ENDBRANCH  12  13
ENDBRANCH  11  12
ENDBRANCH  10  11
ENDBRANCH   1  10
TORSDOF 13
ENDMDL
MODEL 9
REMARK VINA RESULT:      -4.8      1.184      2.120
REMARK  Name = *****
REMARK                            x       y       z     vdW  Elec       q    Type
REMARK                         _______ _______ _______ _____ _____    ______ ____
ROOT
ATOM      1  C   LIG    1       21.917 -18.080   4.342  0.00  0.00    +0.000 C 
ENDROOT
BRANCH   1   2
ATOM      2  C   LIG    1       22.168 -19.592   4.541  0.00  0.00    -0.000 C 
BRANCH   2   3
ATOM      3  C   LIG    1       23.506 -20.049   5.159  0.00  0.00    -0.000 C 
BRANCH   3   4
ATOM      4  C   LIG    1       23.321 -20.696   6.539  0.00  0.00    -0.000 C 
BRANCH   4   5
ATOM      5  C   LIG    1       24.511 -21.515   7.061  0.00  0.00    -0.000 C 
BRANCH   5   6
ATOM      6  C   LIG    1       25.802 -21.271   6.250  0.00  0.00    -0.000 C 
BRANCH   6   7
ATOM      7  C   LIG    1       26.919 -20.429   6.892  0.00  0.00    -0.000 C 
BRANCH   7   9
ATOM      8  C   LIG    1       29.440 -20.033   6.755  0.00  0.00    +0.004 C 
ATOM      9  C   LIG    1       28.115 -20.083   6.005  0.00  0.00    -0.003 C 
ENDBRANCH   7   9
ENDBRANCH   6   7
ENDBRANCH   5   6
ENDBRANCH   4   5
ENDBRANCH   3   4
ENDBRANCH   2   3
ENDBRANCH   1   2
BRANCH   1  10
ATOM     10  C   LIG    1       23.131 -17.160   4.100  0.00  0.00    +0.002 C 
BRANCH  10  11
ATOM     11  C   LIG    1       22.909 -15.809   4.789  0.00  0.00    +0.030 C 
BRANCH  11  12
ATOM     12  C   LIG    1       23.857 -14.669   4.423  0.00  0.00    +0.196 C 
BRANCH  12  13
ATOM     13  O   LIG    1       24.943 -15.074   3.608  0.00  0.00    -0.216 OA
BRANCH  13  14
ATOM     14  S   LIG    1       26.339 -14.245   3.636  0.00  0.00    +0.207 S 
ATOM     15  O   LIG    1       26.302 -13.192   2.668  0.00  0.00    -0.118 OA
ATOM     16  O   LIG    1       27.460 -15.184   3.694  0.00  0.00    -0.118 OA
BRANCH  14  17
ATOM     17  O   LIG    1       26.292 -13.537   5.075  0.00  0.00    -0.231 OA
ATOM     18  H   LIG    1       26.494 -12.588   4.934  0.00  0.00    +0.247 HD
ENDBRANCH  14  17
ENDBRANCH  13  14
ENDBRANCH  12  13
ENDBRANCH  11  12
ENDBRANCH  10  11
ENDBRANCH   1  10
TORSDOF 13
ENDMDL
