MODEL 1
REMARK VINA RESULT:      -4.7      0.000      0.000
REMARK  Name = *****
REMARK                            x       y       z     vdW  Elec       q    Type
REMARK                         _______ _______ _______ _____ _____    ______ ____
ROOT
ATOM      1  C   LIG    1       25.373 -14.764   3.709  0.00  0.00    -0.017 C 
ATOM      2  C   LIG    1       24.892 -16.111   3.695  0.00  0.00    +0.042 C 
ATOM      3  C   LIG    1       25.524 -17.370   3.303  0.00  0.00    +0.169 C 
ATOM      4  C   LIG    1       24.708 -18.657   3.518  0.00  0.00    +0.075 C 
ATOM      5  C   LIG    1       23.181 -18.415   3.491  0.00  0.00    +0.019 C 
ATOM      6  C   LIG    1       22.704 -17.256   4.377  0.00  0.00    +0.055 C 
ATOM      7  O   LIG    1       26.678 -17.425   2.887  0.00  0.00    -0.292 OA
ATOM      8  C   LIG    1       23.597 -16.088   4.171  0.00  0.00    +0.027 C 
ATOM      9  N   LIG    1       23.255 -14.794   4.439  0.00  0.00    -0.361 NA
ATOM     10  H   LIG    1       22.355 -14.482   4.784  0.00  0.00    +0.165 HD
ATOM     11  C   LIG    1       24.330 -13.976   4.186  0.00  0.00    +0.017 C 
ATOM     12  C   LIG    1       24.235 -12.513   4.435  0.00  0.00    +0.063 C 
ENDROOT
BRANCH   1  14
ATOM     13  C   LIG    1       27.567 -13.807   4.480  0.00  0.00    +0.009 C 
ATOM     14  C   LIG    1       26.736 -14.290   3.300  0.00  0.00    +0.034 C 
ENDBRANCH   1  14
BRANCH   4  15
ATOM     15  C   LIG    1       25.231 -19.317   4.810  0.00  0.00    +0.096 C 
BRANCH  15  16
ATOM     16  N   LIG    1       25.114 -20.789   4.868  0.00  0.00    -0.297 NA
ATOM     17  C   LIG    1       25.142 -21.341   6.243  0.00  0.00    +0.112 C 
ATOM     18  C   LIG    1       23.868 -21.070   7.062  0.00  0.00    +0.175 C 
ATOM     19  O   LIG    1       22.707 -21.572   6.389  0.00  0.00    -0.377 OA
ATOM     20  C   LIG    1       22.585 -20.986   5.088  0.00  0.00    +0.175 C 
ATOM     21  C   LIG    1       23.845 -21.239   4.236  0.00  0.00    +0.112 C 
ENDBRANCH  15  16
ENDBRANCH   4  15
TORSDOF 3
ENDMDL
MODEL 2
REMARK VINA RESULT:      -3.7      1.341      1.834
REMARK  Name = *****
REMARK                            x       y       z     vdW  Elec       q    Type
REMARK                         _______ _______ _______ _____ _____    ______ ____
ROOT
ATOM      1  C   LIG    1       25.199 -15.271   3.753  0.00  0.00    -0.017 C 
ATOM      2  C   LIG    1       24.258 -16.335   3.924  0.00  0.00    +0.042 C 
ATOM      3  C   LIG    1       24.354 -17.773   3.678  0.00  0.00    +0.169 C 
ATOM      4  C   LIG    1       23.141 -18.631   4.079  0.00  0.00    +0.075 C 
ATOM      5  C   LIG    1       21.811 -17.842   4.064  0.00  0.00    +0.019 C 
ATOM      6  C   LIG    1       21.859 -16.501   4.808  0.00  0.00    +0.055 C 
ATOM      7  O   LIG    1       25.373 -18.299   3.241  0.00  0.00    -0.292 OA
ATOM      8  C   LIG    1       23.100 -15.779   4.429  0.00  0.00    +0.027 C 
ATOM      9  N   LIG    1       23.276 -14.430   4.539  0.00  0.00    -0.361 NA
ATOM     10  H   LIG    1       22.582 -13.770   4.866  0.00  0.00    +0.165 HD
ATOM     11  C   LIG    1       24.555 -14.104   4.154  0.00  0.00    +0.017 C 
ATOM     12  C   LIG    1       25.021 -12.694   4.216  0.00  0.00    +0.063 C 
ENDROOT
BRANCH   1  14
ATOM     13  C   LIG    1       27.596 -14.589   4.085  0.00  0.00    +0.009 C 
ATOM     14  C   LIG    1       26.606 -15.387   3.248  0.00  0.00    +0.034 C 
ENDBRANCH   1  14
BRANCH   4  15
ATOM     15  C   LIG    1       23.479 -19.294   5.430  0.00  0.00    +0.096 C 
BRANCH  15  16
ATOM     16  N   LIG    1       23.609 -20.766   5.403  0.00  0.00    -0.297 NA
ATOM     17  C   LIG    1       24.583 -21.265   4.404  0.00  0.00    +0.112 C 
ATOM     18  C   LIG    1       26.055 -21.005   4.767  0.00  0.00    +0.175 C 
ATOM     19  O   LIG    1       26.378 -21.567   6.044  0.00  0.00    -0.377 OA
ATOM     20  C   LIG    1       25.522 -21.035   7.061  0.00  0.00    +0.175 C 
ATOM     21  C   LIG    1       24.036 -21.280   6.732  0.00  0.00    +0.112 C 
ENDBRANCH  15  16
ENDBRANCH   4  15
TORSDOF 3
ENDMDL
MODEL 3
REMARK VINA RESULT:      -3.2      2.116      6.356
REMARK  Name = *****
REMARK                            x       y       z     vdW  Elec       q    Type
REMARK                         _______ _______ _______ _____ _____    ______ ____
ROOT
ATOM      1  C   LIG    1       24.393 -20.012   5.021  0.00  0.00    -0.017 C 
ATOM      2  C   LIG    1       25.665 -19.389   4.814  0.00  0.00    +0.042 C 
ATOM      3  C   LIG    1       26.162 -18.512   3.756  0.00  0.00    +0.169 C 
ATOM      4  C   LIG    1       27.586 -17.953   3.925  0.00  0.00    +0.075 C 
ATOM      5  C   LIG    1       28.493 -18.862   4.787  0.00  0.00    +0.019 C 
ATOM      6  C   LIG    1       27.869 -19.306   6.117  0.00  0.00    +0.055 C 
ATOM      7  O   LIG    1       25.465 -18.167   2.806  0.00  0.00    -0.292 OA
ATOM      8  C   LIG    1       26.472 -19.746   5.875  0.00  0.00    +0.027 C 
ATOM      9  N   LIG    1       25.770 -20.581   6.695  0.00  0.00    -0.361 NA
ATOM     10  H   LIG    1       26.123 -21.010   7.542  0.00  0.00    +0.165 HD
ATOM     11  C   LIG    1       24.495 -20.737   6.205  0.00  0.00    +0.017 C 
ATOM     12  C   LIG    1       23.506 -21.572   6.936  0.00  0.00    +0.063 C 
ENDROOT
BRANCH   1  14
ATOM     13  C   LIG    1       22.346 -18.668   4.450  0.00  0.00    +0.009 C 
ATOM     14  C   LIG    1       23.183 -19.901   4.142  0.00  0.00    +0.034 C 
ENDBRANCH   1  14
BRANCH   4  15
ATOM     15  C   LIG    1       27.448 -16.506   4.443  0.00  0.00    +0.096 C 
BRANCH  15  16
ATOM     16  N   LIG    1       27.194 -15.480   3.410  0.00  0.00    -0.297 NA
ATOM     17  C   LIG    1       25.768 -15.094   3.286  0.00  0.00    +0.112 C 
ATOM     18  C   LIG    1       25.236 -14.247   4.454  0.00  0.00    +0.175 C 
ATOM     19  O   LIG    1       26.020 -13.061   4.629  0.00  0.00    -0.377 OA
ATOM     20  C   LIG    1       27.395 -13.393   4.853  0.00  0.00    +0.175 C 
ATOM     21  C   LIG    1       27.964 -14.242   3.699  0.00  0.00    +0.112 C 
ENDBRANCH  15  16
ENDBRANCH   4  15
TORSDOF 3
ENDMDL
MODEL 4
REMARK VINA RESULT:      -1.8      2.287      6.689
REMARK  Name = *****
REMARK                            x       y       z     vdW  Elec       q    Type
REMARK                         _______ _______ _______ _____ _____    ______ ____
ROOT
ATOM      1  C   LIG    1       23.614 -18.775   4.360  0.00  0.00    -0.017 C 
ATOM      2  C   LIG    1       24.303 -17.582   3.974  0.00  0.00    +0.042 C 
ATOM      3  C   LIG    1       23.875 -16.187   3.903  0.00  0.00    +0.169 C 
ATOM      4  C   LIG    1       24.945 -15.147   3.524  0.00  0.00    +0.075 C 
ATOM      5  C   LIG    1       26.089 -15.741   2.669  0.00  0.00    +0.019 C 
ATOM      6  C   LIG    1       26.692 -17.037   3.227  0.00  0.00    +0.055 C 
ATOM      7  O   LIG    1       22.738 -15.831   4.198  0.00  0.00    -0.292 OA
ATOM      8  C   LIG    1       25.594 -17.944   3.647  0.00  0.00    +0.027 C 
ATOM      9  N   LIG    1       25.714 -19.297   3.779  0.00  0.00    -0.361 NA
ATOM     10  H   LIG    1       26.549 -19.836   3.587  0.00  0.00    +0.165 HD
ATOM     11  C   LIG    1       24.526 -19.818   4.234  0.00  0.00    +0.017 C 
ATOM     12  C   LIG    1       24.399 -21.275   4.502  0.00  0.00    +0.063 C 
ENDROOT
BRANCH   1  14
ATOM     13  C   LIG    1       21.194 -18.746   3.676  0.00  0.00    +0.009 C 
ATOM     14  C   LIG    1       22.190 -18.883   4.819  0.00  0.00    +0.034 C 
ENDBRANCH   1  14
BRANCH   4  15
ATOM     15  C   LIG    1       25.406 -14.471   4.832  0.00  0.00    +0.096 C 
BRANCH  15  16
ATOM     16  N   LIG    1       25.860 -13.071   4.700  0.00  0.00    -0.297 NA
ATOM     17  C   LIG    1       25.970 -12.604   3.298  0.00  0.00    +0.112 C 
ATOM     18  C   LIG    1       24.620 -12.376   2.597  0.00  0.00    +0.175 C 
ATOM     19  O   LIG    1       23.810 -11.448   3.328  0.00  0.00    -0.377 OA
ATOM     20  C   LIG    1       23.594 -11.911   4.666  0.00  0.00    +0.175 C 
ATOM     21  C   LIG    1       24.928 -12.148   5.401  0.00  0.00    +0.112 C 
ENDBRANCH  15  16
ENDBRANCH   4  15
TORSDOF 3
ENDMDL
