MODEL 1
REMARK VINA RESULT:      -8.3      0.000      0.000
REMARK  Name = *****
REMARK                            x       y       z     vdW  Elec       q    Type
REMARK                         _______ _______ _______ _____ _____    ______ ____
ROOT
ATOM      1  C   LIG    1       26.319 -21.087   8.400  0.00  0.00    +0.341 C 
ATOM      2  O   LIG    1       25.710 -21.190   9.463  0.00  0.00    -0.247 OA
ENDROOT
BRANCH   1   3
ATOM      3  O   LIG    1       27.404 -20.294   8.182  0.00  0.00    -0.459 OA
BRANCH   3  11
ATOM      4  C   LIG    1       29.292 -18.002   4.829  0.00  0.00    +0.007 C 
ATOM      5  C   LIG    1       29.133 -18.670   6.196  0.00  0.00    -0.010 C 
ATOM      6  C   LIG    1       30.485 -18.723   6.922  0.00  0.00    +0.010 C 
ATOM      7  C   LIG    1       30.411 -19.418   8.299  0.00  0.00    -0.031 C 
ATOM      8  C   LIG    1       31.844 -19.601   8.843  0.00  0.00    +0.011 C 
ATOM      9  C   LIG    1       29.649 -18.539   9.310  0.00  0.00    +0.011 C 
ATOM     10  C   LIG    1       29.761 -20.815   8.147  0.00  0.00    +0.051 C 
ATOM     11  C   LIG    1       28.445 -20.844   7.356  0.00  0.00    +0.177 C 
ATOM     12  C   LIG    1       28.548 -20.081   6.034  0.00  0.00    +0.048 C 
ENDBRANCH   3  11
ENDBRANCH   1   3
BRANCH   1  13
ATOM     13  C   LIG    1       25.914 -21.843   7.126  0.00  0.00    +0.253 C 
BRANCH  13  14
ATOM     14  C   LIG    1       24.969 -21.023   6.269  0.00  0.00    -0.008 A 
ATOM     15  C   LIG    1       25.356 -20.547   5.005  0.00  0.00    +0.007 A 
ATOM     16  C   LIG    1       24.458 -19.839   4.205  0.00  0.00    +0.000 A 
ATOM     17  C   LIG    1       23.160 -19.609   4.653  0.00  0.00    +0.000 A 
ATOM     18  C   LIG    1       22.757 -20.082   5.900  0.00  0.00    +0.000 A 
ATOM     19  C   LIG    1       23.657 -20.783   6.705  0.00  0.00    +0.007 A 
ENDBRANCH  13  14
BRANCH  13  20
ATOM     20  O   LIG    1       25.305 -23.104   7.426  0.00  0.00    -0.376 OA
ATOM     21  H   LIG    1       25.578 -23.710   6.709  0.00  0.00    +0.211 HD
ENDBRANCH  13  20
ENDBRANCH   1  13
TORSDOF 5
ENDMDL
MODEL 2
REMARK VINA RESULT:      -8.1      1.673      6.396
REMARK  Name = *****
REMARK                            x       y       z     vdW  Elec       q    Type
REMARK                         _______ _______ _______ _____ _____    ______ ____
ROOT
ATOM      1  C   LIG    1       26.787 -20.502   7.576  0.00  0.00    +0.341 C 
ATOM      2  O   LIG    1       26.802 -20.332   8.794  0.00  0.00    -0.247 OA
ENDROOT
BRANCH   1   3
ATOM      3  O   LIG    1       25.682 -20.461   6.784  0.00  0.00    -0.459 OA
BRANCH   3  11
ATOM      4  C   LIG    1       21.768 -20.173   4.625  0.00  0.00    +0.007 C 
ATOM      5  C   LIG    1       22.978 -20.801   5.320  0.00  0.00    -0.010 C 
ATOM      6  C   LIG    1       22.728 -22.295   5.574  0.00  0.00    +0.010 C 
ATOM      7  C   LIG    1       23.895 -22.992   6.306  0.00  0.00    -0.031 C 
ATOM      8  C   LIG    1       23.459 -24.421   6.692  0.00  0.00    +0.011 C 
ATOM      9  C   LIG    1       25.117 -23.125   5.376  0.00  0.00    +0.011 C 
ATOM     10  C   LIG    1       24.240 -22.215   7.601  0.00  0.00    +0.051 C 
ATOM     11  C   LIG    1       24.420 -20.700   7.430  0.00  0.00    +0.177 C 
ATOM     12  C   LIG    1       23.275 -20.068   6.636  0.00  0.00    +0.048 C 
ENDBRANCH   3  11
ENDBRANCH   1   3
BRANCH   1  13
ATOM     13  C   LIG    1       28.050 -20.815   6.759  0.00  0.00    +0.253 C 
BRANCH  13  14
ATOM     14  C   LIG    1       29.294 -20.253   7.419  0.00  0.00    -0.008 A 
ATOM     15  C   LIG    1       29.643 -18.899   7.286  0.00  0.00    +0.007 A 
ATOM     16  C   LIG    1       30.762 -18.384   7.943  0.00  0.00    +0.000 A 
ATOM     17  C   LIG    1       31.537 -19.213   8.750  0.00  0.00    +0.000 A 
ATOM     18  C   LIG    1       31.199 -20.556   8.899  0.00  0.00    +0.000 A 
ATOM     19  C   LIG    1       30.086 -21.075   8.236  0.00  0.00    +0.007 A 
ENDBRANCH  13  14
BRANCH  13  20
ATOM     20  O   LIG    1       27.957 -20.313   5.422  0.00  0.00    -0.376 OA
ATOM     21  H   LIG    1       28.835 -20.459   5.020  0.00  0.00    +0.211 HD
ENDBRANCH  13  20
ENDBRANCH   1  13
TORSDOF 5
ENDMDL
MODEL 3
REMARK VINA RESULT:      -8.1      4.435      6.846
REMARK  Name = *****
REMARK                            x       y       z     vdW  Elec       q    Type
REMARK                         _______ _______ _______ _____ _____    ______ ____
ROOT
ATOM      1  C   LIG    1       24.507 -25.224   6.033  0.00  0.00    +0.341 C 
ATOM      2  O   LIG    1       23.342 -25.426   6.370  0.00  0.00    -0.247 OA
ENDROOT
BRANCH   1   3
ATOM      3  O   LIG    1       25.145 -24.022   6.071  0.00  0.00    -0.459 OA
BRANCH   3  11
ATOM      4  C   LIG    1       27.704 -20.526   7.206  0.00  0.00    +0.007 C 
ATOM      5  C   LIG    1       26.513 -21.308   6.651  0.00  0.00    -0.010 C 
ATOM      6  C   LIG    1       25.342 -20.358   6.358  0.00  0.00    +0.010 C 
ATOM      7  C   LIG    1       24.087 -21.082   5.826  0.00  0.00    -0.031 C 
ATOM      8  C   LIG    1       22.919 -20.075   5.765  0.00  0.00    +0.011 C 
ATOM      9  C   LIG    1       24.323 -21.593   4.391  0.00  0.00    +0.011 C 
ATOM     10  C   LIG    1       23.697 -22.231   6.790  0.00  0.00    +0.051 C 
ATOM     11  C   LIG    1       24.843 -23.171   7.189  0.00  0.00    +0.177 C 
ATOM     12  C   LIG    1       26.088 -22.404   7.639  0.00  0.00    +0.048 C 
ENDBRANCH   3  11
ENDBRANCH   1   3
BRANCH   1  13
ATOM     13  C   LIG    1       25.423 -26.327   5.483  0.00  0.00    +0.253 C 
BRANCH  13  14
ATOM     14  C   LIG    1       25.141 -27.664   6.139  0.00  0.00    -0.008 A 
ATOM     15  C   LIG    1       25.600 -27.954   7.435  0.00  0.00    +0.007 A 
ATOM     16  C   LIG    1       25.286 -29.168   8.046  0.00  0.00    +0.000 A 
ATOM     17  C   LIG    1       24.501 -30.103   7.375  0.00  0.00    +0.000 A 
ATOM     18  C   LIG    1       24.031 -29.827   6.093  0.00  0.00    +0.000 A 
ATOM     19  C   LIG    1       24.351 -28.617   5.477  0.00  0.00    +0.007 A 
ENDBRANCH  13  14
BRANCH  13  20
ATOM     20  O   LIG    1       26.808 -26.002   5.650  0.00  0.00    -0.376 OA
ATOM     21  H   LIG    1       27.141 -25.786   4.758  0.00  0.00    +0.211 HD
ENDBRANCH  13  20
ENDBRANCH   1  13
TORSDOF 5
ENDMDL
MODEL 4
REMARK VINA RESULT:      -8.0      1.662      6.421
REMARK  Name = *****
REMARK                            x       y       z     vdW  Elec       q    Type
REMARK                         _______ _______ _______ _____ _____    ______ ____
ROOT
ATOM      1  C   LIG    1       27.090 -21.061   7.690  0.00  0.00    +0.341 C 
ATOM      2  O   LIG    1       27.084 -21.296   8.897  0.00  0.00    -0.247 OA
ENDROOT
BRANCH   1   3
ATOM      3  O   LIG    1       25.988 -20.859   6.917  0.00  0.00    -0.459 OA
BRANCH   3  11
ATOM      4  C   LIG    1       22.136 -19.814   4.885  0.00  0.00    +0.007 C 
ATOM      5  C   LIG    1       23.241 -20.670   5.508  0.00  0.00    -0.010 C 
ATOM      6  C   LIG    1       22.758 -22.118   5.678  0.00  0.00    +0.010 C 
ATOM      7  C   LIG    1       23.810 -23.037   6.336  0.00  0.00    -0.031 C 
ATOM      8  C   LIG    1       23.157 -24.399   6.647  0.00  0.00    +0.011 C 
ATOM      9  C   LIG    1       24.979 -23.304   5.367  0.00  0.00    +0.011 C 
ATOM     10  C   LIG    1       24.297 -22.409   7.666  0.00  0.00    +0.051 C 
ATOM     11  C   LIG    1       24.715 -20.934   7.581  0.00  0.00    +0.177 C 
ATOM     12  C   LIG    1       23.674 -20.079   6.857  0.00  0.00    +0.048 C 
ENDBRANCH   3  11
ENDBRANCH   1   3
BRANCH   1  13
ATOM     13  C   LIG    1       28.379 -20.982   6.859  0.00  0.00    +0.253 C 
BRANCH  13  14
ATOM     14  C   LIG    1       29.475 -20.240   7.599  0.00  0.00    -0.008 A 
ATOM     15  C   LIG    1       30.475 -20.928   8.306  0.00  0.00    +0.007 A 
ATOM     16  C   LIG    1       31.506 -20.233   8.938  0.00  0.00    +0.000 A 
ATOM     17  C   LIG    1       31.558 -18.843   8.861  0.00  0.00    +0.000 A 
ATOM     18  C   LIG    1       30.579 -18.147   8.157  0.00  0.00    +0.000 A 
ATOM     19  C   LIG    1       29.541 -18.840   7.531  0.00  0.00    +0.007 A 
ENDBRANCH  13  14
BRANCH  13  20
ATOM     20  O   LIG    1       28.158 -20.356   5.591  0.00  0.00    -0.376 OA
ATOM     21  H   LIG    1       28.759 -19.586   5.564  0.00  0.00    +0.211 HD
ENDBRANCH  13  20
ENDBRANCH   1  13
TORSDOF 5
ENDMDL
MODEL 5
REMARK VINA RESULT:      -7.8      1.776      2.667
REMARK  Name = *****
REMARK                            x       y       z     vdW  Elec       q    Type
REMARK                         _______ _______ _______ _____ _____    ______ ____
ROOT
ATOM      1  C   LIG    1       25.892 -20.781   8.351  0.00  0.00    +0.341 C 
ATOM      2  O   LIG    1       25.908 -21.152   9.523  0.00  0.00    -0.247 OA
ENDROOT
BRANCH   1   3
ATOM      3  O   LIG    1       26.858 -20.042   7.741  0.00  0.00    -0.459 OA
BRANCH   3  11
ATOM      4  C   LIG    1       29.520 -18.002   4.771  0.00  0.00    +0.007 C 
ATOM      5  C   LIG    1       29.091 -18.737   6.043  0.00  0.00    -0.010 C 
ATOM      6  C   LIG    1       30.325 -19.213   6.824  0.00  0.00    +0.010 C 
ATOM      7  C   LIG    1       29.971 -19.997   8.106  0.00  0.00    -0.031 C 
ATOM      8  C   LIG    1       31.263 -20.600   8.694  0.00  0.00    +0.011 C 
ATOM      9  C   LIG    1       29.381 -19.053   9.173  0.00  0.00    +0.011 C 
ATOM     10  C   LIG    1       29.000 -21.154   7.761  0.00  0.00    +0.051 C 
ATOM     11  C   LIG    1       27.785 -20.760   6.909  0.00  0.00    +0.177 C 
ATOM     12  C   LIG    1       28.181 -19.923   5.690  0.00  0.00    +0.048 C 
ENDBRANCH   3  11
ENDBRANCH   1   3
BRANCH   1  13
ATOM     13  C   LIG    1       24.733 -21.091   7.391  0.00  0.00    +0.253 C 
BRANCH  13  14
ATOM     14  C   LIG    1       24.637 -22.575   7.095  0.00  0.00    -0.008 A 
ATOM     15  C   LIG    1       23.399 -23.192   6.848  0.00  0.00    +0.007 A 
ATOM     16  C   LIG    1       23.331 -24.547   6.525  0.00  0.00    +0.000 A 
ATOM     17  C   LIG    1       24.500 -25.300   6.434  0.00  0.00    +0.000 A 
ATOM     18  C   LIG    1       25.736 -24.701   6.668  0.00  0.00    +0.000 A 
ATOM     19  C   LIG    1       25.804 -23.348   7.000  0.00  0.00    +0.007 A 
ENDBRANCH  13  14
BRANCH  13  20
ATOM     20  O   LIG    1       24.856 -20.371   6.159  0.00  0.00    -0.376 OA
ATOM     21  H   LIG    1       24.982 -19.435   6.408  0.00  0.00    +0.211 HD
ENDBRANCH  13  20
ENDBRANCH   1  13
TORSDOF 5
ENDMDL
MODEL 6
REMARK VINA RESULT:      -7.7      5.127      7.873
REMARK  Name = *****
REMARK                            x       y       z     vdW  Elec       q    Type
REMARK                         _______ _______ _______ _____ _____    ______ ____
ROOT
ATOM      1  C   LIG    1       23.958 -25.157   6.241  0.00  0.00    +0.341 C 
ATOM      2  O   LIG    1       22.971 -24.621   6.741  0.00  0.00    -0.247 OA
ENDROOT
BRANCH   1   3
ATOM      3  O   LIG    1       24.209 -26.495   6.221  0.00  0.00    -0.459 OA
BRANCH   3  11
ATOM      4  C   LIG    1       26.440 -28.556   9.512  0.00  0.00    +0.007 C 
ATOM      5  C   LIG    1       25.703 -28.359   8.186  0.00  0.00    -0.010 C 
ATOM      6  C   LIG    1       25.877 -29.596   7.292  0.00  0.00    +0.010 C 
ATOM      7  C   LIG    1       25.188 -29.457   5.917  0.00  0.00    -0.031 C 
ATOM      8  C   LIG    1       25.596 -30.652   5.032  0.00  0.00    +0.011 C 
ATOM      9  C   LIG    1       23.655 -29.505   6.072  0.00  0.00    +0.011 C 
ATOM     10  C   LIG    1       25.655 -28.151   5.227  0.00  0.00    +0.051 C 
ATOM     11  C   LIG    1       25.586 -26.887   6.096  0.00  0.00    +0.177 C 
ATOM     12  C   LIG    1       26.217 -27.099   7.474  0.00  0.00    +0.048 C 
ENDBRANCH   3  11
ENDBRANCH   1   3
BRANCH   1  13
ATOM     13  C   LIG    1       25.090 -24.365   5.568  0.00  0.00    +0.253 C 
BRANCH  13  14
ATOM     14  C   LIG    1       25.387 -23.078   6.311  0.00  0.00    -0.008 A 
ATOM     15  C   LIG    1       25.070 -21.825   5.759  0.00  0.00    +0.007 A 
ATOM     16  C   LIG    1       25.301 -20.652   6.477  0.00  0.00    +0.000 A 
ATOM     17  C   LIG    1       25.840 -20.716   7.760  0.00  0.00    +0.000 A 
ATOM     18  C   LIG    1       26.151 -21.950   8.326  0.00  0.00    +0.000 A 
ATOM     19  C   LIG    1       25.929 -23.125   7.605  0.00  0.00    +0.007 A 
ENDBRANCH  13  14
BRANCH  13  20
ATOM     20  O   LIG    1       24.788 -24.063   4.201  0.00  0.00    -0.376 OA
ATOM     21  H   LIG    1       24.172 -23.305   4.224  0.00  0.00    +0.211 HD
ENDBRANCH  13  20
ENDBRANCH   1  13
TORSDOF 5
ENDMDL
MODEL 7
REMARK VINA RESULT:      -7.6      1.559      6.482
REMARK  Name = *****
REMARK                            x       y       z     vdW  Elec       q    Type
REMARK                         _______ _______ _______ _____ _____    ______ ____
ROOT
ATOM      1  C   LIG    1       27.178 -21.278   7.648  0.00  0.00    +0.341 C 
ATOM      2  O   LIG    1       27.169 -21.889   8.715  0.00  0.00    -0.247 OA
ENDROOT
BRANCH   1   3
ATOM      3  O   LIG    1       26.086 -20.763   7.021  0.00  0.00    -0.459 OA
BRANCH   3  11
ATOM      4  C   LIG    1       23.584 -24.465   6.713  0.00  0.00    +0.007 C 
ATOM      5  C   LIG    1       23.968 -22.986   6.644  0.00  0.00    -0.010 C 
ATOM      6  C   LIG    1       22.878 -22.188   5.912  0.00  0.00    +0.010 C 
ATOM      7  C   LIG    1       23.212 -20.687   5.772  0.00  0.00    -0.031 C 
ATOM      8  C   LIG    1       22.165 -20.028   4.851  0.00  0.00    +0.011 C 
ATOM      9  C   LIG    1       23.124 -19.982   7.139  0.00  0.00    +0.011 C 
ATOM     10  C   LIG    1       24.610 -20.519   5.127  0.00  0.00    +0.051 C 
ATOM     11  C   LIG    1       25.731 -21.356   5.760  0.00  0.00    +0.177 C 
ATOM     12  C   LIG    1       25.325 -22.820   5.945  0.00  0.00    +0.048 C 
ENDBRANCH   3  11
ENDBRANCH   1   3
BRANCH   1  13
ATOM     13  C   LIG    1       28.460 -21.023   6.841  0.00  0.00    +0.253 C 
BRANCH  13  14
ATOM     14  C   LIG    1       29.485 -20.255   7.652  0.00  0.00    -0.008 A 
ATOM     15  C   LIG    1       30.526 -20.914   8.327  0.00  0.00    +0.007 A 
ATOM     16  C   LIG    1       31.492 -20.189   9.025  0.00  0.00    +0.000 A 
ATOM     17  C   LIG    1       31.438 -18.798   9.048  0.00  0.00    +0.000 A 
ATOM     18  C   LIG    1       30.417 -18.129   8.376  0.00  0.00    +0.000 A 
ATOM     19  C   LIG    1       29.445 -18.852   7.684  0.00  0.00    +0.007 A 
ENDBRANCH  13  14
BRANCH  13  20
ATOM     20  O   LIG    1       28.192 -20.315   5.626  0.00  0.00    -0.376 OA
ATOM     21  H   LIG    1       28.995 -20.409   5.078  0.00  0.00    +0.211 HD
ENDBRANCH  13  20
ENDBRANCH   1  13
TORSDOF 5
ENDMDL
MODEL 8
REMARK VINA RESULT:      -7.6      3.430      5.909
REMARK  Name = *****
REMARK                            x       y       z     vdW  Elec       q    Type
REMARK                         _______ _______ _______ _____ _____    ______ ____
ROOT
ATOM      1  C   LIG    1       25.067 -23.542   6.789  0.00  0.00    +0.341 C 
ATOM      2  O   LIG    1       26.122 -23.563   7.420  0.00  0.00    -0.247 OA
ENDROOT
BRANCH   1   3
ATOM      3  O   LIG    1       24.646 -22.529   5.983  0.00  0.00    -0.459 OA
BRANCH   3  11
ATOM      4  C   LIG    1       27.898 -19.525   5.305  0.00  0.00    +0.007 C 
ATOM      5  C   LIG    1       26.533 -20.208   5.196  0.00  0.00    -0.010 C 
ATOM      6  C   LIG    1       25.530 -19.280   4.495  0.00  0.00    +0.010 C 
ATOM      7  C   LIG    1       24.115 -19.889   4.379  0.00  0.00    -0.031 C 
ATOM      8  C   LIG    1       23.149 -18.807   3.855  0.00  0.00    +0.011 C 
ATOM      9  C   LIG    1       24.104 -21.043   3.357  0.00  0.00    +0.011 C 
ATOM     10  C   LIG    1       23.628 -20.351   5.775  0.00  0.00    +0.051 C 
ATOM     11  C   LIG    1       24.621 -21.215   6.565  0.00  0.00    +0.177 C 
ATOM     12  C   LIG    1       26.024 -20.605   6.589  0.00  0.00    +0.048 C 
ENDBRANCH   3  11
ENDBRANCH   1   3
BRANCH   1  13
ATOM     13  C   LIG    1       24.037 -24.681   6.840  0.00  0.00    +0.253 C 
BRANCH  13  14
ATOM     14  C   LIG    1       24.549 -25.926   6.144  0.00  0.00    -0.008 A 
ATOM     15  C   LIG    1       25.424 -25.844   5.048  0.00  0.00    +0.007 A 
ATOM     16  C   LIG    1       25.929 -26.999   4.451  0.00  0.00    +0.000 A 
ATOM     17  C   LIG    1       25.575 -28.251   4.949  0.00  0.00    +0.000 A 
ATOM     18  C   LIG    1       24.715 -28.350   6.040  0.00  0.00    +0.000 A 
ATOM     19  C   LIG    1       24.203 -27.195   6.633  0.00  0.00    +0.007 A 
ENDBRANCH  13  14
BRANCH  13  20
ATOM     20  O   LIG    1       22.787 -24.295   6.259  0.00  0.00    -0.376 OA
ATOM     21  H   LIG    1       22.258 -25.114   6.194  0.00  0.00    +0.211 HD
ENDBRANCH  13  20
ENDBRANCH   1  13
TORSDOF 5
ENDMDL
MODEL 9
REMARK VINA RESULT:      -7.4      1.733      6.444
REMARK  Name = *****
REMARK                            x       y       z     vdW  Elec       q    Type
REMARK                         _______ _______ _______ _____ _____    ______ ____
ROOT
ATOM      1  C   LIG    1       27.585 -20.330   6.469  0.00  0.00    +0.341 C 
ATOM      2  O   LIG    1       28.000 -19.592   5.577  0.00  0.00    -0.247 OA
ENDROOT
BRANCH   1   3
ATOM      3  O   LIG    1       26.605 -21.264   6.332  0.00  0.00    -0.459 OA
BRANCH   3  11
ATOM      4  C   LIG    1       22.528 -19.649   5.419  0.00  0.00    +0.007 C 
ATOM      5  C   LIG    1       23.635 -20.666   5.703  0.00  0.00    -0.010 C 
ATOM      6  C   LIG    1       23.030 -22.056   5.952  0.00  0.00    +0.010 C 
ATOM      7  C   LIG    1       24.088 -23.131   6.281  0.00  0.00    -0.031 C 
ATOM      8  C   LIG    1       23.366 -24.424   6.714  0.00  0.00    +0.011 C 
ATOM      9  C   LIG    1       24.923 -23.472   5.032  0.00  0.00    +0.011 C 
ATOM     10  C   LIG    1       24.978 -22.649   7.454  0.00  0.00    +0.051 C 
ATOM     11  C   LIG    1       25.548 -21.231   7.306  0.00  0.00    +0.177 C 
ATOM     12  C   LIG    1       24.474 -20.216   6.908  0.00  0.00    +0.048 C 
ENDBRANCH   3  11
ENDBRANCH   1   3
BRANCH   1  13
ATOM     13  C   LIG    1       28.118 -20.284   7.909  0.00  0.00    +0.253 C 
BRANCH  13  14
ATOM     14  C   LIG    1       29.394 -19.471   8.005  0.00  0.00    -0.008 A 
ATOM     15  C   LIG    1       29.472 -18.326   8.816  0.00  0.00    +0.007 A 
ATOM     16  C   LIG    1       30.668 -17.618   8.935  0.00  0.00    +0.000 A 
ATOM     17  C   LIG    1       31.804 -18.053   8.256  0.00  0.00    +0.000 A 
ATOM     18  C   LIG    1       31.746 -19.191   7.456  0.00  0.00    +0.000 A 
ATOM     19  C   LIG    1       30.548 -19.895   7.328  0.00  0.00    +0.007 A 
ENDBRANCH  13  14
BRANCH  13  20
ATOM     20  O   LIG    1       28.353 -21.596   8.432  0.00  0.00    -0.376 OA
ATOM     21  H   LIG    1       29.126 -21.513   9.024  0.00  0.00    +0.211 HD
ENDBRANCH  13  20
ENDBRANCH   1  13
TORSDOF 5
ENDMDL
