MODEL 1
REMARK VINA RESULT:      -5.6      0.000      0.000
REMARK  Name = *****
REMARK                            x       y       z     vdW  Elec       q    Type
REMARK                         _______ _______ _______ _____ _____    ______ ____
ROOT
ATOM      1  C   LIG    1       31.787 -18.215   9.040  0.00  0.00    +0.226 C 
ATOM      2  N   LIG    1       31.395 -19.458   9.502  0.00  0.00    -0.304 N 
ATOM      3  H   LIG    1       31.518 -19.677  10.486  0.00  0.00    +0.149 HD
ATOM      4  O   LIG    1       31.766 -17.946   7.842  0.00  0.00    -0.275 OA
ENDROOT
BRANCH   1   6
ATOM      5  C   LIG    1       32.593 -15.877   9.498  0.00  0.00    +0.028 C 
ATOM      6  C   LIG    1       32.217 -17.216  10.120  0.00  0.00    +0.126 C 
BRANCH   6   7
ATOM      7  S   LIG    1       30.867 -16.994  11.336  0.00  0.00    -0.166 S 
ATOM      8  H   LIG    1       30.451 -15.793  10.907  0.00  0.00    +0.102 HD
ENDBRANCH   6   7
ENDBRANCH   1   6
BRANCH   2   9
ATOM      9  C   LIG    1       31.052 -20.547   8.581  0.00  0.00    +0.224 C 
BRANCH   9  10
ATOM     10  C   LIG    1       31.302 -21.938   9.169  0.00  0.00    +0.322 C 
ATOM     11  O   LIG    1       30.715 -22.380  10.142  0.00  0.00    -0.249 OA
BRANCH  10  12
ATOM     12  O   LIG    1       32.225 -22.662   8.489  0.00  0.00    -0.479 OA
ATOM     13  H   LIG    1       32.111 -22.536   7.528  0.00  0.00    +0.295 HD
ENDBRANCH  10  12
ENDBRANCH   9  10
ENDBRANCH   2   9
TORSDOF 5
ENDMDL
MODEL 2
REMARK VINA RESULT:      -5.6      1.216      1.413
REMARK  Name = *****
REMARK                            x       y       z     vdW  Elec       q    Type
REMARK                         _______ _______ _______ _____ _____    ______ ____
ROOT
ATOM      1  C   LIG    1       31.259 -18.346   8.656  0.00  0.00    +0.226 C 
ATOM      2  N   LIG    1       30.406 -19.410   8.878  0.00  0.00    -0.304 N 
ATOM      3  H   LIG    1       29.745 -19.357   9.648  0.00  0.00    +0.149 HD
ATOM      4  O   LIG    1       32.150 -18.411   7.813  0.00  0.00    -0.275 OA
ENDROOT
BRANCH   1   6
ATOM      5  C   LIG    1       30.404 -17.484  10.858  0.00  0.00    +0.028 C 
ATOM      6  C   LIG    1       30.995 -17.099   9.508  0.00  0.00    +0.126 C 
BRANCH   6   7
ATOM      7  S   LIG    1       32.550 -16.162   9.739  0.00  0.00    -0.166 S 
ATOM      8  H   LIG    1       33.357 -17.219   9.920  0.00  0.00    +0.102 HD
ENDBRANCH   6   7
ENDBRANCH   1   6
BRANCH   2   9
ATOM      9  C   LIG    1       30.597 -20.701   8.210  0.00  0.00    +0.224 C 
BRANCH   9  10
ATOM     10  C   LIG    1       31.185 -21.776   9.128  0.00  0.00    +0.322 C 
ATOM     11  O   LIG    1       30.757 -22.028  10.241  0.00  0.00    -0.249 OA
BRANCH  10  12
ATOM     12  O   LIG    1       32.221 -22.458   8.579  0.00  0.00    -0.479 OA
ATOM     13  H   LIG    1       33.043 -21.935   8.647  0.00  0.00    +0.295 HD
ENDBRANCH  10  12
ENDBRANCH   9  10
ENDBRANCH   2   9
TORSDOF 5
ENDMDL
MODEL 3
REMARK VINA RESULT:      -5.4      2.893      4.575
REMARK  Name = *****
REMARK                            x       y       z     vdW  Elec       q    Type
REMARK                         _______ _______ _______ _____ _____    ______ ____
ROOT
ATOM      1  C   LIG    1       31.176 -19.321   8.367  0.00  0.00    +0.226 C 
ATOM      2  N   LIG    1       30.898 -17.982   8.563  0.00  0.00    -0.304 N 
ATOM      3  H   LIG    1       30.328 -17.493   7.879  0.00  0.00    +0.149 HD
ATOM      4  O   LIG    1       31.952 -19.924   9.102  0.00  0.00    -0.275 OA
ENDROOT
BRANCH   1   6
ATOM      5  C   LIG    1       29.384 -20.961   7.711  0.00  0.00    +0.028 C 
ATOM      6  C   LIG    1       30.435 -19.984   7.199  0.00  0.00    +0.126 C 
BRANCH   6   7
ATOM      7  S   LIG    1       29.654 -18.703   6.150  0.00  0.00    -0.166 S 
ATOM      8  H   LIG    1       30.699 -17.863   6.106  0.00  0.00    +0.102 HD
ENDBRANCH   6   7
ENDBRANCH   1   6
BRANCH   2   9
ATOM      9  C   LIG    1       31.603 -17.192   9.578  0.00  0.00    +0.224 C 
BRANCH   9  10
ATOM     10  C   LIG    1       30.890 -17.171  10.932  0.00  0.00    +0.322 C 
ATOM     11  O   LIG    1       30.401 -16.170  11.428  0.00  0.00    -0.249 OA
BRANCH  10  12
ATOM     12  O   LIG    1       30.818 -18.385  11.532  0.00  0.00    -0.479 OA
ATOM     13  H   LIG    1       31.516 -18.974  11.186  0.00  0.00    +0.295 HD
ENDBRANCH  10  12
ENDBRANCH   9  10
ENDBRANCH   2   9
TORSDOF 5
ENDMDL
MODEL 4
REMARK VINA RESULT:      -5.3      3.997      5.202
REMARK  Name = *****
REMARK                            x       y       z     vdW  Elec       q    Type
REMARK                         _______ _______ _______ _____ _____    ______ ____
ROOT
ATOM      1  C   LIG    1       28.031 -21.003   7.753  0.00  0.00    +0.226 C 
ATOM      2  N   LIG    1       29.322 -21.427   7.501  0.00  0.00    -0.304 N 
ATOM      3  H   LIG    1       29.464 -22.267   6.948  0.00  0.00    +0.149 HD
ATOM      4  O   LIG    1       27.807 -20.062   8.510  0.00  0.00    -0.275 OA
ENDROOT
BRANCH   1   6
ATOM      5  C   LIG    1       26.020 -22.495   7.992  0.00  0.00    +0.028 C 
ATOM      6  C   LIG    1       26.929 -21.767   7.010  0.00  0.00    +0.126 C 
BRANCH   6   7
ATOM      7  S   LIG    1       25.953 -20.610   5.981  0.00  0.00    -0.166 S 
ATOM      8  H   LIG    1       24.739 -20.992   6.405  0.00  0.00    +0.102 HD
ENDBRANCH   6   7
ENDBRANCH   1   6
BRANCH   2   9
ATOM      9  C   LIG    1       30.471 -20.858   8.213  0.00  0.00    +0.224 C 
BRANCH   9  10
ATOM     10  C   LIG    1       31.161 -21.857   9.144  0.00  0.00    +0.322 C 
ATOM     11  O   LIG    1       30.809 -22.073  10.291  0.00  0.00    -0.249 OA
BRANCH  10  12
ATOM     12  O   LIG    1       32.197 -22.517   8.568  0.00  0.00    -0.479 OA
ATOM     13  H   LIG    1       33.041 -22.236   8.969  0.00  0.00    +0.295 HD
ENDBRANCH  10  12
ENDBRANCH   9  10
ENDBRANCH   2   9
TORSDOF 5
ENDMDL
MODEL 5
REMARK VINA RESULT:      -5.1      3.465      4.985
REMARK  Name = *****
REMARK                            x       y       z     vdW  Elec       q    Type
REMARK                         _______ _______ _______ _____ _____    ______ ____
ROOT
ATOM      1  C   LIG    1       28.883 -20.395   7.654  0.00  0.00    +0.226 C 
ATOM      2  N   LIG    1       29.615 -19.417   7.007  0.00  0.00    -0.304 N 
ATOM      3  H   LIG    1       29.139 -18.790   6.365  0.00  0.00    +0.149 HD
ATOM      4  O   LIG    1       29.433 -21.246   8.347  0.00  0.00    -0.275 OA
ENDROOT
BRANCH   1   6
ATOM      5  C   LIG    1       27.013 -20.233   5.979  0.00  0.00    +0.028 C 
ATOM      6  C   LIG    1       27.364 -20.318   7.459  0.00  0.00    +0.126 C 
BRANCH   6   7
ATOM      7  S   LIG    1       26.565 -21.780   8.218  0.00  0.00    -0.166 S 
ATOM      8  H   LIG    1       25.716 -22.047   7.213  0.00  0.00    +0.102 HD
ENDBRANCH   6   7
ENDBRANCH   1   6
BRANCH   2   9
ATOM      9  C   LIG    1       31.082 -19.420   7.020  0.00  0.00    +0.224 C 
BRANCH   9  10
ATOM     10  C   LIG    1       31.678 -18.721   8.245  0.00  0.00    +0.322 C 
ATOM     11  O   LIG    1       31.835 -17.515   8.329  0.00  0.00    -0.249 OA
BRANCH  10  12
ATOM     12  O   LIG    1       31.993 -19.565   9.258  0.00  0.00    -0.479 OA
ATOM     13  H   LIG    1       32.958 -19.710   9.289  0.00  0.00    +0.295 HD
ENDBRANCH  10  12
ENDBRANCH   9  10
ENDBRANCH   2   9
TORSDOF 5
ENDMDL
MODEL 6
REMARK VINA RESULT:      -5.0      2.324      2.823
REMARK  Name = *****
REMARK                            x       y       z     vdW  Elec       q    Type
REMARK                         _______ _______ _______ _____ _____    ______ ____
ROOT
ATOM      1  C   LIG    1       31.782 -18.110   9.574  0.00  0.00    +0.226 C 
ATOM      2  N   LIG    1       30.672 -17.678   8.871  0.00  0.00    -0.304 N 
ATOM      3  H   LIG    1       30.325 -16.737   9.032  0.00  0.00    +0.149 HD
ATOM      4  O   LIG    1       32.168 -19.273   9.500  0.00  0.00    -0.275 OA
ENDROOT
BRANCH   1   6
ATOM      5  C   LIG    1       32.692 -15.765   9.604  0.00  0.00    +0.028 C 
ATOM      6  C   LIG    1       32.488 -17.039  10.414  0.00  0.00    +0.126 C 
BRANCH   6   7
ATOM      7  S   LIG    1       31.510 -16.684  11.920  0.00  0.00    -0.166 S 
ATOM      8  H   LIG    1       32.078 -17.608  12.710  0.00  0.00    +0.102 HD
ENDBRANCH   6   7
ENDBRANCH   1   6
BRANCH   2   9
ATOM      9  C   LIG    1       29.838 -18.608   8.104  0.00  0.00    +0.224 C 
BRANCH   9  10
ATOM     10  C   LIG    1       30.399 -18.917   6.713  0.00  0.00    +0.322 C 
ATOM     11  O   LIG    1       30.000 -18.392   5.688  0.00  0.00    -0.249 OA
BRANCH  10  12
ATOM     12  O   LIG    1       31.414 -19.817   6.719  0.00  0.00    -0.479 OA
ATOM     13  H   LIG    1       31.136 -20.636   7.171  0.00  0.00    +0.295 HD
ENDBRANCH  10  12
ENDBRANCH   9  10
ENDBRANCH   2   9
TORSDOF 5
ENDMDL
MODEL 7
REMARK VINA RESULT:      -5.0      8.890      9.364
REMARK  Name = *****
REMARK                            x       y       z     vdW  Elec       q    Type
REMARK                         _______ _______ _______ _____ _____    ______ ____
ROOT
ATOM      1  C   LIG    1       24.179 -21.713   5.510  0.00  0.00    +0.226 C 
ATOM      2  N   LIG    1       24.620 -22.902   4.959  0.00  0.00    -0.304 N 
ATOM      3  H   LIG    1       24.470 -23.070   3.969  0.00  0.00    +0.149 HD
ATOM      4  O   LIG    1       24.232 -21.515   6.721  0.00  0.00    -0.275 OA
ENDROOT
BRANCH   1   6
ATOM      5  C   LIG    1       22.676 -19.723   5.183  0.00  0.00    +0.028 C 
ATOM      6  C   LIG    1       23.652 -20.678   4.509  0.00  0.00    +0.126 C 
BRANCH   6   7
ATOM      7  S   LIG    1       25.051 -19.747   3.783  0.00  0.00    -0.166 S 
ATOM      8  H   LIG    1       24.970 -18.673   4.583  0.00  0.00    +0.102 HD
ENDBRANCH   6   7
ENDBRANCH   1   6
BRANCH   2   9
ATOM      9  C   LIG    1       25.057 -24.022   5.799  0.00  0.00    +0.224 C 
BRANCH   9  10
ATOM     10  C   LIG    1       23.912 -24.946   6.220  0.00  0.00    +0.322 C 
ATOM     11  O   LIG    1       23.978 -26.164   6.199  0.00  0.00    -0.249 OA
BRANCH  10  12
ATOM     12  O   LIG    1       22.809 -24.288   6.654  0.00  0.00    -0.479 OA
ATOM     13  H   LIG    1       22.548 -23.604   6.008  0.00  0.00    +0.295 HD
ENDBRANCH  10  12
ENDBRANCH   9  10
ENDBRANCH   2   9
TORSDOF 5
ENDMDL
MODEL 8
REMARK VINA RESULT:      -5.0      4.014      5.088
REMARK  Name = *****
REMARK                            x       y       z     vdW  Elec       q    Type
REMARK                         _______ _______ _______ _____ _____    ______ ____
ROOT
ATOM      1  C   LIG    1       28.258 -19.994   6.967  0.00  0.00    +0.226 C 
ATOM      2  N   LIG    1       28.830 -19.622   8.169  0.00  0.00    -0.304 N 
ATOM      3  H   LIG    1       28.340 -19.834   9.033  0.00  0.00    +0.149 HD
ATOM      4  O   LIG    1       28.755 -19.658   5.896  0.00  0.00    -0.275 OA
ENDROOT
BRANCH   1   6
ATOM      5  C   LIG    1       26.265 -20.584   8.384  0.00  0.00    +0.028 C 
ATOM      6  C   LIG    1       26.998 -20.860   7.077  0.00  0.00    +0.126 C 
BRANCH   6   7
ATOM      7  S   LIG    1       25.895 -20.538   5.652  0.00  0.00    -0.166 S 
ATOM      8  H   LIG    1       26.299 -19.281   5.409  0.00  0.00    +0.102 HD
ENDBRANCH   6   7
ENDBRANCH   1   6
BRANCH   2   9
ATOM      9  C   LIG    1       29.981 -18.714   8.224  0.00  0.00    +0.224 C 
BRANCH   9  10
ATOM     10  C   LIG    1       31.327 -19.442   8.219  0.00  0.00    +0.322 C 
ATOM     11  O   LIG    1       31.976 -19.678   9.223  0.00  0.00    -0.249 OA
BRANCH  10  12
ATOM     12  O   LIG    1       31.731 -19.836   6.985  0.00  0.00    -0.479 OA
ATOM     13  H   LIG    1       32.106 -20.737   7.025  0.00  0.00    +0.295 HD
ENDBRANCH  10  12
ENDBRANCH   9  10
ENDBRANCH   2   9
TORSDOF 5
ENDMDL
MODEL 9
REMARK VINA RESULT:      -5.0      1.898      2.077
REMARK  Name = *****
REMARK                            x       y       z     vdW  Elec       q    Type
REMARK                         _______ _______ _______ _____ _____    ______ ____
ROOT
ATOM      1  C   LIG    1       31.329 -18.355   8.954  0.00  0.00    +0.226 C 
ATOM      2  N   LIG    1       30.429 -18.563   7.926  0.00  0.00    -0.304 N 
ATOM      3  H   LIG    1       29.670 -17.902   7.796  0.00  0.00    +0.149 HD
ATOM      4  O   LIG    1       32.192 -19.186   9.222  0.00  0.00    -0.275 OA
ENDROOT
BRANCH   1   6
ATOM      5  C   LIG    1       30.478 -17.226  11.035  0.00  0.00    +0.028 C 
ATOM      6  C   LIG    1       31.182 -17.023   9.699  0.00  0.00    +0.126 C 
BRANCH   6   7
ATOM      7  S   LIG    1       32.830 -16.270   9.959  0.00  0.00    -0.166 S 
ATOM      8  H   LIG    1       32.485 -15.007   9.661  0.00  0.00    +0.102 HD
ENDBRANCH   6   7
ENDBRANCH   1   6
BRANCH   2   9
ATOM      9  C   LIG    1       30.384 -19.831   7.189  0.00  0.00    +0.224 C 
BRANCH   9  10
ATOM     10  C   LIG    1       29.867 -21.001   8.030  0.00  0.00    +0.322 C 
ATOM     11  O   LIG    1       28.686 -21.218   8.239  0.00  0.00    -0.249 OA
BRANCH  10  12
ATOM     12  O   LIG    1       30.848 -21.808   8.507  0.00  0.00    -0.479 OA
ATOM     13  H   LIG    1       31.550 -21.917   7.837  0.00  0.00    +0.295 HD
ENDBRANCH  10  12
ENDBRANCH   9  10
ENDBRANCH   2   9
TORSDOF 5
ENDMDL
