MODEL 1
REMARK VINA RESULT:      -8.2      0.000      0.000
REMARK  Name = *****
REMARK                            x       y       z     vdW  Elec       q    Type
REMARK                         _______ _______ _______ _____ _____    ______ ____
ROOT
ATOM      1  S   LIG    1       30.650 -18.953   7.348  0.00  0.00    +0.076 S 
ATOM      2  O   LIG    1       29.774 -18.122   6.541  0.00  0.00    -0.150 OA
ATOM      3  O   LIG    1       31.902 -19.449   6.822  0.00  0.00    -0.150 OA
ENDROOT
BRANCH   1   4
ATOM      4  C   LIG    1       31.012 -18.053   8.830  0.00  0.00    +0.109 A 
ATOM      5  C   LIG    1       30.061 -17.995   9.850  0.00  0.00    +0.030 A 
ATOM      6  C   LIG    1       30.348 -17.279  11.013  0.00  0.00    +0.024 A 
ATOM      7  C   LIG    1       31.597 -16.674  11.192  0.00  0.00    +0.025 A 
ATOM      8  C   LIG    1       32.524 -16.713  10.145  0.00  0.00    +0.024 A 
ATOM      9  C   LIG    1       32.248 -17.420   8.973  0.00  0.00    +0.030 A 
BRANCH   7  10
ATOM     10  N   LIG    1       31.821 -15.847  12.298  0.00  0.00    -0.358 N 
ATOM     11  H   LIG    1       32.760 -15.463  12.340  0.00  0.00    +0.142 HD
ATOM     12  H   LIG    1       31.111 -15.132  12.426  0.00  0.00    +0.142 HD
ENDBRANCH   7  10
ENDBRANCH   1   4
BRANCH   1  13
ATOM     13  N   LIG    1       29.849 -20.300   7.982  0.00  0.00    -0.169 N 
ATOM     14  H   LIG    1       30.323 -21.114   7.594  0.00  0.00    +0.178 HD
BRANCH  13  20
ATOM     15  C   LIG    1       25.063 -20.735   8.086  0.00  0.00    +0.069 C 
ATOM     16  C   LIG    1       26.413 -20.471   7.547  0.00  0.00    +0.081 A 
ATOM     17  C   LIG    1       26.810 -20.308   6.236  0.00  0.00    +0.127 A 
ATOM     18  C   LIG    1       26.128 -20.278   4.934  0.00  0.00    +0.088 C 
ATOM     19  O   LIG    1       28.170 -20.202   6.223  0.00  0.00    -0.429 OA
ATOM     20  C   LIG    1       28.521 -20.299   7.535  0.00  0.00    +0.308 A 
ATOM     21  N   LIG    1       27.513 -20.379   8.372  0.00  0.00    -0.199 NA
ENDBRANCH  13  20
ENDBRANCH   1  13
TORSDOF 4
ENDMDL
MODEL 2
REMARK VINA RESULT:      -8.1      2.960      7.195
REMARK  Name = *****
REMARK                            x       y       z     vdW  Elec       q    Type
REMARK                         _______ _______ _______ _____ _____    ______ ____
ROOT
ATOM      1  S   LIG    1       26.554 -21.358   7.161  0.00  0.00    +0.076 S 
ATOM      2  O   LIG    1       26.522 -20.771   8.488  0.00  0.00    -0.150 OA
ATOM      3  O   LIG    1       26.556 -22.792   6.979  0.00  0.00    -0.150 OA
ENDROOT
BRANCH   1   4
ATOM      4  C   LIG    1       25.170 -20.708   6.264  0.00  0.00    +0.109 A 
ATOM      5  C   LIG    1       25.353 -20.240   4.962  0.00  0.00    +0.030 A 
ATOM      6  C   LIG    1       24.262 -19.724   4.262  0.00  0.00    +0.024 A 
ATOM      7  C   LIG    1       22.982 -19.726   4.826  0.00  0.00    +0.025 A 
ATOM      8  C   LIG    1       22.825 -20.166   6.146  0.00  0.00    +0.024 A 
ATOM      9  C   LIG    1       23.909 -20.680   6.860  0.00  0.00    +0.030 A 
BRANCH   7  10
ATOM     10  N   LIG    1       21.927 -19.081   4.170  0.00  0.00    -0.358 N 
ATOM     11  H   LIG    1       21.074 -19.031   4.718  0.00  0.00    +0.142 HD
ATOM     12  H   LIG    1       22.180 -18.181   3.774  0.00  0.00    +0.142 HD
ENDBRANCH   7  10
ENDBRANCH   1   4
BRANCH   1  13
ATOM     13  N   LIG    1       27.839 -20.772   6.231  0.00  0.00    -0.169 N 
ATOM     14  H   LIG    1       28.058 -21.510   5.564  0.00  0.00    +0.178 HD
BRANCH  13  20
ATOM     15  C   LIG    1       31.649 -18.603   8.202  0.00  0.00    +0.069 C 
ATOM     16  C   LIG    1       30.626 -19.640   7.956  0.00  0.00    +0.081 A 
ATOM     17  C   LIG    1       30.586 -20.946   8.400  0.00  0.00    +0.127 A 
ATOM     18  C   LIG    1       31.430 -21.780   9.268  0.00  0.00    +0.088 C 
ATOM     19  O   LIG    1       29.510 -21.551   7.820  0.00  0.00    -0.429 OA
ATOM     20  C   LIG    1       28.950 -20.569   7.059  0.00  0.00    +0.308 A 
ATOM     21  N   LIG    1       29.525 -19.394   7.165  0.00  0.00    -0.199 NA
ENDBRANCH  13  20
ENDBRANCH   1  13
TORSDOF 4
ENDMDL
MODEL 3
REMARK VINA RESULT:      -8.1      3.641      7.762
REMARK  Name = *****
REMARK                            x       y       z     vdW  Elec       q    Type
REMARK                         _______ _______ _______ _____ _____    ______ ____
ROOT
ATOM      1  S   LIG    1       25.802 -21.394   7.596  0.00  0.00    +0.076 S 
ATOM      2  O   LIG    1       24.669 -20.494   7.470  0.00  0.00    -0.150 OA
ATOM      3  O   LIG    1       26.491 -21.555   8.857  0.00  0.00    -0.150 OA
ENDROOT
BRANCH   1   4
ATOM      4  C   LIG    1       25.260 -22.999   7.076  0.00  0.00    +0.109 A 
ATOM      5  C   LIG    1       26.202 -24.005   6.855  0.00  0.00    +0.030 A 
ATOM      6  C   LIG    1       25.771 -25.266   6.440  0.00  0.00    +0.024 A 
ATOM      7  C   LIG    1       24.407 -25.548   6.301  0.00  0.00    +0.025 A 
ATOM      8  C   LIG    1       23.480 -24.517   6.492  0.00  0.00    +0.024 A 
ATOM      9  C   LIG    1       23.898 -23.249   6.902  0.00  0.00    +0.030 A 
BRANCH   7  10
ATOM     10  N   LIG    1       23.998 -26.768   5.753  0.00  0.00    -0.358 N 
ATOM     11  H   LIG    1       23.642 -26.693   4.805  0.00  0.00    +0.142 HD
ATOM     12  H   LIG    1       24.685 -27.510   5.846  0.00  0.00    +0.142 HD
ENDBRANCH   7  10
ENDBRANCH   1   4
BRANCH   1  13
ATOM     13  N   LIG    1       27.003 -21.077   6.449  0.00  0.00    -0.169 N 
ATOM     14  H   LIG    1       27.161 -21.958   5.961  0.00  0.00    +0.178 HD
BRANCH  13  20
ATOM     15  C   LIG    1       31.105 -21.521   8.915  0.00  0.00    +0.069 C 
ATOM     16  C   LIG    1       29.998 -20.871   8.183  0.00  0.00    +0.081 A 
ATOM     17  C   LIG    1       29.681 -19.531   8.097  0.00  0.00    +0.127 A 
ATOM     18  C   LIG    1       30.275 -18.283   8.598  0.00  0.00    +0.088 C 
ATOM     19  O   LIG    1       28.508 -19.423   7.408  0.00  0.00    -0.429 OA
ATOM     20  C   LIG    1       28.183 -20.711   7.109  0.00  0.00    +0.308 A 
ATOM     21  N   LIG    1       29.072 -21.605   7.474  0.00  0.00    -0.199 NA
ENDBRANCH  13  20
ENDBRANCH   1  13
TORSDOF 4
ENDMDL
MODEL 4
REMARK VINA RESULT:      -8.0      7.708     10.099
REMARK  Name = *****
REMARK                            x       y       z     vdW  Elec       q    Type
REMARK                         _______ _______ _______ _____ _____    ______ ____
ROOT
ATOM      1  S   LIG    1       25.593 -26.573   6.197  0.00  0.00    +0.076 S 
ATOM      2  O   LIG    1       26.412 -26.424   5.008  0.00  0.00    -0.150 OA
ATOM      3  O   LIG    1       26.132 -27.152   7.407  0.00  0.00    -0.150 OA
ENDROOT
BRANCH   1   4
ATOM      4  C   LIG    1       24.964 -24.968   6.608  0.00  0.00    +0.109 A 
ATOM      5  C   LIG    1       25.837 -23.987   7.080  0.00  0.00    +0.030 A 
ATOM      6  C   LIG    1       25.336 -22.727   7.408  0.00  0.00    +0.024 A 
ATOM      7  C   LIG    1       23.985 -22.419   7.212  0.00  0.00    +0.025 A 
ATOM      8  C   LIG    1       23.119 -23.425   6.770  0.00  0.00    +0.024 A 
ATOM      9  C   LIG    1       23.605 -24.693   6.445  0.00  0.00    +0.030 A 
BRANCH   7  10
ATOM     10  N   LIG    1       23.472 -21.201   7.672  0.00  0.00    -0.358 N 
ATOM     11  H   LIG    1       23.684 -21.009   8.646  0.00  0.00    +0.142 HD
ATOM     12  H   LIG    1       23.688 -20.412   7.071  0.00  0.00    +0.142 HD
ENDBRANCH   7  10
ENDBRANCH   1   4
BRANCH   1  13
ATOM     13  N   LIG    1       24.155 -27.407   5.885  0.00  0.00    -0.169 N 
ATOM     14  H   LIG    1       23.502 -27.116   6.611  0.00  0.00    +0.178 HD
BRANCH  13  20
ATOM     15  C   LIG    1       24.123 -31.818   7.792  0.00  0.00    +0.069 C 
ATOM     16  C   LIG    1       24.380 -30.739   6.816  0.00  0.00    +0.081 A 
ATOM     17  C   LIG    1       25.186 -30.751   5.698  0.00  0.00    +0.127 A 
ATOM     18  C   LIG    1       26.020 -31.756   5.021  0.00  0.00    +0.088 C 
ATOM     19  O   LIG    1       25.197 -29.489   5.178  0.00  0.00    -0.429 OA
ATOM     20  C   LIG    1       24.385 -28.783   6.012  0.00  0.00    +0.308 A 
ATOM     21  N   LIG    1       23.809 -29.492   6.954  0.00  0.00    -0.199 NA
ENDBRANCH  13  20
ENDBRANCH   1  13
TORSDOF 4
ENDMDL
MODEL 5
REMARK VINA RESULT:      -8.0      7.172      8.858
REMARK  Name = *****
REMARK                            x       y       z     vdW  Elec       q    Type
REMARK                         _______ _______ _______ _____ _____    ______ ____
ROOT
ATOM      1  S   LIG    1       24.703 -23.090   6.313  0.00  0.00    +0.076 S 
ATOM      2  O   LIG    1       23.488 -22.831   7.065  0.00  0.00    -0.150 OA
ATOM      3  O   LIG    1       25.959 -22.484   6.692  0.00  0.00    -0.150 OA
ENDROOT
BRANCH   1   4
ATOM      4  C   LIG    1       24.943 -24.846   6.288  0.00  0.00    +0.109 A 
ATOM      5  C   LIG    1       26.019 -25.402   6.981  0.00  0.00    +0.030 A 
ATOM      6  C   LIG    1       26.207 -26.785   6.953  0.00  0.00    +0.024 A 
ATOM      7  C   LIG    1       25.300 -27.619   6.291  0.00  0.00    +0.025 A 
ATOM      8  C   LIG    1       24.247 -27.040   5.573  0.00  0.00    +0.024 A 
ATOM      9  C   LIG    1       24.050 -25.658   5.587  0.00  0.00    +0.030 A 
BRANCH   7  10
ATOM     10  N   LIG    1       25.576 -28.984   6.155  0.00  0.00    -0.358 N 
ATOM     11  H   LIG    1       25.044 -29.575   6.787  0.00  0.00    +0.142 HD
ATOM     12  H   LIG    1       25.535 -29.317   5.196  0.00  0.00    +0.142 HD
ENDBRANCH   7  10
ENDBRANCH   1   4
BRANCH   1  13
ATOM     13  N   LIG    1       24.514 -22.772   4.663  0.00  0.00    -0.169 N 
ATOM     14  H   LIG    1       25.394 -23.040   4.226  0.00  0.00    +0.178 HD
BRANCH  13  20
ATOM     15  C   LIG    1       22.248 -18.545   4.346  0.00  0.00    +0.069 C 
ATOM     16  C   LIG    1       23.360 -19.518   4.343  0.00  0.00    +0.081 A 
ATOM     17  C   LIG    1       24.661 -19.350   3.919  0.00  0.00    +0.127 A 
ATOM     18  C   LIG    1       25.451 -18.229   3.388  0.00  0.00    +0.088 C 
ATOM     19  O   LIG    1       25.286 -20.561   4.000  0.00  0.00    -0.429 OA
ATOM     20  C   LIG    1       24.323 -21.396   4.479  0.00  0.00    +0.308 A 
ATOM     21  N   LIG    1       23.184 -20.815   4.776  0.00  0.00    -0.199 NA
ENDBRANCH  13  20
ENDBRANCH   1  13
TORSDOF 4
ENDMDL
MODEL 6
REMARK VINA RESULT:      -8.0      3.677      7.802
REMARK  Name = *****
REMARK                            x       y       z     vdW  Elec       q    Type
REMARK                         _______ _______ _______ _____ _____    ______ ____
ROOT
ATOM      1  S   LIG    1       25.835 -21.412   7.617  0.00  0.00    +0.076 S 
ATOM      2  O   LIG    1       24.730 -20.488   7.432  0.00  0.00    -0.150 OA
ATOM      3  O   LIG    1       26.459 -21.578   8.910  0.00  0.00    -0.150 OA
ENDROOT
BRANCH   1   4
ATOM      4  C   LIG    1       25.282 -23.009   7.083  0.00  0.00    +0.109 A 
ATOM      5  C   LIG    1       26.219 -24.012   6.830  0.00  0.00    +0.030 A 
ATOM      6  C   LIG    1       25.779 -25.266   6.403  0.00  0.00    +0.024 A 
ATOM      7  C   LIG    1       24.413 -25.545   6.286  0.00  0.00    +0.025 A 
ATOM      8  C   LIG    1       23.491 -24.517   6.510  0.00  0.00    +0.024 A 
ATOM      9  C   LIG    1       23.917 -23.255   6.931  0.00  0.00    +0.030 A 
BRANCH   7  10
ATOM     10  N   LIG    1       23.993 -26.757   5.727  0.00  0.00    -0.358 N 
ATOM     11  H   LIG    1       23.402 -27.308   6.342  0.00  0.00    +0.142 HD
ATOM     12  H   LIG    1       23.594 -26.663   4.798  0.00  0.00    +0.142 HD
ENDBRANCH   7  10
ENDBRANCH   1   4
BRANCH   1  13
ATOM     13  N   LIG    1       27.095 -21.131   6.526  0.00  0.00    -0.169 N 
ATOM     14  H   LIG    1       27.250 -22.017   6.046  0.00  0.00    +0.178 HD
BRANCH  13  20
ATOM     15  C   LIG    1       30.687 -18.468   8.289  0.00  0.00    +0.069 C 
ATOM     16  C   LIG    1       29.842 -19.654   8.041  0.00  0.00    +0.081 A 
ATOM     17  C   LIG    1       30.097 -20.979   8.328  0.00  0.00    +0.127 A 
ATOM     18  C   LIG    1       31.186 -21.714   8.989  0.00  0.00    +0.088 C 
ATOM     19  O   LIG    1       29.078 -21.722   7.808  0.00  0.00    -0.429 OA
ATOM     20  C   LIG    1       28.254 -20.799   7.239  0.00  0.00    +0.308 A 
ATOM     21  N   LIG    1       28.618 -19.550   7.416  0.00  0.00    -0.199 NA
ENDBRANCH  13  20
ENDBRANCH   1  13
TORSDOF 4
ENDMDL
MODEL 7
REMARK VINA RESULT:      -7.8      3.750      4.955
REMARK  Name = *****
REMARK                            x       y       z     vdW  Elec       q    Type
REMARK                         _______ _______ _______ _____ _____    ______ ____
ROOT
ATOM      1  S   LIG    1       26.466 -21.206   6.680  0.00  0.00    +0.076 S 
ATOM      2  O   LIG    1       26.512 -22.646   6.864  0.00  0.00    -0.150 OA
ATOM      3  O   LIG    1       25.568 -20.382   7.457  0.00  0.00    -0.150 OA
ENDROOT
BRANCH   1   4
ATOM      4  C   LIG    1       28.109 -20.590   6.933  0.00  0.00    +0.109 A 
ATOM      5  C   LIG    1       28.927 -21.188   7.892  0.00  0.00    +0.030 A 
ATOM      6  C   LIG    1       30.218 -20.695   8.092  0.00  0.00    +0.024 A 
ATOM      7  C   LIG    1       30.718 -19.654   7.302  0.00  0.00    +0.025 A 
ATOM      8  C   LIG    1       29.870 -19.045   6.370  0.00  0.00    +0.024 A 
ATOM      9  C   LIG    1       28.575 -19.523   6.164  0.00  0.00    +0.030 A 
BRANCH   7  10
ATOM     10  N   LIG    1       31.958 -19.080   7.604  0.00  0.00    -0.358 N 
ATOM     11  H   LIG    1       31.900 -18.110   7.897  0.00  0.00    +0.142 HD
ATOM     12  H   LIG    1       32.523 -19.637   8.238  0.00  0.00    +0.142 HD
ENDBRANCH   7  10
ENDBRANCH   1   4
BRANCH   1  13
ATOM     13  N   LIG    1       26.211 -20.775   5.065  0.00  0.00    -0.169 N 
ATOM     14  H   LIG    1       26.717 -19.901   4.927  0.00  0.00    +0.178 HD
BRANCH  13  20
ATOM     15  C   LIG    1       22.123 -18.361   4.313  0.00  0.00    +0.069 C 
ATOM     16  C   LIG    1       23.029 -19.510   4.522  0.00  0.00    +0.081 A 
ATOM     17  C   LIG    1       22.717 -20.824   4.799  0.00  0.00    +0.127 A 
ATOM     18  C   LIG    1       21.473 -21.595   4.942  0.00  0.00    +0.088 C 
ATOM     19  O   LIG    1       23.885 -21.491   5.026  0.00  0.00    -0.429 OA
ATOM     20  C   LIG    1       24.845 -20.539   4.863  0.00  0.00    +0.308 A 
ATOM     21  N   LIG    1       24.399 -19.363   4.486  0.00  0.00    -0.199 NA
ENDBRANCH  13  20
ENDBRANCH   1  13
TORSDOF 4
ENDMDL
MODEL 8
REMARK VINA RESULT:      -7.7      3.740      5.006
REMARK  Name = *****
REMARK                            x       y       z     vdW  Elec       q    Type
REMARK                         _______ _______ _______ _____ _____    ______ ____
ROOT
ATOM      1  S   LIG    1       26.439 -21.245   6.697  0.00  0.00    +0.076 S 
ATOM      2  O   LIG    1       26.503 -22.681   6.899  0.00  0.00    -0.150 OA
ATOM      3  O   LIG    1       25.526 -20.424   7.461  0.00  0.00    -0.150 OA
ENDROOT
BRANCH   1   4
ATOM      4  C   LIG    1       28.072 -20.604   6.949  0.00  0.00    +0.109 A 
ATOM      5  C   LIG    1       28.504 -19.509   6.199  0.00  0.00    +0.030 A 
ATOM      6  C   LIG    1       29.793 -19.011   6.397  0.00  0.00    +0.024 A 
ATOM      7  C   LIG    1       30.630 -19.557   7.376  0.00  0.00    +0.025 A 
ATOM      8  C   LIG    1       30.192 -20.676   8.094  0.00  0.00    +0.024 A 
ATOM      9  C   LIG    1       28.907 -21.189   7.902  0.00  0.00    +0.030 A 
BRANCH   7  10
ATOM     10  N   LIG    1       31.963 -19.141   7.469  0.00  0.00    -0.358 N 
ATOM     11  H   LIG    1       32.634 -19.852   7.196  0.00  0.00    +0.142 HD
ATOM     12  H   LIG    1       32.146 -18.250   7.017  0.00  0.00    +0.142 HD
ENDBRANCH   7  10
ENDBRANCH   1   4
BRANCH   1  13
ATOM     13  N   LIG    1       26.184 -20.836   5.076  0.00  0.00    -0.169 N 
ATOM     14  H   LIG    1       26.710 -19.977   4.920  0.00  0.00    +0.178 HD
BRANCH  13  20
ATOM     15  C   LIG    1       22.141 -18.337   4.364  0.00  0.00    +0.069 C 
ATOM     16  C   LIG    1       23.026 -19.505   4.553  0.00  0.00    +0.081 A 
ATOM     17  C   LIG    1       22.690 -20.819   4.806  0.00  0.00    +0.127 A 
ATOM     18  C   LIG    1       21.433 -21.570   4.933  0.00  0.00    +0.088 C 
ATOM     19  O   LIG    1       23.846 -21.510   5.021  0.00  0.00    -0.429 OA
ATOM     20  C   LIG    1       24.823 -20.572   4.878  0.00  0.00    +0.308 A 
ATOM     21  N   LIG    1       24.398 -19.382   4.521  0.00  0.00    -0.199 NA
ENDBRANCH  13  20
ENDBRANCH   1  13
TORSDOF 4
ENDMDL
MODEL 9
REMARK VINA RESULT:      -7.7      7.449      8.692
REMARK  Name = *****
REMARK                            x       y       z     vdW  Elec       q    Type
REMARK                         _______ _______ _______ _____ _____    ______ ____
ROOT
ATOM      1  S   LIG    1       24.476 -23.205   6.673  0.00  0.00    +0.076 S 
ATOM      2  O   LIG    1       25.277 -22.784   7.808  0.00  0.00    -0.150 OA
ATOM      3  O   LIG    1       23.284 -24.004   6.857  0.00  0.00    -0.150 OA
ENDROOT
BRANCH   1   4
ATOM      4  C   LIG    1       24.008 -21.744   5.786  0.00  0.00    +0.109 A 
ATOM      5  C   LIG    1       24.605 -21.467   4.555  0.00  0.00    +0.030 A 
ATOM      6  C   LIG    1       24.238 -20.312   3.863  0.00  0.00    +0.024 A 
ATOM      7  C   LIG    1       23.239 -19.466   4.358  0.00  0.00    +0.025 A 
ATOM      8  C   LIG    1       22.677 -19.742   5.610  0.00  0.00    +0.024 A 
ATOM      9  C   LIG    1       23.040 -20.891   6.317  0.00  0.00    +0.030 A 
BRANCH   7  10
ATOM     10  N   LIG    1       22.980 -18.245   3.726  0.00  0.00    -0.358 N 
ATOM     11  H   LIG    1       22.668 -18.339   2.764  0.00  0.00    +0.142 HD
ATOM     12  H   LIG    1       22.381 -17.625   4.263  0.00  0.00    +0.142 HD
ENDBRANCH   7  10
ENDBRANCH   1   4
BRANCH   1  13
ATOM     13  N   LIG    1       25.395 -24.008   5.502  0.00  0.00    -0.169 N 
ATOM     14  H   LIG    1       24.887 -23.895   4.626  0.00  0.00    +0.178 HD
BRANCH  13  20
ATOM     15  C   LIG    1       24.602 -28.737   5.180  0.00  0.00    +0.069 C 
ATOM     16  C   LIG    1       25.131 -27.459   5.699  0.00  0.00    +0.081 A 
ATOM     17  C   LIG    1       25.754 -27.200   6.902  0.00  0.00    +0.127 A 
ATOM     18  C   LIG    1       26.172 -28.008   8.058  0.00  0.00    +0.088 C 
ATOM     19  O   LIG    1       25.958 -25.854   6.985  0.00  0.00    -0.429 OA
ATOM     20  C   LIG    1       25.450 -25.371   5.817  0.00  0.00    +0.308 A 
ATOM     21  N   LIG    1       25.019 -26.288   4.982  0.00  0.00    -0.199 NA
ENDBRANCH  13  20
ENDBRANCH   1  13
TORSDOF 4
ENDMDL
