MODEL 1
REMARK VINA RESULT:      -5.8      0.000      0.000
REMARK  Name = *****
REMARK                            x       y       z     vdW  Elec       q    Type
REMARK                         _______ _______ _______ _____ _____    ______ ____
ROOT
ATOM      1  C   LIG    1       25.655 -20.572   5.926  0.00  0.00    +0.078 A 
ATOM      2  C   LIG    1       25.012 -20.321   4.703  0.00  0.00    +0.129 A 
ATOM      3  C   LIG    1       23.614 -20.320   4.623  0.00  0.00    +0.046 A 
ATOM      4  C   LIG    1       22.848 -20.567   5.762  0.00  0.00    +0.004 A 
ATOM      5  C   LIG    1       23.472 -20.817   6.981  0.00  0.00    +0.001 A 
ATOM      6  C   LIG    1       24.866 -20.819   7.062  0.00  0.00    +0.017 A 
ENDROOT
BRANCH   1  10
ATOM      7  N   LIG    1       27.904 -19.883   5.245  0.00  0.00    -0.325 N 
ATOM      8  H   LIG    1       27.479 -19.358   4.489  0.00  0.00    +0.145 HD
ATOM      9  H   LIG    1       28.907 -19.889   5.358  0.00  0.00    +0.145 HD
ATOM     10  C   LIG    1       27.137 -20.596   6.118  0.00  0.00    +0.245 C 
ATOM     11  O   LIG    1       27.661 -21.231   7.027  0.00  0.00    -0.270 OA
ENDBRANCH   1  10
BRANCH   2  12
ATOM     12  O   LIG    1       25.731 -20.074   3.560  0.00  0.00    -0.506 OA
ATOM     13  H   LIG    1       25.113 -20.002   2.812  0.00  0.00    +0.292 HD
ENDBRANCH   2  12
TORSDOF 2
ENDMDL
MODEL 2
REMARK VINA RESULT:      -5.6      1.009      1.009
REMARK  Name = *****
REMARK                            x       y       z     vdW  Elec       q    Type
REMARK                         _______ _______ _______ _____ _____    ______ ____
ROOT
ATOM      1  C   LIG    1       25.648 -20.499   5.935  0.00  0.00    +0.078 A 
ATOM      2  C   LIG    1       25.022 -20.137   4.732  0.00  0.00    +0.129 A 
ATOM      3  C   LIG    1       23.625 -20.088   4.645  0.00  0.00    +0.046 A 
ATOM      4  C   LIG    1       22.844 -20.398   5.758  0.00  0.00    +0.004 A 
ATOM      5  C   LIG    1       23.452 -20.758   6.958  0.00  0.00    +0.001 A 
ATOM      6  C   LIG    1       24.844 -20.808   7.045  0.00  0.00    +0.017 A 
ENDROOT
BRANCH   1  10
ATOM      7  N   LIG    1       27.609 -21.571   6.936  0.00  0.00    -0.325 N 
ATOM      8  H   LIG    1       26.979 -22.226   7.387  0.00  0.00    +0.145 HD
ATOM      9  H   LIG    1       28.605 -21.642   7.082  0.00  0.00    +0.145 HD
ATOM     10  C   LIG    1       27.128 -20.581   6.132  0.00  0.00    +0.245 C 
ATOM     11  O   LIG    1       27.897 -19.792   5.594  0.00  0.00    -0.270 OA
ENDBRANCH   1  10
BRANCH   2  12
ATOM     12  O   LIG    1       25.756 -19.826   3.614  0.00  0.00    -0.506 OA
ATOM     13  H   LIG    1       26.184 -18.963   3.752  0.00  0.00    +0.292 HD
ENDBRANCH   2  12
TORSDOF 2
ENDMDL
MODEL 3
REMARK VINA RESULT:      -5.3      7.364      7.915
REMARK  Name = *****
REMARK                            x       y       z     vdW  Elec       q    Type
REMARK                         _______ _______ _______ _____ _____    ______ ____
ROOT
ATOM      1  C   LIG    1       27.163 -13.180   3.993  0.00  0.00    +0.078 A 
ATOM      2  C   LIG    1       26.275 -13.486   5.037  0.00  0.00    +0.129 A 
ATOM      3  C   LIG    1       24.942 -13.814   4.762  0.00  0.00    +0.046 A 
ATOM      4  C   LIG    1       24.486 -13.841   3.445  0.00  0.00    +0.004 A 
ATOM      5  C   LIG    1       25.355 -13.540   2.399  0.00  0.00    +0.001 A 
ATOM      6  C   LIG    1       26.685 -13.212   2.672  0.00  0.00    +0.017 A 
ENDROOT
BRANCH   1  10
ATOM      7  N   LIG    1       28.924 -12.011   5.228  0.00  0.00    -0.325 N 
ATOM      8  H   LIG    1       28.208 -11.666   5.857  0.00  0.00    +0.145 HD
ATOM      9  H   LIG    1       29.891 -11.754   5.368  0.00  0.00    +0.145 HD
ATOM     10  C   LIG    1       28.602 -12.819   4.179  0.00  0.00    +0.245 C 
ATOM     11  O   LIG    1       29.475 -13.229   3.421  0.00  0.00    -0.270 OA
ENDBRANCH   1  10
BRANCH   2  12
ATOM     12  O   LIG    1       26.686 -13.470   6.346  0.00  0.00    -0.506 OA
ATOM     13  H   LIG    1       25.903 -13.535   6.920  0.00  0.00    +0.292 HD
ENDBRANCH   2  12
TORSDOF 2
ENDMDL
MODEL 4
REMARK VINA RESULT:      -5.2      5.955      6.601
REMARK  Name = *****
REMARK                            x       y       z     vdW  Elec       q    Type
REMARK                         _______ _______ _______ _____ _____    ______ ____
ROOT
ATOM      1  C   LIG    1       25.679 -15.058   3.341  0.00  0.00    +0.078 A 
ATOM      2  C   LIG    1       26.135 -13.993   2.549  0.00  0.00    +0.129 A 
ATOM      3  C   LIG    1       25.415 -12.793   2.491  0.00  0.00    +0.046 A 
ATOM      4  C   LIG    1       24.237 -12.648   3.223  0.00  0.00    +0.004 A 
ATOM      5  C   LIG    1       23.774 -13.696   4.014  0.00  0.00    +0.001 A 
ATOM      6  C   LIG    1       24.490 -14.893   4.072  0.00  0.00    +0.017 A 
ENDROOT
BRANCH   1  10
ATOM      7  N   LIG    1       27.642 -16.383   3.965  0.00  0.00    -0.325 N 
ATOM      8  H   LIG    1       28.100 -15.518   4.229  0.00  0.00    +0.145 HD
ATOM      9  H   LIG    1       28.126 -17.264   4.058  0.00  0.00    +0.145 HD
ATOM     10  C   LIG    1       26.371 -16.377   3.472  0.00  0.00    +0.245 C 
ATOM     11  O   LIG    1       25.827 -17.428   3.151  0.00  0.00    -0.270 OA
ENDBRANCH   1  10
BRANCH   2  12
ATOM     12  O   LIG    1       27.288 -14.097   1.813  0.00  0.00    -0.506 OA
ATOM     13  H   LIG    1       27.056 -14.119   0.869  0.00  0.00    +0.292 HD
ENDBRANCH   2  12
TORSDOF 2
ENDMDL
MODEL 5
REMARK VINA RESULT:      -5.2      7.249      7.697
REMARK  Name = *****
REMARK                            x       y       z     vdW  Elec       q    Type
REMARK                         _______ _______ _______ _____ _____    ______ ____
ROOT
ATOM      1  C   LIG    1       25.925 -13.350   3.927  0.00  0.00    +0.078 A 
ATOM      2  C   LIG    1       25.883 -13.411   2.525  0.00  0.00    +0.129 A 
ATOM      3  C   LIG    1       24.835 -12.808   1.819  0.00  0.00    +0.046 A 
ATOM      4  C   LIG    1       23.823 -12.138   2.507  0.00  0.00    +0.004 A 
ATOM      5  C   LIG    1       23.853 -12.069   3.898  0.00  0.00    +0.001 A 
ATOM      6  C   LIG    1       24.897 -12.671   4.602  0.00  0.00    +0.017 A 
ENDROOT
BRANCH   1  10
ATOM      7  N   LIG    1       27.227 -13.414   6.000  0.00  0.00    -0.325 N 
ATOM      8  H   LIG    1       26.689 -12.619   6.324  0.00  0.00    +0.145 HD
ATOM      9  H   LIG    1       27.949 -13.812   6.584  0.00  0.00    +0.145 HD
ATOM     10  C   LIG    1       26.997 -13.960   4.772  0.00  0.00    +0.245 C 
ATOM     11  O   LIG    1       27.656 -14.921   4.388  0.00  0.00    -0.270 OA
ENDBRANCH   1  10
BRANCH   2  12
ATOM     12  O   LIG    1       26.859 -14.062   1.812  0.00  0.00    -0.506 OA
ATOM     13  H   LIG    1       27.090 -13.523   1.036  0.00  0.00    +0.292 HD
ENDBRANCH   2  12
TORSDOF 2
ENDMDL
MODEL 6
REMARK VINA RESULT:      -5.1      7.128      7.452
REMARK  Name = *****
REMARK                            x       y       z     vdW  Elec       q    Type
REMARK                         _______ _______ _______ _____ _____    ______ ____
ROOT
ATOM      1  C   LIG    1       27.087 -13.391   4.091  0.00  0.00    +0.078 A 
ATOM      2  C   LIG    1       26.577 -13.969   2.918  0.00  0.00    +0.129 A 
ATOM      3  C   LIG    1       25.240 -14.379   2.850  0.00  0.00    +0.046 A 
ATOM      4  C   LIG    1       24.402 -14.213   3.952  0.00  0.00    +0.004 A 
ATOM      5  C   LIG    1       24.894 -13.641   5.123  0.00  0.00    +0.001 A 
ATOM      6  C   LIG    1       26.227 -13.233   5.191  0.00  0.00    +0.017 A 
ENDROOT
BRANCH   1  10
ATOM      7  N   LIG    1       28.770 -12.109   5.324  0.00  0.00    -0.325 N 
ATOM      8  H   LIG    1       28.038 -11.831   5.968  0.00  0.00    +0.145 HD
ATOM      9  H   LIG    1       29.715 -11.781   5.457  0.00  0.00    +0.145 HD
ATOM     10  C   LIG    1       28.496 -12.922   4.265  0.00  0.00    +0.245 C 
ATOM     11  O   LIG    1       29.387 -13.250   3.489  0.00  0.00    -0.270 OA
ENDBRANCH   1  10
BRANCH   2  12
ATOM     12  O   LIG    1       27.371 -14.150   1.812  0.00  0.00    -0.506 OA
ATOM     13  H   LIG    1       27.069 -14.944   1.337  0.00  0.00    +0.292 HD
ENDBRANCH   2  12
TORSDOF 2
ENDMDL
MODEL 7
REMARK VINA RESULT:      -5.1      7.333      7.760
REMARK  Name = *****
REMARK                            x       y       z     vdW  Elec       q    Type
REMARK                         _______ _______ _______ _____ _____    ______ ____
ROOT
ATOM      1  C   LIG    1       26.471 -13.552   3.611  0.00  0.00    +0.078 A 
ATOM      2  C   LIG    1       25.659 -13.173   4.692  0.00  0.00    +0.129 A 
ATOM      3  C   LIG    1       24.380 -12.647   4.470  0.00  0.00    +0.046 A 
ATOM      4  C   LIG    1       23.903 -12.496   3.168  0.00  0.00    +0.004 A 
ATOM      5  C   LIG    1       24.698 -12.867   2.086  0.00  0.00    +0.001 A 
ATOM      6  C   LIG    1       25.973 -13.392   2.307  0.00  0.00    +0.017 A 
ENDROOT
BRANCH   1  10
ATOM      7  N   LIG    1       27.961 -15.438   4.078  0.00  0.00    -0.325 N 
ATOM      8  H   LIG    1       27.137 -16.007   4.239  0.00  0.00    +0.145 HD
ATOM      9  H   LIG    1       28.882 -15.840   4.172  0.00  0.00    +0.145 HD
ATOM     10  C   LIG    1       27.847 -14.122   3.740  0.00  0.00    +0.245 C 
ATOM     11  O   LIG    1       28.849 -13.442   3.551  0.00  0.00    -0.270 OA
ENDBRANCH   1  10
BRANCH   2  12
ATOM     12  O   LIG    1       26.093 -13.306   5.987  0.00  0.00    -0.506 OA
ATOM     13  H   LIG    1       25.416 -13.784   6.496  0.00  0.00    +0.292 HD
ENDBRANCH   2  12
TORSDOF 2
ENDMDL
MODEL 8
REMARK VINA RESULT:      -5.0      2.568      3.623
REMARK  Name = *****
REMARK                            x       y       z     vdW  Elec       q    Type
REMARK                         _______ _______ _______ _____ _____    ______ ____
ROOT
ATOM      1  C   LIG    1       24.255 -20.283   5.221  0.00  0.00    +0.078 A 
ATOM      2  C   LIG    1       25.421 -19.865   4.560  0.00  0.00    +0.129 A 
ATOM      3  C   LIG    1       26.678 -20.058   5.146  0.00  0.00    +0.046 A 
ATOM      4  C   LIG    1       26.780 -20.671   6.395  0.00  0.00    +0.004 A 
ATOM      5  C   LIG    1       25.632 -21.090   7.062  0.00  0.00    +0.001 A 
ATOM      6  C   LIG    1       24.379 -20.897   6.479  0.00  0.00    +0.017 A 
ENDROOT
BRANCH   1  10
ATOM      7  N   LIG    1       22.020 -21.184   4.789  0.00  0.00    -0.325 N 
ATOM      8  H   LIG    1       22.323 -22.052   5.216  0.00  0.00    +0.145 HD
ATOM      9  H   LIG    1       21.080 -21.096   4.430  0.00  0.00    +0.145 HD
ATOM     10  C   LIG    1       22.870 -20.123   4.683  0.00  0.00    +0.245 C 
ATOM     11  O   LIG    1       22.494 -19.078   4.162  0.00  0.00    -0.270 OA
ENDBRANCH   1  10
BRANCH   2  12
ATOM     12  O   LIG    1       25.362 -19.258   3.330  0.00  0.00    -0.506 OA
ATOM     13  H   LIG    1       24.931 -19.864   2.703  0.00  0.00    +0.292 HD
ENDBRANCH   2  12
TORSDOF 2
ENDMDL
MODEL 9
REMARK VINA RESULT:      -5.0      7.218      7.798
REMARK  Name = *****
REMARK                            x       y       z     vdW  Elec       q    Type
REMARK                         _______ _______ _______ _____ _____    ______ ____
ROOT
ATOM      1  C   LIG    1       25.585 -13.760   4.033  0.00  0.00    +0.078 A 
ATOM      2  C   LIG    1       26.636 -13.903   3.113  0.00  0.00    +0.129 A 
ATOM      3  C   LIG    1       27.960 -13.671   3.505  0.00  0.00    +0.046 A 
ATOM      4  C   LIG    1       28.245 -13.296   4.818  0.00  0.00    +0.004 A 
ATOM      5  C   LIG    1       27.213 -13.150   5.741  0.00  0.00    +0.001 A 
ATOM      6  C   LIG    1       25.892 -13.381   5.351  0.00  0.00    +0.017 A 
ENDROOT
BRANCH   1  10
ATOM      7  N   LIG    1       23.591 -13.254   2.705  0.00  0.00    -0.325 N 
ATOM      8  H   LIG    1       24.146 -12.580   2.190  0.00  0.00    +0.145 HD
ATOM      9  H   LIG    1       22.617 -13.390   2.478  0.00  0.00    +0.145 HD
ATOM     10  C   LIG    1       24.142 -13.984   3.717  0.00  0.00    +0.245 C 
ATOM     11  O   LIG    1       23.462 -14.794   4.337  0.00  0.00    -0.270 OA
ENDBRANCH   1  10
BRANCH   2  12
ATOM     12  O   LIG    1       26.396 -14.270   1.812  0.00  0.00    -0.506 OA
ATOM     13  H   LIG    1       27.167 -14.762   1.479  0.00  0.00    +0.292 HD
ENDBRANCH   2  12
TORSDOF 2
ENDMDL
