MODEL 1
REMARK VINA RESULT:      -4.2      0.000      0.000
REMARK  Name = *****
REMARK                            x       y       z     vdW  Elec       q    Type
REMARK                         _______ _______ _______ _____ _____    ______ ____
ROOT
ATOM      1  N   LIG    1       23.614 -20.900   4.687  0.00  0.00    -0.109 NA
ATOM      2  C   LIG    1       23.615 -19.660   4.342  0.00  0.00    +0.201 C 
ATOM      3  N   LIG    1       24.683 -19.060   3.669  0.00  0.00    -0.326 N 
ATOM      4  H   LIG    1       25.580 -19.513   3.632  0.00  0.00    +0.169 HD
ATOM      5  C   LIG    1       24.530 -17.670   3.733  0.00  0.00    +0.066 A 
ATOM      6  C   LIG    1       23.272 -17.414   4.310  0.00  0.00    +0.065 A 
ATOM      7  C   LIG    1       22.770 -16.142   4.419  0.00  0.00    +0.028 A 
ATOM      8  C   LIG    1       23.583 -15.099   3.964  0.00  0.00    +0.014 A 
ATOM      9  C   LIG    1       24.851 -15.351   3.375  0.00  0.00    +0.024 A 
ATOM     10  C   LIG    1       25.334 -16.662   3.256  0.00  0.00    +0.039 A 
ATOM     11  N   LIG    1       22.688 -18.648   4.591  0.00  0.00    -0.326 N 
ATOM     12  H   LIG    1       21.966 -18.779   5.288  0.00  0.00    +0.169 HD
ENDROOT
BRANCH   1  13
ATOM     13  C   LIG    1       22.538 -21.356   5.396  0.00  0.00    +0.427 C 
ATOM     14  O   LIG    1       21.404 -21.532   4.971  0.00  0.00    -0.224 OA
BRANCH  13  16
ATOM     15  C   LIG    1       24.309 -21.499   6.898  0.00  0.00    +0.282 C 
ATOM     16  O   LIG    1       22.902 -21.571   6.688  0.00  0.00    -0.452 OA
ENDBRANCH  13  16
ENDBRANCH   1  13
BRANCH   9  17
ATOM     17  C   LIG    1       25.658 -14.177   2.951  0.00  0.00    +0.193 C 
ATOM     18  O   LIG    1       25.389 -13.647   1.874  0.00  0.00    -0.287 OA
BRANCH  17  19
ATOM     19  C   LIG    1       26.770 -13.614   3.766  0.00  0.00    +0.022 A 
ATOM     20  C   LIG    1       27.968 -13.161   3.203  0.00  0.00    +0.012 A 
ATOM     21  C   LIG    1       28.952 -12.589   4.015  0.00  0.00    +0.001 A 
ATOM     22  C   LIG    1       28.741 -12.456   5.387  0.00  0.00    +0.000 A 
ATOM     23  C   LIG    1       27.547 -12.897   5.954  0.00  0.00    +0.001 A 
ATOM     24  C   LIG    1       26.563 -13.471   5.146  0.00  0.00    +0.012 A 
ENDBRANCH  17  19
ENDBRANCH   9  17
TORSDOF 4
ENDMDL
MODEL 2
REMARK VINA RESULT:      -1.7      0.515      1.567
REMARK  Name = *****
REMARK                            x       y       z     vdW  Elec       q    Type
REMARK                         _______ _______ _______ _____ _____    ______ ____
ROOT
ATOM      1  N   LIG    1       23.768 -20.844   4.725  0.00  0.00    -0.109 NA
ATOM      2  C   LIG    1       23.774 -19.606   4.373  0.00  0.00    +0.201 C 
ATOM      3  N   LIG    1       24.842 -19.016   3.694  0.00  0.00    -0.326 N 
ATOM      4  H   LIG    1       25.737 -19.473   3.656  0.00  0.00    +0.169 HD
ATOM      5  C   LIG    1       24.697 -17.625   3.750  0.00  0.00    +0.066 A 
ATOM      6  C   LIG    1       23.442 -17.359   4.329  0.00  0.00    +0.065 A 
ATOM      7  C   LIG    1       22.947 -16.083   4.433  0.00  0.00    +0.028 A 
ATOM      8  C   LIG    1       23.764 -15.047   3.969  0.00  0.00    +0.014 A 
ATOM      9  C   LIG    1       25.029 -15.309   3.377  0.00  0.00    +0.024 A 
ATOM     10  C   LIG    1       25.505 -16.623   3.265  0.00  0.00    +0.039 A 
ATOM     11  N   LIG    1       22.853 -18.588   4.620  0.00  0.00    -0.326 N 
ATOM     12  H   LIG    1       22.132 -18.712   5.319  0.00  0.00    +0.169 HD
ENDROOT
BRANCH   1  13
ATOM     13  C   LIG    1       22.691 -21.291   5.441  0.00  0.00    +0.427 C 
ATOM     14  O   LIG    1       22.635 -21.448   6.653  0.00  0.00    -0.224 OA
BRANCH  13  16
ATOM     15  C   LIG    1       20.795 -20.466   4.376  0.00  0.00    +0.282 C 
ATOM     16  O   LIG    1       21.666 -21.571   4.594  0.00  0.00    -0.452 OA
ENDBRANCH  13  16
ENDBRANCH   1  13
BRANCH   9  17
ATOM     17  C   LIG    1       25.841 -14.142   2.944  0.00  0.00    +0.193 C 
ATOM     18  O   LIG    1       25.657 -13.696   1.812  0.00  0.00    -0.287 OA
BRANCH  17  19
ATOM     19  C   LIG    1       26.858 -13.489   3.813  0.00  0.00    +0.022 A 
ATOM     20  C   LIG    1       26.731 -13.415   5.205  0.00  0.00    +0.012 A 
ATOM     21  C   LIG    1       27.749 -12.840   5.972  0.00  0.00    +0.001 A 
ATOM     22  C   LIG    1       28.900 -12.349   5.358  0.00  0.00    +0.000 A 
ATOM     23  C   LIG    1       29.038 -12.427   3.973  0.00  0.00    +0.001 A 
ATOM     24  C   LIG    1       28.023 -12.998   3.204  0.00  0.00    +0.012 A 
ENDBRANCH  17  19
ENDBRANCH   9  17
TORSDOF 4
ENDMDL
