MODEL 1
REMARK VINA RESULT:      -1.4      0.000      0.000
REMARK  Name = *****
REMARK                            x       y       z     vdW  Elec       q    Type
REMARK                         _______ _______ _______ _____ _____    ______ ____
ROOT
ATOM      1  C   LIG    1       26.004 -19.508   4.193  0.00  0.00    +0.080 C 
ATOM      2  C   LIG    1       26.384 -18.087   3.738  0.00  0.00    +0.170 C 
ATOM      3  O   LIG    1       27.544 -17.787   3.486  0.00  0.00    -0.292 OA
ATOM      4  C   LIG    1       25.297 -17.110   3.760  0.00  0.00    +0.046 C 
ATOM      5  C   LIG    1       25.294 -15.696   3.605  0.00  0.00    +0.011 C 
ATOM      6  C   LIG    1       23.984 -15.256   3.844  0.00  0.00    +0.050 C 
ATOM      7  N   LIG    1       23.215 -16.378   4.094  0.00  0.00    -0.346 NA
ATOM      8  C   LIG    1       21.818 -16.384   4.470  0.00  0.00    +0.149 C 
ATOM      9  C   LIG    1       23.649 -13.891   3.816  0.00  0.00    +0.026 C 
ATOM     10  C   LIG    1       24.653 -12.965   3.517  0.00  0.00    +0.002 C 
ATOM     11  C   LIG    1       25.954 -13.382   3.256  0.00  0.00    +0.001 C 
ATOM     12  C   LIG    1       26.288 -14.739   3.307  0.00  0.00    +0.010 C 
ATOM     13  C   LIG    1       23.988 -17.506   3.966  0.00  0.00    +0.030 C 
ATOM     14  C   LIG    1       23.501 -18.911   4.081  0.00  0.00    +0.055 C 
ATOM     15  C   LIG    1       24.615 -19.871   3.623  0.00  0.00    +0.019 C 
ENDROOT
BRANCH   1  16
ATOM     16  C   LIG    1       26.097 -19.528   5.728  0.00  0.00    +0.134 C 
BRANCH  16  19
ATOM     17  C   LIG    1       29.007 -18.306   5.577  0.00  0.00    +0.086 C 
ATOM     18  C   LIG    1       28.611 -19.609   6.166  0.00  0.00    +0.106 A 
ATOM     19  N   LIG    1       27.320 -20.084   6.281  0.00  0.00    -0.334 N 
ATOM     20  C   LIG    1       27.397 -21.337   6.837  0.00  0.00    +0.107 A 
ATOM     21  C   LIG    1       28.735 -21.570   7.034  0.00  0.00    +0.130 A 
ATOM     22  N   LIG    1       29.471 -20.490   6.638  0.00  0.00    -0.241 NA
ENDBRANCH  16  19
ENDBRANCH   1  16
TORSDOF 2
ENDMDL
MODEL 2
REMARK VINA RESULT:       1.2      2.499      6.102
REMARK  Name = *****
REMARK                            x       y       z     vdW  Elec       q    Type
REMARK                         _______ _______ _______ _____ _____    ______ ____
ROOT
ATOM      1  C   LIG    1       24.717 -15.436   3.456  0.00  0.00    +0.080 C 
ATOM      2  C   LIG    1       23.711 -16.563   3.753  0.00  0.00    +0.170 C 
ATOM      3  O   LIG    1       22.507 -16.347   3.794  0.00  0.00    -0.292 OA
ATOM      4  C   LIG    1       24.301 -17.852   4.107  0.00  0.00    +0.046 C 
ATOM      5  C   LIG    1       23.723 -19.045   4.624  0.00  0.00    +0.011 C 
ATOM      6  C   LIG    1       24.776 -19.930   4.898  0.00  0.00    +0.050 C 
ATOM      7  N   LIG    1       25.948 -19.301   4.517  0.00  0.00    -0.346 NA
ATOM      8  C   LIG    1       27.287 -19.819   4.696  0.00  0.00    +0.149 C 
ATOM      9  C   LIG    1       24.546 -21.194   5.468  0.00  0.00    +0.026 C 
ATOM     10  C   LIG    1       23.229 -21.572   5.740  0.00  0.00    +0.002 C 
ATOM     11  C   LIG    1       22.168 -20.717   5.458  0.00  0.00    +0.001 C 
ATOM     12  C   LIG    1       22.402 -19.452   4.911  0.00  0.00    +0.010 C 
ATOM     13  C   LIG    1       25.658 -18.078   3.966  0.00  0.00    +0.030 C 
ATOM     14  C   LIG    1       26.648 -17.138   3.365  0.00  0.00    +0.055 C 
ATOM     15  C   LIG    1       25.896 -16.008   2.638  0.00  0.00    +0.019 C 
ENDROOT
BRANCH   1  16
ATOM     16  C   LIG    1       25.111 -14.817   4.808  0.00  0.00    +0.134 C 
BRANCH  16  19
ATOM     17  C   LIG    1       25.794 -12.754   2.513  0.00  0.00    +0.086 C 
ATOM     18  C   LIG    1       26.569 -13.005   3.753  0.00  0.00    +0.106 A 
ATOM     19  N   LIG    1       26.206 -13.863   4.772  0.00  0.00    -0.334 N 
ATOM     20  C   LIG    1       27.214 -13.835   5.705  0.00  0.00    +0.107 A 
ATOM     21  C   LIG    1       28.149 -12.962   5.209  0.00  0.00    +0.130 A 
ATOM     22  N   LIG    1       27.731 -12.439   4.018  0.00  0.00    -0.241 NA
ENDBRANCH  16  19
ENDBRANCH   1  16
TORSDOF 2
ENDMDL
MODEL 3
REMARK VINA RESULT:       1.6      1.904      6.672
REMARK  Name = *****
REMARK                            x       y       z     vdW  Elec       q    Type
REMARK                         _______ _______ _______ _____ _____    ______ ____
ROOT
ATOM      1  C   LIG    1       25.081 -16.355   3.176  0.00  0.00    +0.080 C 
ATOM      2  C   LIG    1       24.897 -17.776   3.738  0.00  0.00    +0.170 C 
ATOM      3  O   LIG    1       23.812 -18.341   3.699  0.00  0.00    -0.292 OA
ATOM      4  C   LIG    1       26.060 -18.333   4.425  0.00  0.00    +0.046 C 
ATOM      5  C   LIG    1       26.215 -19.500   5.224  0.00  0.00    +0.011 C 
ATOM      6  C   LIG    1       27.520 -19.480   5.738  0.00  0.00    +0.050 C 
ATOM      7  N   LIG    1       28.142 -18.355   5.228  0.00  0.00    -0.346 NA
ATOM      8  C   LIG    1       29.474 -17.896   5.559  0.00  0.00    +0.149 C 
ATOM      9  C   LIG    1       27.983 -20.478   6.613  0.00  0.00    +0.026 C 
ATOM     10  C   LIG    1       27.117 -21.521   6.950  0.00  0.00    +0.002 C 
ATOM     11  C   LIG    1       25.825 -21.572   6.436  0.00  0.00    +0.001 C 
ATOM     12  C   LIG    1       25.362 -20.566   5.583  0.00  0.00    +0.010 C 
ATOM     13  C   LIG    1       27.289 -17.702   4.372  0.00  0.00    +0.030 C 
ATOM     14  C   LIG    1       27.623 -16.493   3.565  0.00  0.00    +0.055 C 
ATOM     15  C   LIG    1       26.490 -16.230   2.556  0.00  0.00    +0.019 C 
ENDROOT
BRANCH   1  16
ATOM     16  C   LIG    1       24.794 -15.376   4.327  0.00  0.00    +0.134 C 
BRANCH  16  19
ATOM     17  C   LIG    1       26.811 -13.155   5.318  0.00  0.00    +0.086 C 
ATOM     18  C   LIG    1       25.622 -12.964   4.451  0.00  0.00    +0.106 A 
ATOM     19  N   LIG    1       24.800 -13.966   3.976  0.00  0.00    -0.334 N 
ATOM     20  C   LIG    1       23.800 -13.362   3.254  0.00  0.00    +0.107 A 
ATOM     21  C   LIG    1       24.058 -12.017   3.324  0.00  0.00    +0.130 A 
ATOM     22  N   LIG    1       25.195 -11.785   4.044  0.00  0.00    -0.241 NA
ENDBRANCH  16  19
ENDBRANCH   1  16
TORSDOF 2
ENDMDL
