MODEL 1
REMARK VINA RESULT:      -6.1      0.000      0.000
REMARK  Name = *****
REMARK                            x       y       z     vdW  Elec       q    Type
REMARK                         _______ _______ _______ _____ _____    ______ ____
ROOT
ATOM      1  C   LIG    1       25.146 -14.510   3.684  0.00  0.00    -0.032 C 
ATOM      2  C   LIG    1       25.872 -15.655   3.305  0.00  0.00    +0.030 C 
ATOM      3  C   LIG    1       25.276 -16.911   3.502  0.00  0.00    +0.048 C 
ATOM      4  N   LIG    1       25.768 -18.176   3.267  0.00  0.00    -0.354 NA
ATOM      5  H   LIG    1       26.687 -18.373   2.896  0.00  0.00    +0.166 HD
ATOM      6  C   LIG    1       24.855 -19.140   3.632  0.00  0.00    +0.048 C 
ATOM      7  C   LIG    1       23.722 -18.472   4.094  0.00  0.00    +0.009 C 
ATOM      8  C   LIG    1       22.618 -19.236   4.531  0.00  0.00    +0.030 C 
ATOM      9  C   LIG    1       22.697 -20.632   4.486  0.00  0.00    +0.042 C 
ATOM     10 CL   LIG    1       21.354 -21.571   5.017  0.00  0.00    -0.084 Cl
ATOM     11  C   LIG    1       23.844 -21.273   4.025  0.00  0.00    +0.022 C 
ATOM     12  C   LIG    1       24.948 -20.537   3.587  0.00  0.00    +0.027 C 
ATOM     13  C   LIG    1       23.991 -17.067   4.016  0.00  0.00    +0.007 C 
ATOM     14  C   LIG    1       23.257 -15.912   4.345  0.00  0.00    +0.011 C 
ATOM     15  C   LIG    1       23.843 -14.650   4.183  0.00  0.00    +0.005 C 
ENDROOT
BRANCH   1  17
ATOM     16  C   LIG    1       25.571 -12.509   2.208  0.00  0.00    +0.024 C 
ATOM     17  C   LIG    1       25.766 -13.117   3.599  0.00  0.00    +0.124 C 
BRANCH  17  18
ATOM     18  C   LIG    1       27.239 -13.055   4.007  0.00  0.00    +0.312 C 
ATOM     19  O   LIG    1       27.632 -13.138   5.166  0.00  0.00    -0.250 OA
BRANCH  18  20
ATOM     20  O   LIG    1       28.119 -12.982   2.982  0.00  0.00    -0.480 OA
ATOM     21  H   LIG    1       27.746 -12.613   2.156  0.00  0.00    +0.295 HD
ENDBRANCH  18  20
ENDBRANCH  17  18
ENDBRANCH   1  17
TORSDOF 3
ENDMDL
MODEL 2
REMARK VINA RESULT:      -4.6      4.182      6.970
REMARK  Name = *****
REMARK                            x       y       z     vdW  Elec       q    Type
REMARK                         _______ _______ _______ _____ _____    ______ ____
ROOT
ATOM      1  C   LIG    1       23.722 -19.321   4.159  0.00  0.00    -0.032 C 
ATOM      2  C   LIG    1       22.965 -18.156   4.381  0.00  0.00    +0.030 C 
ATOM      3  C   LIG    1       23.579 -16.914   4.154  0.00  0.00    +0.048 C 
ATOM      4  N   LIG    1       23.095 -15.636   4.330  0.00  0.00    -0.354 NA
ATOM      5  H   LIG    1       22.170 -15.417   4.670  0.00  0.00    +0.166 HD
ATOM      6  C   LIG    1       24.049 -14.696   4.011  0.00  0.00    +0.048 C 
ATOM      7  C   LIG    1       25.181 -15.392   3.587  0.00  0.00    +0.009 C 
ATOM      8  C   LIG    1       26.318 -14.655   3.190  0.00  0.00    +0.030 C 
ATOM      9  C   LIG    1       26.273 -13.258   3.236  0.00  0.00    +0.042 C 
ATOM     10 CL   LIG    1       27.657 -12.353   2.752  0.00  0.00    -0.084 Cl
ATOM     11  C   LIG    1       25.131 -12.589   3.668  0.00  0.00    +0.022 C 
ATOM     12  C   LIG    1       23.993 -13.297   4.064  0.00  0.00    +0.027 C 
ATOM     13  C   LIG    1       24.884 -16.790   3.683  0.00  0.00    +0.007 C 
ATOM     14  C   LIG    1       25.614 -17.964   3.417  0.00  0.00    +0.011 C 
ATOM     15  C   LIG    1       25.030 -19.213   3.664  0.00  0.00    +0.005 C 
ENDROOT
BRANCH   1  17
ATOM     16  C   LIG    1       21.632 -20.677   4.554  0.00  0.00    +0.024 C 
ATOM     17  C   LIG    1       23.160 -20.703   4.483  0.00  0.00    +0.124 C 
BRANCH  17  18
ATOM     18  C   LIG    1       23.742 -21.341   5.747  0.00  0.00    +0.312 C 
ATOM     19  O   LIG    1       24.936 -21.572   5.908  0.00  0.00    -0.250 OA
BRANCH  18  20
ATOM     20  O   LIG    1       22.852 -21.570   6.739  0.00  0.00    -0.480 OA
ATOM     21  H   LIG    1       22.456 -22.465   6.727  0.00  0.00    +0.295 HD
ENDBRANCH  18  20
ENDBRANCH  17  18
ENDBRANCH   1  17
TORSDOF 3
ENDMDL
MODEL 3
REMARK VINA RESULT:      -4.5      3.972      6.639
REMARK  Name = *****
REMARK                            x       y       z     vdW  Elec       q    Type
REMARK                         _______ _______ _______ _____ _____    ______ ____
ROOT
ATOM      1  C   LIG    1       24.932 -19.391   4.138  0.00  0.00    -0.032 C 
ATOM      2  C   LIG    1       26.111 -18.678   3.854  0.00  0.00    +0.030 C 
ATOM      3  C   LIG    1       26.009 -17.298   3.614  0.00  0.00    +0.048 C 
ATOM      4  N   LIG    1       26.978 -16.380   3.275  0.00  0.00    -0.354 NA
ATOM      5  H   LIG    1       27.955 -16.600   3.147  0.00  0.00    +0.166 HD
ATOM      6  C   LIG    1       26.435 -15.126   3.102  0.00  0.00    +0.048 C 
ATOM      7  C   LIG    1       25.070 -15.234   3.366  0.00  0.00    +0.009 C 
ATOM      8  C   LIG    1       24.269 -14.076   3.267  0.00  0.00    +0.030 C 
ATOM      9  C   LIG    1       24.867 -12.864   2.907  0.00  0.00    +0.042 C 
ATOM     10 CL   LIG    1       23.895 -11.447   2.784  0.00  0.00    -0.084 Cl
ATOM     11  C   LIG    1       26.232 -12.786   2.644  0.00  0.00    +0.022 C 
ATOM     12  C   LIG    1       27.045 -13.919   2.737  0.00  0.00    +0.027 C 
ATOM     13  C   LIG    1       24.803 -16.605   3.684  0.00  0.00    +0.007 C 
ATOM     14  C   LIG    1       23.638 -17.321   4.019  0.00  0.00    +0.011 C 
ATOM     15  C   LIG    1       23.713 -18.703   4.234  0.00  0.00    +0.005 C 
ENDROOT
BRANCH   1  17
ATOM     16  C   LIG    1       23.833 -21.567   3.491  0.00  0.00    +0.024 C 
ATOM     17  C   LIG    1       24.947 -20.909   4.308  0.00  0.00    +0.124 C 
BRANCH  17  18
ATOM     18  C   LIG    1       24.893 -21.382   5.762  0.00  0.00    +0.312 C 
ATOM     19  O   LIG    1       25.884 -21.526   6.471  0.00  0.00    -0.250 OA
BRANCH  18  20
ATOM     20  O   LIG    1       23.650 -21.561   6.264  0.00  0.00    -0.480 OA
ATOM     21  H   LIG    1       23.585 -22.270   6.936  0.00  0.00    +0.295 HD
ENDBRANCH  18  20
ENDBRANCH  17  18
ENDBRANCH   1  17
TORSDOF 3
ENDMDL
