MODEL 1
REMARK VINA RESULT:      -2.8      0.000      0.000
REMARK  Name = *****
REMARK                            x       y       z     vdW  Elec       q    Type
REMARK                         _______ _______ _______ _____ _____    ______ ____
ROOT
ATOM      1  C   LIG    1       24.357 -19.199   3.612  0.00  0.00    +0.037 A 
ATOM      2  C   LIG    1       24.399 -17.830   3.820  0.00  0.00    +0.070 A 
ATOM      3  C   LIG    1       25.506 -16.881   3.692  0.00  0.00    +0.256 C 
ATOM      4  N   LIG    1       25.005 -15.642   3.991  0.00  0.00    -0.222 N 
ATOM      5  C   LIG    1       23.699 -15.716   4.390  0.00  0.00    +0.255 C 
ATOM      6  O   LIG    1       22.976 -14.833   4.811  0.00  0.00    -0.270 OA
ATOM      7  O   LIG    1       26.647 -17.185   3.396  0.00  0.00    -0.269 OA
ATOM      8  C   LIG    1       23.297 -17.113   4.257  0.00  0.00    +0.051 A 
ATOM      9  C   LIG    1       22.076 -17.711   4.493  0.00  0.00    +0.014 A 
ATOM     10  C   LIG    1       21.986 -19.083   4.251  0.00  0.00    +0.003 A 
ATOM     11  C   LIG    1       23.107 -19.811   3.797  0.00  0.00    +0.023 A 
ENDROOT
BRANCH   4  12
ATOM     12  C   LIG    1       25.841 -14.457   4.096  0.00  0.00    +0.171 C 
ATOM     13  C   LIG    1       25.961 -13.797   2.718  0.00  0.00    +0.240 C 
ATOM     14  O   LIG    1       25.121 -13.913   1.829  0.00  0.00    -0.273 OA
ATOM     15  N   LIG    1       27.048 -12.967   2.546  0.00  0.00    -0.255 N 
ATOM     16  H   LIG    1       27.114 -12.505   1.649  0.00  0.00    +0.158 HD
ATOM     17  C   LIG    1       28.071 -12.722   3.428  0.00  0.00    +0.219 C 
ATOM     18  O   LIG    1       28.968 -11.930   3.150  0.00  0.00    -0.275 OA
ATOM     19  C   LIG    1       27.987 -13.405   4.773  0.00  0.00    +0.098 C 
ATOM     20  C   LIG    1       27.227 -14.720   4.681  0.00  0.00    +0.042 C 
ENDBRANCH   4  12
BRANCH   1  21
ATOM     21  N   LIG    1       25.408 -19.906   3.023  0.00  0.00    -0.357 N 
ATOM     22  H   LIG    1       25.213 -20.191   2.059  0.00  0.00    +0.142 HD
ATOM     23  H   LIG    1       26.322 -19.476   3.122  0.00  0.00    +0.142 HD
ENDBRANCH   1  21
TORSDOF 2
ENDMDL
MODEL 2
REMARK VINA RESULT:      -0.9      2.127      6.389
REMARK  Name = *****
REMARK                            x       y       z     vdW  Elec       q    Type
REMARK                         _______ _______ _______ _____ _____    ______ ____
ROOT
ATOM      1  C   LIG    1       25.117 -13.394   4.054  0.00  0.00    +0.037 A 
ATOM      2  C   LIG    1       25.132 -14.763   3.841  0.00  0.00    +0.070 A 
ATOM      3  C   LIG    1       24.040 -15.738   3.845  0.00  0.00    +0.256 C 
ATOM      4  N   LIG    1       24.593 -16.957   3.554  0.00  0.00    -0.222 N 
ATOM      5  C   LIG    1       25.955 -16.874   3.454  0.00  0.00    +0.255 C 
ATOM      6  O   LIG    1       26.768 -17.766   3.297  0.00  0.00    -0.270 OA
ATOM      7  O   LIG    1       22.877 -15.475   4.090  0.00  0.00    -0.269 OA
ATOM      8  C   LIG    1       26.303 -15.465   3.610  0.00  0.00    +0.051 A 
ATOM      9  C   LIG    1       27.535 -14.844   3.555  0.00  0.00    +0.014 A 
ATOM     10  C   LIG    1       27.552 -13.458   3.722  0.00  0.00    +0.003 A 
ATOM     11  C   LIG    1       26.356 -12.743   3.947  0.00  0.00    +0.023 A 
ENDROOT
BRANCH   4  12
ATOM     12  C   LIG    1       23.837 -18.198   3.594  0.00  0.00    +0.171 C 
ATOM     13  C   LIG    1       22.751 -18.095   4.672  0.00  0.00    +0.240 C 
ATOM     14  O   LIG    1       22.263 -17.034   5.051  0.00  0.00    -0.273 OA
ATOM     15  N   LIG    1       22.268 -19.295   5.147  0.00  0.00    -0.255 N 
ATOM     16  H   LIG    1       21.529 -19.233   5.835  0.00  0.00    +0.158 HD
ATOM     17  C   LIG    1       22.692 -20.562   4.831  0.00  0.00    +0.219 C 
ATOM     18  O   LIG    1       22.145 -21.550   5.315  0.00  0.00    -0.275 OA
ATOM     19  C   LIG    1       23.795 -20.673   3.805  0.00  0.00    +0.098 C 
ATOM     20  C   LIG    1       24.691 -19.443   3.819  0.00  0.00    +0.042 C 
ENDBRANCH   4  12
BRANCH   1  21
ATOM     21  N   LIG    1       23.935 -12.654   4.129  0.00  0.00    -0.357 N 
ATOM     22  H   LIG    1       24.086 -11.678   4.397  0.00  0.00    +0.142 HD
ATOM     23  H   LIG    1       23.320 -12.744   3.326  0.00  0.00    +0.142 HD
ENDBRANCH   1  21
TORSDOF 2
ENDMDL
MODEL 3
REMARK VINA RESULT:      -0.7      2.494      3.906
REMARK  Name = *****
REMARK                            x       y       z     vdW  Elec       q    Type
REMARK                         _______ _______ _______ _____ _____    ______ ____
ROOT
ATOM      1  C   LIG    1       27.163 -19.603   4.631  0.00  0.00    +0.037 A 
ATOM      2  C   LIG    1       26.974 -18.260   4.352  0.00  0.00    +0.070 A 
ATOM      3  C   LIG    1       25.846 -17.568   3.723  0.00  0.00    +0.256 C 
ATOM      4  N   LIG    1       26.157 -16.234   3.708  0.00  0.00    -0.222 N 
ATOM      5  C   LIG    1       27.420 -16.011   4.184  0.00  0.00    +0.255 C 
ATOM      6  O   LIG    1       28.049 -14.971   4.229  0.00  0.00    -0.270 OA
ATOM      7  O   LIG    1       24.851 -18.118   3.289  0.00  0.00    -0.269 OA
ATOM      8  C   LIG    1       27.938 -17.303   4.623  0.00  0.00    +0.051 A 
ATOM      9  C   LIG    1       29.145 -17.622   5.211  0.00  0.00    +0.014 A 
ATOM     10  C   LIG    1       29.352 -18.961   5.547  0.00  0.00    +0.003 A 
ATOM     11  C   LIG    1       28.364 -19.933   5.278  0.00  0.00    +0.023 A 
ENDROOT
BRANCH   4  12
ATOM     12  C   LIG    1       25.331 -15.238   3.043  0.00  0.00    +0.171 C 
ATOM     13  C   LIG    1       26.234 -14.242   2.307  0.00  0.00    +0.240 C 
ATOM     14  O   LIG    1       27.364 -14.509   1.906  0.00  0.00    -0.273 OA
ATOM     15  N   LIG    1       25.665 -13.018   2.026  0.00  0.00    -0.255 N 
ATOM     16  H   LIG    1       26.246 -12.368   1.512  0.00  0.00    +0.158 HD
ATOM     17  C   LIG    1       24.424 -12.559   2.391  0.00  0.00    +0.219 C 
ATOM     18  O   LIG    1       24.035 -11.447   2.044  0.00  0.00    -0.275 OA
ATOM     19  C   LIG    1       23.544 -13.517   3.159  0.00  0.00    +0.098 C 
ATOM     20  C   LIG    1       24.373 -14.500   3.973  0.00  0.00    +0.042 C 
ENDBRANCH   4  12
BRANCH   1  21
ATOM     21  N   LIG    1       26.144 -20.550   4.510  0.00  0.00    -0.357 N 
ATOM     22  H   LIG    1       26.354 -21.433   4.983  0.00  0.00    +0.142 HD
ATOM     23  H   LIG    1       25.212 -20.209   4.725  0.00  0.00    +0.142 HD
ENDBRANCH   1  21
TORSDOF 2
ENDMDL
MODEL 4
REMARK VINA RESULT:      -0.6      3.807      6.443
REMARK  Name = *****
REMARK                            x       y       z     vdW  Elec       q    Type
REMARK                         _______ _______ _______ _____ _____    ______ ____
ROOT
ATOM      1  C   LIG    1       28.353 -18.970   5.301  0.00  0.00    +0.037 A 
ATOM      2  C   LIG    1       27.071 -19.474   5.159  0.00  0.00    +0.070 A 
ATOM      3  C   LIG    1       25.983 -19.075   4.263  0.00  0.00    +0.256 C 
ATOM      4  N   LIG    1       24.932 -19.916   4.512  0.00  0.00    -0.222 N 
ATOM      5  C   LIG    1       25.208 -20.763   5.550  0.00  0.00    +0.255 C 
ATOM      6  O   LIG    1       24.479 -21.572   6.094  0.00  0.00    -0.270 OA
ATOM      7  O   LIG    1       26.040 -18.146   3.477  0.00  0.00    -0.269 OA
ATOM      8  C   LIG    1       26.587 -20.503   5.951  0.00  0.00    +0.051 A 
ATOM      9  C   LIG    1       27.359 -21.109   6.922  0.00  0.00    +0.014 A 
ATOM     10  C   LIG    1       28.671 -20.655   7.062  0.00  0.00    +0.003 A 
ATOM     11  C   LIG    1       29.165 -19.613   6.247  0.00  0.00    +0.023 A 
ENDROOT
BRANCH   4  12
ATOM     12  C   LIG    1       23.623 -19.747   3.903  0.00  0.00    +0.171 C 
ATOM     13  C   LIG    1       23.204 -18.276   4.003  0.00  0.00    +0.240 C 
ATOM     14  O   LIG    1       23.998 -17.342   4.086  0.00  0.00    -0.273 OA
ATOM     15  N   LIG    1       21.851 -18.033   3.902  0.00  0.00    -0.255 N 
ATOM     16  H   LIG    1       21.572 -17.061   3.936  0.00  0.00    +0.158 HD
ATOM     17  C   LIG    1       20.833 -18.948   3.801  0.00  0.00    +0.219 C 
ATOM     18  O   LIG    1       19.666 -18.585   3.689  0.00  0.00    -0.275 OA
ATOM     19  C   LIG    1       21.232 -20.405   3.749  0.00  0.00    +0.098 C 
ATOM     20  C   LIG    1       22.540 -20.648   4.489  0.00  0.00    +0.042 C 
ENDBRANCH   4  12
BRANCH   1  21
ATOM     21  N   LIG    1       28.903 -18.047   4.408  0.00  0.00    -0.357 N 
ATOM     22  H   LIG    1       29.806 -18.344   4.026  0.00  0.00    +0.142 HD
ATOM     23  H   LIG    1       28.270 -17.715   3.688  0.00  0.00    +0.142 HD
ENDBRANCH   1  21
TORSDOF 2
ENDMDL
MODEL 5
REMARK VINA RESULT:      -0.5      1.409      2.837
REMARK  Name = *****
REMARK                            x       y       z     vdW  Elec       q    Type
REMARK                         _______ _______ _______ _____ _____    ______ ____
ROOT
ATOM      1  C   LIG    1       22.250 -17.957   4.577  0.00  0.00    +0.037 A 
ATOM      2  C   LIG    1       23.516 -17.619   4.127  0.00  0.00    +0.070 A 
ATOM      3  C   LIG    1       24.155 -16.311   3.977  0.00  0.00    +0.256 C 
ATOM      4  N   LIG    1       25.424 -16.538   3.514  0.00  0.00    -0.222 N 
ATOM      5  C   LIG    1       25.632 -17.866   3.263  0.00  0.00    +0.255 C 
ATOM      6  O   LIG    1       26.600 -18.410   2.765  0.00  0.00    -0.270 OA
ATOM      7  O   LIG    1       23.614 -15.245   4.209  0.00  0.00    -0.269 OA
ATOM      8  C   LIG    1       24.421 -18.568   3.680  0.00  0.00    +0.051 A 
ATOM      9  C   LIG    1       24.131 -19.917   3.673  0.00  0.00    +0.014 A 
ATOM     10  C   LIG    1       22.880 -20.297   4.161  0.00  0.00    +0.003 A 
ATOM     11  C   LIG    1       21.962 -19.330   4.625  0.00  0.00    +0.023 A 
ENDROOT
BRANCH   4  12
ATOM     12  C   LIG    1       26.325 -15.466   3.120  0.00  0.00    +0.171 C 
ATOM     13  C   LIG    1       27.572 -15.499   4.011  0.00  0.00    +0.240 C 
ATOM     14  O   LIG    1       27.985 -16.510   4.572  0.00  0.00    -0.273 OA
ATOM     15  N   LIG    1       28.282 -14.320   4.084  0.00  0.00    -0.255 N 
ATOM     16  H   LIG    1       29.124 -14.346   4.645  0.00  0.00    +0.158 HD
ATOM     17  C   LIG    1       27.969 -13.108   3.522  0.00  0.00    +0.219 C 
ATOM     18  O   LIG    1       28.717 -12.141   3.648  0.00  0.00    -0.275 OA
ATOM     19  C   LIG    1       26.716 -13.053   2.680  0.00  0.00    +0.098 C 
ATOM     20  C   LIG    1       25.691 -14.078   3.144  0.00  0.00    +0.042 C 
ENDBRANCH   4  12
BRANCH   1  21
ATOM     21  N   LIG    1       21.391 -17.034   5.176  0.00  0.00    -0.357 N 
ATOM     22  H   LIG    1       21.846 -16.468   5.897  0.00  0.00    +0.142 HD
ATOM     23  H   LIG    1       20.847 -16.471   4.529  0.00  0.00    +0.142 HD
ENDBRANCH   1  21
TORSDOF 2
ENDMDL
MODEL 6
REMARK VINA RESULT:      -0.0      2.070      6.375
REMARK  Name = *****
REMARK                            x       y       z     vdW  Elec       q    Type
REMARK                         _______ _______ _______ _____ _____    ______ ____
ROOT
ATOM      1  C   LIG    1       24.773 -13.323   3.157  0.00  0.00    +0.037 A 
ATOM      2  C   LIG    1       24.987 -14.670   3.400  0.00  0.00    +0.070 A 
ATOM      3  C   LIG    1       24.064 -15.716   3.844  0.00  0.00    +0.256 C 
ATOM      4  N   LIG    1       24.781 -16.881   3.904  0.00  0.00    -0.222 N 
ATOM      5  C   LIG    1       26.104 -16.666   3.628  0.00  0.00    +0.255 C 
ATOM      6  O   LIG    1       27.034 -17.449   3.678  0.00  0.00    -0.270 OA
ATOM      7  O   LIG    1       22.892 -15.534   4.121  0.00  0.00    -0.269 OA
ATOM      8  C   LIG    1       26.237 -15.255   3.278  0.00  0.00    +0.051 A 
ATOM      9  C   LIG    1       27.350 -14.539   2.885  0.00  0.00    +0.014 A 
ATOM     10  C   LIG    1       27.161 -13.188   2.589  0.00  0.00    +0.003 A 
ATOM     11  C   LIG    1       25.885 -12.596   2.704  0.00  0.00    +0.023 A 
ENDROOT
BRANCH   4  12
ATOM     12  C   LIG    1       24.232 -18.120   4.430  0.00  0.00    +0.171 C 
ATOM     13  C   LIG    1       24.475 -19.250   3.423  0.00  0.00    +0.240 C 
ATOM     14  O   LIG    1       25.390 -19.251   2.604  0.00  0.00    -0.273 OA
ATOM     15  N   LIG    1       23.645 -20.344   3.543  0.00  0.00    -0.255 N 
ATOM     16  H   LIG    1       23.822 -21.106   2.901  0.00  0.00    +0.158 HD
ATOM     17  C   LIG    1       22.584 -20.510   4.398  0.00  0.00    +0.219 C 
ATOM     18  O   LIG    1       21.945 -21.558   4.415  0.00  0.00    -0.275 OA
ATOM     19  C   LIG    1       22.307 -19.382   5.364  0.00  0.00    +0.098 C 
ATOM     20  C   LIG    1       22.752 -18.042   4.794  0.00  0.00    +0.042 C 
ENDBRANCH   4  12
BRANCH   1  21
ATOM     21  N   LIG    1       23.497 -12.756   3.122  0.00  0.00    -0.357 N 
ATOM     22  H   LIG    1       22.745 -13.447   3.201  0.00  0.00    +0.142 HD
ATOM     23  H   LIG    1       23.361 -11.965   3.743  0.00  0.00    +0.142 HD
ENDBRANCH   1  21
TORSDOF 2
ENDMDL
MODEL 7
REMARK VINA RESULT:       0.2      2.061      5.958
REMARK  Name = *****
REMARK                            x       y       z     vdW  Elec       q    Type
REMARK                         _______ _______ _______ _____ _____    ______ ____
ROOT
ATOM      1  C   LIG    1       26.889 -13.976   3.350  0.00  0.00    +0.037 A 
ATOM      2  C   LIG    1       25.784 -14.792   3.531  0.00  0.00    +0.070 A 
ATOM      3  C   LIG    1       25.669 -16.252   3.529  0.00  0.00    +0.256 C 
ATOM      4  N   LIG    1       24.355 -16.547   3.779  0.00  0.00    -0.222 N 
ATOM      5  C   LIG    1       23.595 -15.413   3.852  0.00  0.00    +0.255 C 
ATOM      6  O   LIG    1       22.389 -15.305   3.970  0.00  0.00    -0.270 OA
ATOM      7  O   LIG    1       26.590 -17.019   3.315  0.00  0.00    -0.269 OA
ATOM      8  C   LIG    1       24.510 -14.283   3.720  0.00  0.00    +0.051 A 
ATOM      9  C   LIG    1       24.258 -12.927   3.763  0.00  0.00    +0.014 A 
ATOM     10  C   LIG    1       25.355 -12.075   3.628  0.00  0.00    +0.003 A 
ATOM     11  C   LIG    1       26.655 -12.595   3.445  0.00  0.00    +0.023 A 
ENDROOT
BRANCH   4  12
ATOM     12  C   LIG    1       23.827 -17.901   3.727  0.00  0.00    +0.171 C 
ATOM     13  C   LIG    1       22.683 -18.038   4.739  0.00  0.00    +0.240 C 
ATOM     14  O   LIG    1       21.997 -17.096   5.127  0.00  0.00    -0.273 OA
ATOM     15  N   LIG    1       22.393 -19.324   5.139  0.00  0.00    -0.255 N 
ATOM     16  H   LIG    1       21.618 -19.423   5.782  0.00  0.00    +0.158 HD
ATOM     17  C   LIG    1       23.048 -20.483   4.803  0.00  0.00    +0.219 C 
ATOM     18  O   LIG    1       22.658 -21.572   5.216  0.00  0.00    -0.275 OA
ATOM     19  C   LIG    1       24.207 -20.353   3.843  0.00  0.00    +0.098 C 
ATOM     20  C   LIG    1       24.873 -18.989   3.957  0.00  0.00    +0.042 C 
ENDBRANCH   4  12
BRANCH   1  21
ATOM     21  N   LIG    1       28.195 -14.469   3.318  0.00  0.00    -0.357 N 
ATOM     22  H   LIG    1       28.807 -13.951   2.681  0.00  0.00    +0.142 HD
ATOM     23  H   LIG    1       28.620 -14.619   4.227  0.00  0.00    +0.142 HD
ENDBRANCH   1  21
TORSDOF 2
ENDMDL
