MODEL 1
REMARK VINA RESULT:      -9.1      0.000      0.000
REMARK  Name = *****
REMARK                            x       y       z     vdW  Elec       q    Type
REMARK                         _______ _______ _______ _____ _____    ______ ____
ROOT
ATOM      1  C   LIG    1       25.066 -25.962   6.308  0.00  0.00    +0.124 A 
ATOM      2  C   LIG    1       23.765 -25.466   6.330  0.00  0.00    +0.091 A 
ATOM      3  C   LIG    1       23.541 -24.112   6.575  0.00  0.00    +0.131 A 
ATOM      4  C   LIG    1       24.607 -23.220   6.774  0.00  0.00    +0.064 A 
ATOM      5  C   LIG    1       25.909 -23.727   6.791  0.00  0.00    +0.019 A 
ATOM      6  C   LIG    1       26.133 -25.090   6.551  0.00  0.00    +0.046 A 
ENDROOT
BRANCH   1   8
ATOM      7  C   LIG    1       24.362 -28.176   5.813  0.00  0.00    +0.277 C 
ATOM      8  O   LIG    1       25.423 -27.262   6.074  0.00  0.00    -0.495 OA
ENDBRANCH   1   8
BRANCH   3   9
ATOM      9  O   LIG    1       22.226 -23.720   6.616  0.00  0.00    -0.506 OA
ATOM     10  H   LIG    1       21.753 -24.354   7.202  0.00  0.00    +0.292 HD
ENDBRANCH   3   9
BRANCH   4  11
ATOM     11  C   LIG    1       24.312 -21.784   7.014  0.00  0.00    +0.200 C 
ATOM     12  O   LIG    1       24.272 -21.402   8.188  0.00  0.00    -0.286 OA
BRANCH  11  13
ATOM     13  C   LIG    1       24.057 -20.786   5.946  0.00  0.00    +0.064 A 
ATOM     14  C   LIG    1       25.015 -20.372   5.013  0.00  0.00    +0.128 A 
ATOM     15  C   LIG    1       24.674 -19.465   4.004  0.00  0.00    +0.046 A 
ATOM     16  C   LIG    1       23.365 -18.992   3.902  0.00  0.00    +0.004 A 
ATOM     17  C   LIG    1       22.395 -19.422   4.804  0.00  0.00    +0.001 A 
ATOM     18  C   LIG    1       22.739 -20.316   5.820  0.00  0.00    +0.015 A 
BRANCH  14  19
ATOM     19  O   LIG    1       26.284 -20.877   5.048  0.00  0.00    -0.506 OA
ATOM     20  H   LIG    1       26.901 -20.236   4.656  0.00  0.00    +0.292 HD
ENDBRANCH  14  19
ENDBRANCH  11  13
ENDBRANCH   4  11
TORSDOF 5
ENDMDL
MODEL 2
REMARK VINA RESULT:      -8.8      2.694      3.544
REMARK  Name = *****
REMARK                            x       y       z     vdW  Elec       q    Type
REMARK                         _______ _______ _______ _____ _____    ______ ____
ROOT
ATOM      1  C   LIG    1       24.114 -24.440   6.550  0.00  0.00    +0.124 A 
ATOM      2  C   LIG    1       23.449 -23.267   6.899  0.00  0.00    +0.091 A 
ATOM      3  C   LIG    1       24.167 -22.189   7.416  0.00  0.00    +0.131 A 
ATOM      4  C   LIG    1       25.562 -22.246   7.567  0.00  0.00    +0.064 A 
ATOM      5  C   LIG    1       26.221 -23.439   7.253  0.00  0.00    +0.019 A 
ATOM      6  C   LIG    1       25.497 -24.524   6.740  0.00  0.00    +0.046 A 
ENDROOT
BRANCH   1   8
ATOM      7  C   LIG    1       24.330 -26.743   6.010  0.00  0.00    +0.277 C 
ATOM      8  O   LIG    1       23.532 -25.564   6.029  0.00  0.00    -0.495 OA
ENDBRANCH   1   8
BRANCH   3   9
ATOM      9  O   LIG    1       23.426 -21.089   7.768  0.00  0.00    -0.506 OA
ATOM     10  H   LIG    1       23.242 -20.586   6.942  0.00  0.00    +0.292 HD
ENDBRANCH   3   9
BRANCH   4  11
ATOM     11  C   LIG    1       26.279 -21.062   8.106  0.00  0.00    +0.200 C 
ATOM     12  O   LIG    1       25.897 -20.614   9.192  0.00  0.00    -0.286 OA
BRANCH  11  13
ATOM     13  C   LIG    1       27.412 -20.382   7.430  0.00  0.00    +0.064 A 
ATOM     14  C   LIG    1       27.441 -20.072   6.066  0.00  0.00    +0.128 A 
ATOM     15  C   LIG    1       28.527 -19.380   5.520  0.00  0.00    +0.046 A 
ATOM     16  C   LIG    1       29.576 -18.967   6.342  0.00  0.00    +0.004 A 
ATOM     17  C   LIG    1       29.544 -19.241   7.707  0.00  0.00    +0.001 A 
ATOM     18  C   LIG    1       28.466 -19.944   8.248  0.00  0.00    +0.015 A 
BRANCH  14  19
ATOM     19  O   LIG    1       26.392 -20.402   5.255  0.00  0.00    -0.506 OA
ATOM     20  H   LIG    1       25.554 -20.200   5.706  0.00  0.00    +0.292 HD
ENDBRANCH  14  19
ENDBRANCH  11  13
ENDBRANCH   4  11
TORSDOF 5
ENDMDL
MODEL 3
REMARK VINA RESULT:      -8.7      3.481      5.780
REMARK  Name = *****
REMARK                            x       y       z     vdW  Elec       q    Type
REMARK                         _______ _______ _______ _____ _____    ______ ____
ROOT
ATOM      1  C   LIG    1       29.762 -19.077   7.017  0.00  0.00    +0.124 A 
ATOM      2  C   LIG    1       29.133 -19.836   8.001  0.00  0.00    +0.091 A 
ATOM      3  C   LIG    1       27.934 -20.489   7.715  0.00  0.00    +0.131 A 
ATOM      4  C   LIG    1       27.354 -20.423   6.437  0.00  0.00    +0.064 A 
ATOM      5  C   LIG    1       27.967 -19.628   5.464  0.00  0.00    +0.019 A 
ATOM      6  C   LIG    1       29.168 -18.967   5.756  0.00  0.00    +0.046 A 
ENDROOT
BRANCH   1   8
ATOM      7  C   LIG    1       31.583 -18.503   8.430  0.00  0.00    +0.277 C 
ATOM      8  O   LIG    1       30.939 -18.395   7.165  0.00  0.00    -0.495 OA
ENDBRANCH   1   8
BRANCH   3   9
ATOM      9  O   LIG    1       27.366 -21.182   8.754  0.00  0.00    -0.506 OA
ATOM     10  H   LIG    1       26.417 -20.925   8.789  0.00  0.00    +0.292 HD
ENDBRANCH   3   9
BRANCH   4  11
ATOM     11  C   LIG    1       26.085 -21.152   6.182  0.00  0.00    +0.200 C 
ATOM     12  O   LIG    1       26.047 -22.349   6.488  0.00  0.00    -0.286 OA
BRANCH  11  13
ATOM     13  C   LIG    1       24.870 -20.545   5.584  0.00  0.00    +0.064 A 
ATOM     14  C   LIG    1       23.641 -20.435   6.243  0.00  0.00    +0.128 A 
ATOM     15  C   LIG    1       22.561 -19.799   5.625  0.00  0.00    +0.046 A 
ATOM     16  C   LIG    1       22.712 -19.240   4.355  0.00  0.00    +0.004 A 
ATOM     17  C   LIG    1       23.940 -19.314   3.701  0.00  0.00    +0.001 A 
ATOM     18  C   LIG    1       25.014 -19.962   4.314  0.00  0.00    +0.015 A 
BRANCH  14  19
ATOM     19  O   LIG    1       23.490 -20.909   7.516  0.00  0.00    -0.506 OA
ATOM     20  H   LIG    1       22.617 -20.651   7.859  0.00  0.00    +0.292 HD
ENDBRANCH  14  19
ENDBRANCH  11  13
ENDBRANCH   4  11
TORSDOF 5
ENDMDL
MODEL 4
REMARK VINA RESULT:      -8.6      2.917      5.994
REMARK  Name = *****
REMARK                            x       y       z     vdW  Elec       q    Type
REMARK                         _______ _______ _______ _____ _____    ______ ____
ROOT
ATOM      1  C   LIG    1       29.102 -19.461   6.478  0.00  0.00    +0.124 A 
ATOM      2  C   LIG    1       28.120 -19.642   5.506  0.00  0.00    +0.091 A 
ATOM      3  C   LIG    1       26.915 -20.259   5.842  0.00  0.00    +0.131 A 
ATOM      4  C   LIG    1       26.653 -20.683   7.155  0.00  0.00    +0.064 A 
ATOM      5  C   LIG    1       27.656 -20.536   8.118  0.00  0.00    +0.019 A 
ATOM      6  C   LIG    1       28.869 -19.921   7.778  0.00  0.00    +0.046 A 
ENDROOT
BRANCH   1   8
ATOM      7  C   LIG    1       31.293 -19.062   7.303  0.00  0.00    +0.277 C 
ATOM      8  O   LIG    1       30.319 -18.867   6.283  0.00  0.00    -0.495 OA
ENDBRANCH   1   8
BRANCH   3   9
ATOM      9  O   LIG    1       26.022 -20.430   4.814  0.00  0.00    -0.506 OA
ATOM     10  H   LIG    1       25.120 -20.359   5.199  0.00  0.00    +0.292 HD
ENDBRANCH   3   9
BRANCH   4  11
ATOM     11  C   LIG    1       25.347 -21.320   7.461  0.00  0.00    +0.200 C 
ATOM     12  O   LIG    1       24.497 -20.626   8.032  0.00  0.00    -0.286 OA
BRANCH  11  13
ATOM     13  C   LIG    1       24.996 -22.725   7.135  0.00  0.00    +0.064 A 
ATOM     14  C   LIG    1       23.709 -23.154   6.793  0.00  0.00    +0.128 A 
ATOM     15  C   LIG    1       23.478 -24.489   6.446  0.00  0.00    +0.046 A 
ATOM     16  C   LIG    1       24.538 -25.395   6.407  0.00  0.00    +0.004 A 
ATOM     17  C   LIG    1       25.830 -24.972   6.713  0.00  0.00    +0.001 A 
ATOM     18  C   LIG    1       26.057 -23.643   7.073  0.00  0.00    +0.015 A 
BRANCH  14  19
ATOM     19  O   LIG    1       22.668 -22.270   6.754  0.00  0.00    -0.506 OA
ATOM     20  H   LIG    1       22.803 -21.640   6.025  0.00  0.00    +0.292 HD
ENDBRANCH  14  19
ENDBRANCH  11  13
ENDBRANCH   4  11
TORSDOF 5
ENDMDL
MODEL 5
REMARK VINA RESULT:      -8.5      2.707      3.446
REMARK  Name = *****
REMARK                            x       y       z     vdW  Elec       q    Type
REMARK                         _______ _______ _______ _____ _____    ______ ____
ROOT
ATOM      1  C   LIG    1       24.120 -24.789   6.394  0.00  0.00    +0.124 A 
ATOM      2  C   LIG    1       23.461 -23.629   6.796  0.00  0.00    +0.091 A 
ATOM      3  C   LIG    1       24.187 -22.567   7.333  0.00  0.00    +0.131 A 
ATOM      4  C   LIG    1       25.585 -22.625   7.455  0.00  0.00    +0.064 A 
ATOM      5  C   LIG    1       26.239 -23.806   7.089  0.00  0.00    +0.019 A 
ATOM      6  C   LIG    1       25.507 -24.875   6.555  0.00  0.00    +0.046 A 
ENDROOT
BRANCH   1   8
ATOM      7  C   LIG    1       24.338 -27.064   5.749  0.00  0.00    +0.277 C 
ATOM      8  O   LIG    1       23.530 -25.896   5.848  0.00  0.00    -0.495 OA
ENDBRANCH   1   8
BRANCH   3   9
ATOM      9  O   LIG    1       23.450 -21.481   7.736  0.00  0.00    -0.506 OA
ATOM     10  H   LIG    1       24.031 -20.691   7.655  0.00  0.00    +0.292 HD
ENDBRANCH   3   9
BRANCH   4  11
ATOM     11  C   LIG    1       26.310 -21.458   8.018  0.00  0.00    +0.200 C 
ATOM     12  O   LIG    1       25.992 -21.087   9.153  0.00  0.00    -0.286 OA
BRANCH  11  13
ATOM     13  C   LIG    1       27.380 -20.710   7.313  0.00  0.00    +0.064 A 
ATOM     14  C   LIG    1       28.732 -20.750   7.668  0.00  0.00    +0.128 A 
ATOM     15  C   LIG    1       29.683 -20.056   6.914  0.00  0.00    +0.046 A 
ATOM     16  C   LIG    1       29.292 -19.343   5.781  0.00  0.00    +0.004 A 
ATOM     17  C   LIG    1       27.953 -19.322   5.397  0.00  0.00    +0.001 A 
ATOM     18  C   LIG    1       27.002 -20.003   6.159  0.00  0.00    +0.015 A 
BRANCH  14  19
ATOM     19  O   LIG    1       29.150 -21.501   8.731  0.00  0.00    -0.506 OA
ATOM     20  H   LIG    1       28.450 -21.529   9.406  0.00  0.00    +0.292 HD
ENDBRANCH  14  19
ENDBRANCH  11  13
ENDBRANCH   4  11
TORSDOF 5
ENDMDL
MODEL 6
REMARK VINA RESULT:      -8.4      5.355      7.549
REMARK  Name = *****
REMARK                            x       y       z     vdW  Elec       q    Type
REMARK                         _______ _______ _______ _____ _____    ______ ____
ROOT
ATOM      1  C   LIG    1       31.485 -18.525   9.429  0.00  0.00    +0.124 A 
ATOM      2  C   LIG    1       31.438 -19.886   9.133  0.00  0.00    +0.091 A 
ATOM      3  C   LIG    1       30.507 -20.365   8.212  0.00  0.00    +0.131 A 
ATOM      4  C   LIG    1       29.626 -19.497   7.545  0.00  0.00    +0.064 A 
ATOM      5  C   LIG    1       29.649 -18.138   7.874  0.00  0.00    +0.019 A 
ATOM      6  C   LIG    1       30.581 -17.659   8.805  0.00  0.00    +0.046 A 
ENDROOT
BRANCH   1   8
ATOM      7  C   LIG    1       32.702 -16.575  10.027  0.00  0.00    +0.277 C 
ATOM      8  O   LIG    1       32.350 -17.927  10.304  0.00  0.00    -0.495 OA
ENDBRANCH   1   8
BRANCH   3   9
ATOM      9  O   LIG    1       30.506 -21.723   8.012  0.00  0.00    -0.506 OA
ATOM     10  H   LIG    1       30.899 -22.134   8.815  0.00  0.00    +0.292 HD
ENDBRANCH   3   9
BRANCH   4  11
ATOM     11  C   LIG    1       28.666 -20.059   6.561  0.00  0.00    +0.200 C 
ATOM     12  O   LIG    1       29.103 -20.338   5.439  0.00  0.00    -0.286 OA
BRANCH  11  13
ATOM     13  C   LIG    1       27.227 -20.303   6.830  0.00  0.00    +0.064 A 
ATOM     14  C   LIG    1       26.246 -20.388   5.837  0.00  0.00    +0.128 A 
ATOM     15  C   LIG    1       24.919 -20.674   6.176  0.00  0.00    +0.046 A 
ATOM     16  C   LIG    1       24.573 -20.910   7.507  0.00  0.00    +0.004 A 
ATOM     17  C   LIG    1       25.548 -20.861   8.501  0.00  0.00    +0.001 A 
ATOM     18  C   LIG    1       26.868 -20.560   8.164  0.00  0.00    +0.015 A 
BRANCH  14  19
ATOM     19  O   LIG    1       26.574 -20.233   4.520  0.00  0.00    -0.506 OA
ATOM     20  H   LIG    1       27.374 -19.686   4.445  0.00  0.00    +0.292 HD
ENDBRANCH  14  19
ENDBRANCH  11  13
ENDBRANCH   4  11
TORSDOF 5
ENDMDL
MODEL 7
REMARK VINA RESULT:      -8.3      1.073      1.618
REMARK  Name = *****
REMARK                            x       y       z     vdW  Elec       q    Type
REMARK                         _______ _______ _______ _____ _____    ______ ____
ROOT
ATOM      1  C   LIG    1       25.143 -26.336   6.344  0.00  0.00    +0.124 A 
ATOM      2  C   LIG    1       23.846 -25.828   6.366  0.00  0.00    +0.091 A 
ATOM      3  C   LIG    1       23.639 -24.458   6.520  0.00  0.00    +0.131 A 
ATOM      4  C   LIG    1       24.717 -23.564   6.626  0.00  0.00    +0.064 A 
ATOM      5  C   LIG    1       26.016 -24.081   6.644  0.00  0.00    +0.019 A 
ATOM      6  C   LIG    1       26.222 -25.459   6.496  0.00  0.00    +0.046 A 
ENDROOT
BRANCH   1   8
ATOM      7  C   LIG    1       24.437 -28.604   6.360  0.00  0.00    +0.277 C 
ATOM      8  O   LIG    1       25.484 -27.653   6.194  0.00  0.00    -0.495 OA
ENDBRANCH   1   8
BRANCH   3   9
ATOM      9  O   LIG    1       22.329 -24.052   6.569  0.00  0.00    -0.506 OA
ATOM     10  H   LIG    1       22.331 -23.095   6.800  0.00  0.00    +0.292 HD
ENDBRANCH   3   9
BRANCH   4  11
ATOM     11  C   LIG    1       24.440 -22.112   6.771  0.00  0.00    +0.200 C 
ATOM     12  O   LIG    1       24.147 -21.700   7.899  0.00  0.00    -0.286 OA
BRANCH  11  13
ATOM     13  C   LIG    1       24.485 -21.130   5.659  0.00  0.00    +0.064 A 
ATOM     14  C   LIG    1       23.367 -20.729   4.919  0.00  0.00    +0.128 A 
ATOM     15  C   LIG    1       23.490 -19.756   3.922  0.00  0.00    +0.046 A 
ATOM     16  C   LIG    1       24.726 -19.154   3.682  0.00  0.00    +0.004 A 
ATOM     17  C   LIG    1       25.839 -19.520   4.435  0.00  0.00    +0.001 A 
ATOM     18  C   LIG    1       25.718 -20.502   5.420  0.00  0.00    +0.015 A 
BRANCH  14  19
ATOM     19  O   LIG    1       22.133 -21.252   5.185  0.00  0.00    -0.506 OA
ATOM     20  H   LIG    1       21.487 -20.906   4.545  0.00  0.00    +0.292 HD
ENDBRANCH  14  19
ENDBRANCH  11  13
ENDBRANCH   4  11
TORSDOF 5
ENDMDL
MODEL 8
REMARK VINA RESULT:      -8.1      2.441      3.218
REMARK  Name = *****
REMARK                            x       y       z     vdW  Elec       q    Type
REMARK                         _______ _______ _______ _____ _____    ______ ____
ROOT
ATOM      1  C   LIG    1       25.182 -25.571   5.559  0.00  0.00    +0.124 A 
ATOM      2  C   LIG    1       24.786 -24.510   4.747  0.00  0.00    +0.091 A 
ATOM      3  C   LIG    1       24.945 -23.198   5.192  0.00  0.00    +0.131 A 
ATOM      4  C   LIG    1       25.526 -22.915   6.439  0.00  0.00    +0.064 A 
ATOM      5  C   LIG    1       25.886 -23.982   7.267  0.00  0.00    +0.019 A 
ATOM      6  C   LIG    1       25.719 -25.301   6.822  0.00  0.00    +0.046 A 
ENDROOT
BRANCH   1   8
ATOM      7  C   LIG    1       24.512 -27.749   6.227  0.00  0.00    +0.277 C 
ATOM      8  O   LIG    1       25.088 -26.899   5.241  0.00  0.00    -0.495 OA
ENDBRANCH   1   8
BRANCH   3   9
ATOM      9  O   LIG    1       24.492 -22.219   4.344  0.00  0.00    -0.506 OA
ATOM     10  H   LIG    1       23.935 -22.660   3.662  0.00  0.00    +0.292 HD
ENDBRANCH   3   9
BRANCH   4  11
ATOM     11  C   LIG    1       25.687 -21.498   6.855  0.00  0.00    +0.200 C 
ATOM     12  O   LIG    1       24.696 -20.929   7.324  0.00  0.00    -0.286 OA
BRANCH  11  13
ATOM     13  C   LIG    1       26.949 -20.724   6.742  0.00  0.00    +0.064 A 
ATOM     14  C   LIG    1       27.355 -20.049   5.586  0.00  0.00    +0.128 A 
ATOM     15  C   LIG    1       28.534 -19.297   5.583  0.00  0.00    +0.046 A 
ATOM     16  C   LIG    1       29.297 -19.189   6.747  0.00  0.00    +0.004 A 
ATOM     17  C   LIG    1       28.886 -19.830   7.913  0.00  0.00    +0.001 A 
ATOM     18  C   LIG    1       27.716 -20.592   7.911  0.00  0.00    +0.015 A 
BRANCH  14  19
ATOM     19  O   LIG    1       26.587 -20.080   4.456  0.00  0.00    -0.506 OA
ATOM     20  H   LIG    1       25.651 -19.962   4.694  0.00  0.00    +0.292 HD
ENDBRANCH  14  19
ENDBRANCH  11  13
ENDBRANCH   4  11
TORSDOF 5
ENDMDL
MODEL 9
REMARK VINA RESULT:      -7.9      5.151      6.735
REMARK  Name = *****
REMARK                            x       y       z     vdW  Elec       q    Type
REMARK                         _______ _______ _______ _____ _____    ______ ____
ROOT
ATOM      1  C   LIG    1       25.825 -20.222   5.617  0.00  0.00    +0.124 A 
ATOM      2  C   LIG    1       25.738 -20.702   6.922  0.00  0.00    +0.091 A 
ATOM      3  C   LIG    1       26.883 -20.768   7.716  0.00  0.00    +0.131 A 
ATOM      4  C   LIG    1       28.129 -20.332   7.238  0.00  0.00    +0.064 A 
ATOM      5  C   LIG    1       28.220 -19.888   5.915  0.00  0.00    +0.019 A 
ATOM      6  C   LIG    1       27.070 -19.828   5.116  0.00  0.00    +0.046 A 
ENDROOT
BRANCH   1   8
ATOM      7  C   LIG    1       24.230 -21.311   4.235  0.00  0.00    +0.277 C 
ATOM      8  O   LIG    1       24.782 -20.099   4.739  0.00  0.00    -0.495 OA
ENDBRANCH   1   8
BRANCH   3   9
ATOM      9  O   LIG    1       26.710 -21.290   8.973  0.00  0.00    -0.506 OA
ATOM     10  H   LIG    1       26.088 -20.696   9.451  0.00  0.00    +0.292 HD
ENDBRANCH   3   9
BRANCH   4  11
ATOM     11  C   LIG    1       29.313 -20.409   8.132  0.00  0.00    +0.200 C 
ATOM     12  O   LIG    1       29.605 -21.518   8.591  0.00  0.00    -0.286 OA
BRANCH  11  13
ATOM     13  C   LIG    1       30.158 -19.250   8.513  0.00  0.00    +0.064 A 
ATOM     14  C   LIG    1       31.411 -18.974   7.954  0.00  0.00    +0.128 A 
ATOM     15  C   LIG    1       32.118 -17.829   8.333  0.00  0.00    +0.046 A 
ATOM     16  C   LIG    1       31.562 -16.935   9.248  0.00  0.00    +0.004 A 
ATOM     17  C   LIG    1       30.301 -17.181   9.787  0.00  0.00    +0.001 A 
ATOM     18  C   LIG    1       29.602 -18.332   9.420  0.00  0.00    +0.015 A 
BRANCH  14  19
ATOM     19  O   LIG    1       31.944 -19.796   7.002  0.00  0.00    -0.506 OA
ATOM     20  H   LIG    1       31.586 -20.694   7.108  0.00  0.00    +0.292 HD
ENDBRANCH  14  19
ENDBRANCH  11  13
ENDBRANCH   4  11
TORSDOF 5
ENDMDL
