MODEL 1
REMARK VINA RESULT:       6.0      0.000      0.000
REMARK  Name = *****
REMARK                            x       y       z     vdW  Elec       q    Type
REMARK                         _______ _______ _______ _____ _____    ______ ____
ROOT
ATOM      1  C   LIG    1       25.227 -19.139   3.753  0.00  0.00    +0.122 A 
ATOM      2  N   LIG    1       26.196 -19.996   4.098  0.00  0.00    -0.237 NA
ATOM      3  C   LIG    1       27.458 -19.538   4.303  0.00  0.00    +0.047 A 
ATOM      4  C   LIG    1       28.414 -20.625   4.742  0.00  0.00    +0.056 C 
ATOM      5  C   LIG    1       28.518 -20.778   6.260  0.00  0.00    +0.006 C 
ATOM      6  C   LIG    1       29.429 -19.775   6.974  0.00  0.00    +0.000 C 
ATOM      7  C   LIG    1       28.892 -18.345   7.045  0.00  0.00    +0.000 C 
ATOM      8  C   LIG    1       29.452 -17.391   5.989  0.00  0.00    +0.005 C 
ATOM      9  C   LIG    1       29.245 -17.792   4.532  0.00  0.00    +0.037 C 
ATOM     10  C   LIG    1       27.826 -18.182   4.176  0.00  0.00    -0.018 A 
ATOM     11  C   LIG    1       26.814 -17.263   3.792  0.00  0.00    -0.010 A 
ATOM     12  C   LIG    1       25.516 -17.793   3.574  0.00  0.00    +0.052 A 
ENDROOT
BRANCH  11  13
ATOM     13  C   LIG    1       26.979 -15.787   3.624  0.00  0.00    -0.017 A 
ATOM     14  C   LIG    1       26.219 -15.087   2.655  0.00  0.00    +0.011 A 
ATOM     15  C   LIG    1       26.392 -13.722   2.415  0.00  0.00    +0.039 A 
ATOM     16  C   LIG    1       27.303 -13.003   3.176  0.00  0.00    +0.123 A 
ATOM     17  F   LIG    1       27.462 -11.696   2.966  0.00  0.00    -0.205 F 
ATOM     18  C   LIG    1       28.065 -13.649   4.143  0.00  0.00    +0.039 A 
ATOM     19  C   LIG    1       27.928 -15.027   4.335  0.00  0.00    +0.011 A 
ENDBRANCH  11  13
BRANCH   1  23
ATOM     20  N   LIG    1       21.507 -20.983   4.792  0.00  0.00    -0.300 NA
ATOM     21  C   LIG    1       21.613 -19.512   4.695  0.00  0.00    +0.103 C 
ATOM     22  C   LIG    1       23.046 -18.930   4.649  0.00  0.00    +0.122 C 
ATOM     23  N   LIG    1       23.886 -19.591   3.621  0.00  0.00    -0.313 N 
ATOM     24  C   LIG    1       23.804 -21.069   3.654  0.00  0.00    +0.122 C 
ATOM     25  C   LIG    1       22.336 -21.562   3.705  0.00  0.00    +0.103 C 
BRANCH  20  27
ATOM     26  C   LIG    1       23.250 -21.078   6.611  0.00  0.00    +0.020 C 
ATOM     27  C   LIG    1       21.888 -21.541   6.098  0.00  0.00    +0.081 C 
ENDBRANCH  20  27
ENDBRANCH   1  23
TORSDOF 3
ENDMDL
MODEL 2
REMARK VINA RESULT:       7.4      3.100      6.167
REMARK  Name = *****
REMARK                            x       y       z     vdW  Elec       q    Type
REMARK                         _______ _______ _______ _____ _____    ______ ____
ROOT
ATOM      1  C   LIG    1       27.622 -17.585   4.409  0.00  0.00    +0.122 A 
ATOM      2  N   LIG    1       28.004 -16.352   4.056  0.00  0.00    -0.237 NA
ATOM      3  C   LIG    1       27.081 -15.466   3.600  0.00  0.00    +0.047 A 
ATOM      4  C   LIG    1       27.669 -14.105   3.301  0.00  0.00    +0.056 C 
ATOM      5  C   LIG    1       27.611 -13.136   4.483  0.00  0.00    +0.006 C 
ATOM      6  C   LIG    1       26.267 -12.436   4.711  0.00  0.00    +0.000 C 
ATOM      7  C   LIG    1       25.151 -13.332   5.249  0.00  0.00    +0.000 C 
ATOM      8  C   LIG    1       24.172 -13.849   4.193  0.00  0.00    +0.005 C 
ATOM      9  C   LIG    1       24.772 -14.655   3.046  0.00  0.00    +0.037 C 
ATOM     10  C   LIG    1       25.709 -15.766   3.472  0.00  0.00    -0.018 A 
ATOM     11  C   LIG    1       25.290 -17.077   3.823  0.00  0.00    -0.010 A 
ATOM     12  C   LIG    1       26.294 -17.969   4.279  0.00  0.00    +0.052 A 
ENDROOT
BRANCH  11  13
ATOM     13  C   LIG    1       23.889 -17.596   3.788  0.00  0.00    -0.017 A 
ATOM     14  C   LIG    1       22.827 -16.832   4.332  0.00  0.00    +0.011 A 
ATOM     15  C   LIG    1       21.516 -17.307   4.384  0.00  0.00    +0.039 A 
ATOM     16  C   LIG    1       21.217 -18.552   3.848  0.00  0.00    +0.123 A 
ATOM     17  F   LIG    1       19.964 -19.007   3.877  0.00  0.00    -0.205 F 
ATOM     18  C   LIG    1       22.227 -19.333   3.297  0.00  0.00    +0.039 A 
ATOM     19  C   LIG    1       23.547 -18.873   3.303  0.00  0.00    +0.011 A 
ENDBRANCH  11  13
BRANCH   1  23
ATOM     20  N   LIG    1       29.124 -20.975   6.545  0.00  0.00    -0.300 NA
ATOM     21  C   LIG    1       29.216 -20.918   5.072  0.00  0.00    +0.103 C 
ATOM     22  C   LIG    1       28.359 -19.834   4.374  0.00  0.00    +0.122 C 
ATOM     23  N   LIG    1       28.561 -18.492   4.970  0.00  0.00    -0.313 N 
ATOM     24  C   LIG    1       28.503 -18.489   6.450  0.00  0.00    +0.122 C 
ATOM     25  C   LIG    1       29.382 -19.608   7.062  0.00  0.00    +0.103 C 
BRANCH  20  27
ATOM     26  C   LIG    1       26.610 -20.959   6.355  0.00  0.00    +0.020 C 
ATOM     27  C   LIG    1       27.850 -21.500   7.062  0.00  0.00    +0.081 C 
ENDBRANCH  20  27
ENDBRANCH   1  23
TORSDOF 3
ENDMDL
MODEL 3
REMARK VINA RESULT:       8.5      1.262      2.247
REMARK  Name = *****
REMARK                            x       y       z     vdW  Elec       q    Type
REMARK                         _______ _______ _______ _____ _____    ______ ____
ROOT
ATOM      1  C   LIG    1       24.596 -19.120   4.717  0.00  0.00    +0.122 A 
ATOM      2  N   LIG    1       25.482 -20.086   4.988  0.00  0.00    -0.237 NA
ATOM      3  C   LIG    1       26.811 -19.838   4.852  0.00  0.00    +0.047 A 
ATOM      4  C   LIG    1       27.673 -21.014   5.253  0.00  0.00    +0.056 C 
ATOM      5  C   LIG    1       28.099 -20.993   6.722  0.00  0.00    +0.006 C 
ATOM      6  C   LIG    1       29.287 -20.087   7.061  0.00  0.00    +0.000 C 
ATOM      7  C   LIG    1       28.995 -18.586   7.011  0.00  0.00    +0.000 C 
ATOM      8  C   LIG    1       29.431 -17.887   5.722  0.00  0.00    +0.005 C 
ATOM      9  C   LIG    1       28.837 -18.423   4.423  0.00  0.00    +0.037 C 
ATOM     10  C   LIG    1       27.333 -18.596   4.436  0.00  0.00    -0.018 A 
ATOM     11  C   LIG    1       26.405 -17.566   4.126  0.00  0.00    -0.010 A 
ATOM     12  C   LIG    1       25.029 -17.880   4.268  0.00  0.00    +0.052 A 
ENDROOT
BRANCH  11  13
ATOM     13  C   LIG    1       26.741 -16.176   3.692  0.00  0.00    -0.017 A 
ATOM     14  C   LIG    1       27.722 -15.426   4.386  0.00  0.00    +0.011 A 
ATOM     15  C   LIG    1       28.016 -14.101   4.061  0.00  0.00    +0.039 A 
ATOM     16  C   LIG    1       27.365 -13.497   2.995  0.00  0.00    +0.123 A 
ATOM     17  F   LIG    1       27.653 -12.236   2.666  0.00  0.00    -0.205 F 
ATOM     18  C   LIG    1       26.400 -14.197   2.282  0.00  0.00    +0.039 A 
ATOM     19  C   LIG    1       26.069 -15.504   2.653  0.00  0.00    +0.011 A 
ENDBRANCH  11  13
BRANCH   1  23
ATOM     20  N   LIG    1       20.406 -19.388   3.889  0.00  0.00    -0.300 NA
ATOM     21  C   LIG    1       21.205 -20.611   4.108  0.00  0.00    +0.103 C 
ATOM     22  C   LIG    1       22.743 -20.441   4.064  0.00  0.00    +0.122 C 
ATOM     23  N   LIG    1       23.210 -19.339   4.939  0.00  0.00    -0.313 N 
ATOM     24  C   LIG    1       22.429 -18.090   4.782  0.00  0.00    +0.122 C 
ATOM     25  C   LIG    1       20.904 -18.355   4.831  0.00  0.00    +0.103 C 
BRANCH  20  27
ATOM     26  C   LIG    1       19.377 -17.805   2.218  0.00  0.00    +0.020 C 
ATOM     27  C   LIG    1       20.416 -18.887   2.506  0.00  0.00    +0.081 C 
ENDBRANCH  20  27
ENDBRANCH   1  23
TORSDOF 3
ENDMDL
