MODEL 1
REMARK VINA RESULT:      29.6      0.000      0.000
REMARK  Name = *****
REMARK                            x       y       z     vdW  Elec       q    Type
REMARK                         _______ _______ _______ _____ _____    ______ ____
ROOT
ATOM      1  C   LIG    1       21.543 -26.230  12.533  0.00  0.00    +0.014 C 
ATOM      2  C   LIG    1       22.289 -26.998  13.631  0.00  0.00    +0.037 C 
ATOM      3  C   LIG    1       22.656 -26.133  14.878  0.00  0.00    +0.127 C 
ATOM      4  C   LIG    1       23.949 -25.267  14.837  0.00  0.00    +0.056 C 
ATOM      5  C   LIG    1       23.885 -24.065  13.885  0.00  0.00    +0.014 C 
ATOM      6  C   LIG    1       25.285 -26.046  14.655  0.00  0.00    +0.179 C 
ATOM      7  C   LIG    1       25.374 -27.322  15.487  0.00  0.00    +0.052 C 
ATOM      8  O   LIG    1       25.622 -26.137  13.248  0.00  0.00    -0.461 OA
ATOM      9  C   LIG    1       26.046 -27.256  12.612  0.00  0.00    +0.310 C 
ATOM     10  O   LIG    1       25.971 -28.389  13.031  0.00  0.00    -0.251 OA
ATOM     11  C   LIG    1       26.521 -26.926  11.214  0.00  0.00    +0.152 C 
ATOM     12  C   LIG    1       27.756 -26.035  11.087  0.00  0.00    +0.128 C 
ATOM     13  C   LIG    1       29.131 -26.698  11.280  0.00  0.00    +0.063 C 
ATOM     14  C   LIG    1       29.521 -27.202  12.679  0.00  0.00    +0.119 C 
ATOM     15  C   LIG    1       29.317 -28.715  12.836  0.00  0.00    +0.062 C 
ATOM     16  C   LIG    1       29.917 -29.293  14.128  0.00  0.00    +0.117 C 
ATOM     17  C   LIG    1       29.436 -30.729  14.404  0.00  0.00    +0.034 C 
ATOM     18  C   LIG    1       27.992 -30.836  14.942  0.00  0.00    +0.036 C 
ATOM     19  C   LIG    1       27.109 -31.756  14.086  0.00  0.00    +0.143 C 
ATOM     20  C   LIG    1       25.716 -32.018  14.718  0.00  0.00    +0.150 C 
ATOM     21  C   LIG    1       24.859 -32.938  13.831  0.00  0.00    +0.108 C 
ATOM     22  C   LIG    1       23.392 -32.555  13.829  0.00  0.00    +0.138 C 
ATOM     23  O   LIG    1       22.788 -32.342  14.884  0.00  0.00    -0.297 OA
ATOM     24  C   LIG    1       22.732 -32.344  12.485  0.00  0.00    +0.106 C 
ATOM     25  C   LIG    1       22.966 -30.938  11.922  0.00  0.00    +0.138 C 
ATOM     26  C   LIG    1       23.006 -30.837  10.375  0.00  0.00    +0.155 C 
ATOM     27  C   LIG    1       24.270 -31.443   9.705  0.00  0.00    +0.134 C 
ATOM     28  C   LIG    1       24.476 -31.148   8.193  0.00  0.00    +0.068 C 
ATOM     29  C   LIG    1       23.694 -31.978   7.137  0.00  0.00    +0.147 C 
ATOM     30  C   LIG    1       22.197 -31.818   7.358  0.00  0.00    +0.004 C 
ATOM     31  C   LIG    1       21.356 -32.761   7.813  0.00  0.00    -0.002 C 
ATOM     32  C   LIG    1       19.983 -32.522   8.211  0.00  0.00    -0.000 C 
ATOM     33  C   LIG    1       19.124 -33.531   8.434  0.00  0.00    +0.000 C 
ATOM     34  C   LIG    1       17.965 -33.340   9.276  0.00  0.00    +0.000 C 
ATOM     35  C   LIG    1       18.128 -33.553  10.591  0.00  0.00    -0.000 C 
ATOM     36  C   LIG    1       17.228 -33.076  11.605  0.00  0.00    -0.004 C 
ATOM     37  C   LIG    1       17.610 -33.062  12.891  0.00  0.00    -0.026 C 
ATOM     38  C   LIG    1       16.874 -32.308  13.955  0.00  0.00    +0.031 C 
ATOM     39  C   LIG    1       17.819 -31.437  14.801  0.00  0.00    +0.031 C 
ATOM     40  C   LIG    1       18.460 -30.275  14.077  0.00  0.00    -0.026 C 
ATOM     41  C   LIG    1       19.722 -29.878  14.311  0.00  0.00    -0.005 C 
ATOM     42  C   LIG    1       20.315 -28.682  13.742  0.00  0.00    -0.004 C 
ATOM     43  C   LIG    1       21.540 -28.252  14.094  0.00  0.00    -0.021 C 
ENDROOT
BRANCH   3  44
ATOM     44  O   LIG    1       21.552 -25.307  15.280  0.00  0.00    -0.391 OA
ATOM     45  H   LIG    1       20.846 -25.388  14.617  0.00  0.00    +0.210 HD
ENDBRANCH   3  44
BRANCH  12  46
ATOM     46  O   LIG    1       27.657 -24.854  11.876  0.00  0.00    -0.391 OA
ATOM     47  H   LIG    1       27.714 -25.152  12.811  0.00  0.00    +0.210 HD
ENDBRANCH  12  46
BRANCH  14  48
ATOM     48  O   LIG    1       28.794 -26.484  13.675  0.00  0.00    -0.392 OA
ATOM     49  H   LIG    1       27.938 -26.250  13.248  0.00  0.00    +0.210 HD
ENDBRANCH  14  48
BRANCH  16  50
ATOM     50  O   LIG    1       29.623 -28.448  15.242  0.00  0.00    -0.392 OA
ATOM     51  H   LIG    1       29.429 -27.562  14.886  0.00  0.00    +0.210 HD
ENDBRANCH  16  50
BRANCH  19  52
ATOM     52  O   LIG    1       26.958 -31.149  12.798  0.00  0.00    -0.389 OA
ATOM     53  H   LIG    1       26.188 -31.596  12.374  0.00  0.00    +0.210 HD
ENDBRANCH  19  52
BRANCH  20  54
ATOM     54  O   LIG    1       25.052 -30.766  14.942  0.00  0.00    -0.389 OA
ATOM     55  H   LIG    1       24.595 -30.549  14.100  0.00  0.00    +0.210 HD
ENDBRANCH  20  54
BRANCH  25  56
ATOM     56  O   LIG    1       24.164 -30.316  12.395  0.00  0.00    -0.391 OA
ATOM     57  H   LIG    1       24.941 -30.602  11.861  0.00  0.00    +0.210 HD
ENDBRANCH  25  56
BRANCH  26  58
ATOM     58  C   LIG    1       22.884 -29.372   9.977  0.00  0.00    +0.313 C 
ATOM     59  O   LIG    1       23.769 -28.753   9.401  0.00  0.00    -0.251 OA
BRANCH  58  60
ATOM     60  O   LIG    1       21.754 -28.756  10.397  0.00  0.00    -0.480 OA
ATOM     61  H   LIG    1       21.418 -29.148  11.245  0.00  0.00    +0.295 HD
ENDBRANCH  58  60
ENDBRANCH  26  58
BRANCH  27  62
ATOM     62  O   LIG    1       24.342 -32.841   9.986  0.00  0.00    -0.391 OA
ATOM     63  H   LIG    1       24.163 -33.010  10.929  0.00  0.00    +0.210 HD
ENDBRANCH  27  62
BRANCH  29  64
ATOM     64  O   LIG    1       24.069 -33.372   7.119  0.00  0.00    -0.341 OA
BRANCH  64  65
ATOM     65  C   LIG    1       24.707 -33.825   5.905  0.00  0.00    +0.281 C 
ATOM     66  C   LIG    1       24.114 -33.116   4.670  0.00  0.00    +0.189 C 
ATOM     67  C   LIG    1       24.678 -31.696   4.511  0.00  0.00    +0.116 C 
ATOM     68  C   LIG    1       26.195 -31.847   4.330  0.00  0.00    +0.162 C 
ATOM     69  C   LIG    1       26.857 -32.697   5.439  0.00  0.00    +0.148 C 
ATOM     70  C   LIG    1       27.359 -31.829   6.583  0.00  0.00    +0.040 C 
ATOM     71  O   LIG    1       26.126 -33.820   5.955  0.00  0.00    -0.343 OA
BRANCH  67  72
ATOM     72  N   LIG    1       24.296 -30.779   5.600  0.00  0.00    -0.323 NA
ATOM     73  H   LIG    1       23.388 -30.378   5.351  0.00  0.00    +0.119 HD
ATOM     74  H   LIG    1       24.064 -31.337   6.432  0.00  0.00    +0.119 HD
ENDBRANCH  67  72
BRANCH  66  75
ATOM     75  O   LIG    1       22.680 -33.101   4.690  0.00  0.00    -0.385 OA
ATOM     76  H   LIG    1       22.386 -34.028   4.620  0.00  0.00    +0.210 HD
ENDBRANCH  66  75
BRANCH  68  77
ATOM     77  O   LIG    1       26.438 -32.489   3.061  0.00  0.00    -0.388 OA
ATOM     78  H   LIG    1       26.272 -33.441   3.187  0.00  0.00    +0.210 HD
ENDBRANCH  68  77
ENDBRANCH  64  65
ENDBRANCH  29  64
TORSDOF 15
ENDMDL
