MODEL 1
REMARK VINA RESULT:      -8.1      0.000      0.000
REMARK  Name = *****
REMARK                            x       y       z     vdW  Elec       q    Type
REMARK                         _______ _______ _______ _____ _____    ______ ____
ROOT
ATOM      1  C   LIG    1       26.031 -22.053   7.336  0.00  0.00    +0.170 C 
ENDROOT
BRANCH   1   7
ATOM      2 CL   LIG    1       22.575 -18.692   3.678  0.00  0.00    -0.084 Cl
ATOM      3  C   LIG    1       23.548 -19.639   4.732  0.00  0.00    +0.042 A 
ATOM      4  C   LIG    1       23.003 -20.143   5.909  0.00  0.00    +0.040 A 
ATOM      5  C   LIG    1       23.793 -20.915   6.766  0.00  0.00    +0.048 A 
ATOM      6 CL   LIG    1       23.070 -21.426   8.249  0.00  0.00    -0.083 Cl
ATOM      7  C   LIG    1       25.127 -21.216   6.438  0.00  0.00    +0.001 A 
ATOM      8  C   LIG    1       25.661 -20.673   5.252  0.00  0.00    +0.009 A 
ATOM      9  C   LIG    1       24.877 -19.888   4.407  0.00  0.00    +0.020 A 
ENDBRANCH   1   7
BRANCH   1  10
ATOM     10  O   LIG    1       27.136 -21.248   7.798  0.00  0.00    -0.365 OA
BRANCH  10  11
ATOM     11  C   LIG    1       28.406 -21.736   7.348  0.00  0.00    +0.199 C 
BRANCH  11  12
ATOM     12  C   LIG    1       29.461 -20.677   7.559  0.00  0.00    +0.015 A 
ATOM     13  C   LIG    1       29.501 -19.513   6.766  0.00  0.00    +0.048 A 
ATOM     14 CL   LIG    1       28.358 -19.219   5.499  0.00  0.00    -0.083 Cl
ATOM     15  C   LIG    1       30.474 -18.526   6.973  0.00  0.00    +0.020 A 
ATOM     16  C   LIG    1       31.440 -18.688   7.959  0.00  0.00    +0.003 A 
ATOM     17  C   LIG    1       31.429 -19.836   8.744  0.00  0.00    +0.020 A 
ATOM     18  C   LIG    1       30.450 -20.820   8.549  0.00  0.00    +0.048 A 
ATOM     19 CL   LIG    1       30.512 -22.198   9.592  0.00  0.00    -0.083 Cl
ENDBRANCH  11  12
ENDBRANCH  10  11
ENDBRANCH   1  10
BRANCH   1  20
ATOM     20  C   LIG    1       26.582 -23.260   6.543  0.00  0.00    +0.159 C 
BRANCH  20  21
ATOM     21  N   LIG    1       25.646 -24.366   6.487  0.00  0.00    -0.334 N 
ATOM     22  C   LIG    1       24.284 -24.260   6.539  0.00  0.00    +0.199 A 
ATOM     23  N   LIG    1       23.706 -25.426   6.416  0.00  0.00    -0.244 NA
ATOM     24  C   LIG    1       24.734 -26.328   6.291  0.00  0.00    +0.130 A 
ATOM     25  C   LIG    1       25.949 -25.688   6.328  0.00  0.00    +0.107 A 
ENDBRANCH  20  21
ENDBRANCH   1  20
TORSDOF 6
ENDMDL
MODEL 2
REMARK VINA RESULT:      -8.1      0.030      1.830
REMARK  Name = *****
REMARK                            x       y       z     vdW  Elec       q    Type
REMARK                         _______ _______ _______ _____ _____    ______ ____
ROOT
ATOM      1  C   LIG    1       26.026 -22.050   7.328  0.00  0.00    +0.170 C 
ENDROOT
BRANCH   1   7
ATOM      2 CL   LIG    1       22.513 -18.706   3.709  0.00  0.00    -0.084 Cl
ATOM      3  C   LIG    1       23.502 -19.648   4.752  0.00  0.00    +0.042 A 
ATOM      4  C   LIG    1       22.971 -20.161   5.931  0.00  0.00    +0.040 A 
ATOM      5  C   LIG    1       23.774 -20.930   6.779  0.00  0.00    +0.048 A 
ATOM      6 CL   LIG    1       23.067 -21.454   8.265  0.00  0.00    -0.083 Cl
ATOM      7  C   LIG    1       25.109 -21.217   6.440  0.00  0.00    +0.001 A 
ATOM      8  C   LIG    1       25.628 -20.665   5.252  0.00  0.00    +0.009 A 
ATOM      9  C   LIG    1       24.831 -19.883   4.416  0.00  0.00    +0.020 A 
ENDBRANCH   1   7
BRANCH   1  10
ATOM     10  O   LIG    1       27.132 -21.238   7.777  0.00  0.00    -0.365 OA
BRANCH  10  11
ATOM     11  C   LIG    1       28.401 -21.728   7.326  0.00  0.00    +0.199 C 
BRANCH  11  12
ATOM     12  C   LIG    1       29.460 -20.677   7.548  0.00  0.00    +0.015 A 
ATOM     13  C   LIG    1       30.444 -20.825   8.547  0.00  0.00    +0.048 A 
ATOM     14 CL   LIG    1       30.501 -22.208   9.588  0.00  0.00    -0.083 Cl
ATOM     15  C   LIG    1       31.434 -19.852   8.743  0.00  0.00    +0.020 A 
ATOM     16  C   LIG    1       31.453 -18.703   7.961  0.00  0.00    +0.003 A 
ATOM     17  C   LIG    1       30.483 -18.529   6.979  0.00  0.00    +0.020 A 
ATOM     18  C   LIG    1       29.499 -19.505   6.772  0.00  0.00    +0.048 A 
ATOM     19 CL   LIG    1       28.355 -19.200   5.511  0.00  0.00    -0.083 Cl
ENDBRANCH  11  12
ENDBRANCH  10  11
ENDBRANCH   1  10
BRANCH   1  20
ATOM     20  C   LIG    1       26.575 -23.253   6.529  0.00  0.00    +0.159 C 
BRANCH  20  21
ATOM     21  N   LIG    1       25.646 -24.366   6.487  0.00  0.00    -0.334 N 
ATOM     22  C   LIG    1       24.283 -24.267   6.513  0.00  0.00    +0.199 A 
ATOM     23  N   LIG    1       23.714 -25.440   6.413  0.00  0.00    -0.244 NA
ATOM     24  C   LIG    1       24.749 -26.338   6.329  0.00  0.00    +0.130 A 
ATOM     25  C   LIG    1       25.959 -25.690   6.369  0.00  0.00    +0.107 A 
ENDBRANCH  20  21
ENDBRANCH   1  20
TORSDOF 6
ENDMDL
MODEL 3
REMARK VINA RESULT:      -7.6      2.620      6.247
REMARK  Name = *****
REMARK                            x       y       z     vdW  Elec       q    Type
REMARK                         _______ _______ _______ _____ _____    ______ ____
ROOT
ATOM      1  C   LIG    1       25.163 -22.513   7.173  0.00  0.00    +0.170 C 
ENDROOT
BRANCH   1   7
ATOM      2 CL   LIG    1       25.052 -28.293   5.385  0.00  0.00    -0.084 Cl
ATOM      3  C   LIG    1       25.068 -26.648   5.883  0.00  0.00    +0.042 A 
ATOM      4  C   LIG    1       23.868 -25.993   6.140  0.00  0.00    +0.040 A 
ATOM      5  C   LIG    1       23.880 -24.655   6.547  0.00  0.00    +0.048 A 
ATOM      6 CL   LIG    1       22.347 -23.888   6.758  0.00  0.00    -0.083 Cl
ATOM      7  C   LIG    1       25.094 -23.970   6.730  0.00  0.00    +0.001 A 
ATOM      8  C   LIG    1       26.294 -24.651   6.439  0.00  0.00    +0.009 A 
ATOM      9  C   LIG    1       26.280 -25.980   6.016  0.00  0.00    +0.020 A 
ENDBRANCH   1   7
BRANCH   1  10
ATOM     10  O   LIG    1       25.513 -21.680   6.047  0.00  0.00    -0.365 OA
BRANCH  10  11
ATOM     11  C   LIG    1       24.602 -21.816   4.950  0.00  0.00    +0.199 C 
BRANCH  11  12
ATOM     12  C   LIG    1       24.016 -20.469   4.605  0.00  0.00    +0.015 A 
ATOM     13  C   LIG    1       22.624 -20.251   4.609  0.00  0.00    +0.048 A 
ATOM     14 CL   LIG    1       21.494 -21.505   4.997  0.00  0.00    -0.083 Cl
ATOM     15  C   LIG    1       22.084 -18.995   4.300  0.00  0.00    +0.020 A 
ATOM     16  C   LIG    1       22.918 -17.936   3.962  0.00  0.00    +0.003 A 
ATOM     17  C   LIG    1       24.295 -18.132   3.938  0.00  0.00    +0.020 A 
ATOM     18  C   LIG    1       24.840 -19.383   4.258  0.00  0.00    +0.048 A 
ATOM     19 CL   LIG    1       26.564 -19.514   4.219  0.00  0.00    -0.083 Cl
ENDBRANCH  11  12
ENDBRANCH  10  11
ENDBRANCH   1  10
BRANCH   1  20
ATOM     20  C   LIG    1       26.237 -22.352   8.273  0.00  0.00    +0.159 C 
BRANCH  20  21
ATOM     21  N   LIG    1       27.320 -21.475   7.871  0.00  0.00    -0.334 N 
ATOM     22  C   LIG    1       27.346 -20.118   8.029  0.00  0.00    +0.199 A 
ATOM     23  N   LIG    1       28.476 -19.607   7.614  0.00  0.00    -0.244 NA
ATOM     24  C   LIG    1       29.209 -20.674   7.158  0.00  0.00    +0.130 A 
ATOM     25  C   LIG    1       28.509 -21.846   7.312  0.00  0.00    +0.107 A 
ENDBRANCH  20  21
ENDBRANCH   1  20
TORSDOF 6
ENDMDL
MODEL 4
REMARK VINA RESULT:      -7.6      2.764      6.428
REMARK  Name = *****
REMARK                            x       y       z     vdW  Elec       q    Type
REMARK                         _______ _______ _______ _____ _____    ______ ____
ROOT
ATOM      1  C   LIG    1       25.834 -22.997   6.567  0.00  0.00    +0.170 C 
ENDROOT
BRANCH   1   7
ATOM      2 CL   LIG    1       22.049 -18.902   4.215  0.00  0.00    -0.084 Cl
ATOM      3  C   LIG    1       23.113 -20.068   4.898  0.00  0.00    +0.042 A 
ATOM      4  C   LIG    1       22.591 -21.175   5.559  0.00  0.00    +0.040 A 
ATOM      5  C   LIG    1       23.455 -22.124   6.113  0.00  0.00    +0.048 A 
ATOM      6 CL   LIG    1       22.731 -23.421   6.995  0.00  0.00    -0.083 Cl
ATOM      7  C   LIG    1       24.849 -21.990   5.984  0.00  0.00    +0.001 A 
ATOM      8  C   LIG    1       25.351 -20.847   5.330  0.00  0.00    +0.009 A 
ATOM      9  C   LIG    1       24.488 -19.891   4.793  0.00  0.00    +0.020 A 
ENDBRANCH   1   7
BRANCH   1  10
ATOM     10  O   LIG    1       25.200 -24.288   6.677  0.00  0.00    -0.365 OA
BRANCH  10  11
ATOM     11  C   LIG    1       26.118 -25.332   7.025  0.00  0.00    +0.199 C 
BRANCH  11  12
ATOM     12  C   LIG    1       25.579 -26.661   6.556  0.00  0.00    +0.015 A 
ATOM     13  C   LIG    1       25.656 -27.812   7.365  0.00  0.00    +0.048 A 
ATOM     14 CL   LIG    1       26.378 -27.787   8.939  0.00  0.00    -0.083 Cl
ATOM     15  C   LIG    1       25.143 -29.042   6.932  0.00  0.00    +0.020 A 
ATOM     16  C   LIG    1       24.560 -29.155   5.675  0.00  0.00    +0.003 A 
ATOM     17  C   LIG    1       24.485 -28.036   4.853  0.00  0.00    +0.020 A 
ATOM     18  C   LIG    1       24.986 -26.801   5.288  0.00  0.00    +0.048 A 
ATOM     19 CL   LIG    1       24.823 -25.468   4.198  0.00  0.00    -0.083 Cl
ENDBRANCH  11  12
ENDBRANCH  10  11
ENDBRANCH   1  10
BRANCH   1  20
ATOM     20  C   LIG    1       26.283 -22.534   7.972  0.00  0.00    +0.159 C 
BRANCH  20  21
ATOM     21  N   LIG    1       27.355 -21.560   7.923  0.00  0.00    -0.334 N 
ATOM     22  C   LIG    1       27.296 -20.284   8.410  0.00  0.00    +0.199 A 
ATOM     23  N   LIG    1       28.435 -19.660   8.264  0.00  0.00    -0.244 NA
ATOM     24  C   LIG    1       29.265 -20.562   7.648  0.00  0.00    +0.130 A 
ATOM     25  C   LIG    1       28.614 -21.753   7.431  0.00  0.00    +0.107 A 
ENDBRANCH  20  21
ENDBRANCH   1  20
TORSDOF 6
ENDMDL
MODEL 5
REMARK VINA RESULT:      -7.5      1.849      5.769
REMARK  Name = *****
REMARK                            x       y       z     vdW  Elec       q    Type
REMARK                         _______ _______ _______ _____ _____    ______ ____
ROOT
ATOM      1  C   LIG    1       26.475 -22.008   6.374  0.00  0.00    +0.170 C 
ENDROOT
BRANCH   1   7
ATOM      2 CL   LIG    1       30.767 -18.289   8.464  0.00  0.00    -0.084 Cl
ATOM      3  C   LIG    1       29.543 -19.350   7.888  0.00  0.00    +0.042 A 
ATOM      4  C   LIG    1       28.340 -19.455   8.578  0.00  0.00    +0.040 A 
ATOM      5  C   LIG    1       27.343 -20.316   8.109  0.00  0.00    +0.048 A 
ATOM      6 CL   LIG    1       25.915 -20.459   9.072  0.00  0.00    -0.083 Cl
ATOM      7  C   LIG    1       27.529 -21.057   6.928  0.00  0.00    +0.001 A 
ATOM      8  C   LIG    1       28.766 -20.948   6.262  0.00  0.00    +0.009 A 
ATOM      9  C   LIG    1       29.767 -20.103   6.741  0.00  0.00    +0.020 A 
ENDBRANCH   1   7
BRANCH   1  10
ATOM     10  O   LIG    1       25.257 -21.279   6.107  0.00  0.00    -0.365 OA
BRANCH  10  11
ATOM     11  C   LIG    1       24.984 -21.145   4.707  0.00  0.00    +0.199 C 
BRANCH  11  12
ATOM     12  C   LIG    1       23.933 -20.085   4.493  0.00  0.00    +0.015 A 
ATOM     13  C   LIG    1       22.583 -20.308   4.833  0.00  0.00    +0.048 A 
ATOM     14 CL   LIG    1       22.037 -21.808   5.506  0.00  0.00    -0.083 Cl
ATOM     15  C   LIG    1       21.612 -19.316   4.645  0.00  0.00    +0.020 A 
ATOM     16  C   LIG    1       21.961 -18.087   4.096  0.00  0.00    +0.003 A 
ATOM     17  C   LIG    1       23.284 -17.849   3.740  0.00  0.00    +0.020 A 
ATOM     18  C   LIG    1       24.261 -18.835   3.938  0.00  0.00    +0.048 A 
ATOM     19 CL   LIG    1       25.879 -18.429   3.481  0.00  0.00    -0.083 Cl
ENDBRANCH  11  12
ENDBRANCH  10  11
ENDBRANCH   1  10
BRANCH   1  20
ATOM     20  C   LIG    1       26.181 -23.121   7.405  0.00  0.00    +0.159 C 
BRANCH  20  21
ATOM     21  N   LIG    1       25.478 -24.248   6.824  0.00  0.00    -0.334 N 
ATOM     22  C   LIG    1       24.121 -24.372   6.716  0.00  0.00    +0.199 A 
ATOM     23  N   LIG    1       23.786 -25.477   6.104  0.00  0.00    -0.244 NA
ATOM     24  C   LIG    1       24.972 -26.103   5.811  0.00  0.00    +0.130 A 
ATOM     25  C   LIG    1       26.038 -25.353   6.247  0.00  0.00    +0.107 A 
ENDBRANCH  20  21
ENDBRANCH   1  20
TORSDOF 6
ENDMDL
MODEL 6
REMARK VINA RESULT:      -7.5      2.783      6.169
REMARK  Name = *****
REMARK                            x       y       z     vdW  Elec       q    Type
REMARK                         _______ _______ _______ _____ _____    ______ ____
ROOT
ATOM      1  C   LIG    1       25.789 -23.002   6.545  0.00  0.00    +0.170 C 
ENDROOT
BRANCH   1   7
ATOM      2 CL   LIG    1       22.054 -18.840   4.233  0.00  0.00    -0.084 Cl
ATOM      3  C   LIG    1       23.103 -20.025   4.904  0.00  0.00    +0.042 A 
ATOM      4  C   LIG    1       22.568 -21.156   5.513  0.00  0.00    +0.040 A 
ATOM      5  C   LIG    1       23.420 -22.121   6.057  0.00  0.00    +0.048 A 
ATOM      6 CL   LIG    1       22.678 -23.449   6.875  0.00  0.00    -0.083 Cl
ATOM      7  C   LIG    1       24.817 -21.979   5.970  0.00  0.00    +0.001 A 
ATOM      8  C   LIG    1       25.331 -20.813   5.369  0.00  0.00    +0.009 A 
ATOM      9  C   LIG    1       24.480 -19.842   4.842  0.00  0.00    +0.020 A 
ENDBRANCH   1   7
BRANCH   1  10
ATOM     10  O   LIG    1       25.126 -24.276   6.686  0.00  0.00    -0.365 OA
BRANCH  10  11
ATOM     11  C   LIG    1       26.020 -25.333   7.056  0.00  0.00    +0.199 C 
BRANCH  11  12
ATOM     12  C   LIG    1       25.519 -26.642   6.501  0.00  0.00    +0.015 A 
ATOM     13  C   LIG    1       24.948 -26.725   5.215  0.00  0.00    +0.048 A 
ATOM     14 CL   LIG    1       24.775 -25.339   4.192  0.00  0.00    -0.083 Cl
ATOM     15  C   LIG    1       24.495 -27.946   4.697  0.00  0.00    +0.020 A 
ATOM     16  C   LIG    1       24.582 -29.106   5.458  0.00  0.00    +0.003 A 
ATOM     17  C   LIG    1       25.128 -29.046   6.735  0.00  0.00    +0.020 A 
ATOM     18  C   LIG    1       25.594 -27.829   7.252  0.00  0.00    +0.048 A 
ATOM     19 CL   LIG    1       26.275 -27.869   8.841  0.00  0.00    -0.083 Cl
ENDBRANCH  11  12
ENDBRANCH  10  11
ENDBRANCH   1  10
BRANCH   1  20
ATOM     20  C   LIG    1       26.281 -22.533   7.933  0.00  0.00    +0.159 C 
BRANCH  20  21
ATOM     21  N   LIG    1       27.374 -21.584   7.847  0.00  0.00    -0.334 N 
ATOM     22  C   LIG    1       27.379 -20.324   8.376  0.00  0.00    +0.199 A 
ATOM     23  N   LIG    1       28.523 -19.724   8.178  0.00  0.00    -0.244 NA
ATOM     24  C   LIG    1       29.289 -20.626   7.483  0.00  0.00    +0.130 A 
ATOM     25  C   LIG    1       28.594 -21.792   7.270  0.00  0.00    +0.107 A 
ENDBRANCH  20  21
ENDBRANCH   1  20
TORSDOF 6
ENDMDL
MODEL 7
REMARK VINA RESULT:      -7.5      2.680      6.474
REMARK  Name = *****
REMARK                            x       y       z     vdW  Elec       q    Type
REMARK                         _______ _______ _______ _____ _____    ______ ____
ROOT
ATOM      1  C   LIG    1       25.895 -22.722   6.785  0.00  0.00    +0.170 C 
ENDROOT
BRANCH   1   7
ATOM      2 CL   LIG    1       21.705 -19.150   4.274  0.00  0.00    -0.084 Cl
ATOM      3  C   LIG    1       22.906 -20.162   4.972  0.00  0.00    +0.042 A 
ATOM      4  C   LIG    1       24.253 -19.866   4.784  0.00  0.00    +0.040 A 
ATOM      5  C   LIG    1       25.230 -20.688   5.354  0.00  0.00    +0.048 A 
ATOM      6 CL   LIG    1       26.877 -20.305   5.000  0.00  0.00    -0.083 Cl
ATOM      7  C   LIG    1       24.869 -21.796   6.141  0.00  0.00    +0.001 A 
ATOM      8  C   LIG    1       23.499 -22.086   6.295  0.00  0.00    +0.009 A 
ATOM      9  C   LIG    1       22.525 -21.276   5.711  0.00  0.00    +0.020 A 
ENDBRANCH   1   7
BRANCH   1  10
ATOM     10  O   LIG    1       25.307 -24.024   6.996  0.00  0.00    -0.365 OA
BRANCH  10  11
ATOM     11  C   LIG    1       26.275 -25.080   6.985  0.00  0.00    +0.199 C 
BRANCH  11  12
ATOM     12  C   LIG    1       25.632 -26.354   6.496  0.00  0.00    +0.015 A 
ATOM     13  C   LIG    1       25.702 -27.547   7.244  0.00  0.00    +0.048 A 
ATOM     14 CL   LIG    1       26.533 -27.637   8.761  0.00  0.00    -0.083 Cl
ATOM     15  C   LIG    1       25.093 -28.725   6.793  0.00  0.00    +0.020 A 
ATOM     16  C   LIG    1       24.418 -28.746   5.578  0.00  0.00    +0.003 A 
ATOM     17  C   LIG    1       24.348 -27.584   4.816  0.00  0.00    +0.020 A 
ATOM     18  C   LIG    1       24.946 -26.400   5.269  0.00  0.00    +0.048 A 
ATOM     19 CL   LIG    1       24.781 -25.008   4.256  0.00  0.00    -0.083 Cl
ENDBRANCH  11  12
ENDBRANCH  10  11
ENDBRANCH   1  10
BRANCH   1  20
ATOM     20  C   LIG    1       26.340 -22.143   8.147  0.00  0.00    +0.159 C 
BRANCH  20  21
ATOM     21  N   LIG    1       27.549 -21.350   8.048  0.00  0.00    -0.334 N 
ATOM     22  C   LIG    1       27.664 -20.027   8.374  0.00  0.00    +0.199 A 
ATOM     23  N   LIG    1       28.891 -19.600   8.224  0.00  0.00    -0.244 NA
ATOM     24  C   LIG    1       29.599 -20.685   7.773  0.00  0.00    +0.130 A 
ATOM     25  C   LIG    1       28.784 -21.785   7.659  0.00  0.00    +0.107 A 
ENDBRANCH  20  21
ENDBRANCH   1  20
TORSDOF 6
ENDMDL
MODEL 8
REMARK VINA RESULT:      -7.1      2.371      4.477
REMARK  Name = *****
REMARK                            x       y       z     vdW  Elec       q    Type
REMARK                         _______ _______ _______ _____ _____    ______ ____
ROOT
ATOM      1  C   LIG    1       25.822 -23.021   6.327  0.00  0.00    +0.170 C 
ENDROOT
BRANCH   1   7
ATOM      2 CL   LIG    1       24.758 -28.975   6.121  0.00  0.00    -0.084 Cl
ATOM      3  C   LIG    1       25.044 -27.281   6.171  0.00  0.00    +0.042 A 
ATOM      4  C   LIG    1       23.985 -26.408   6.402  0.00  0.00    +0.040 A 
ATOM      5  C   LIG    1       24.217 -25.030   6.445  0.00  0.00    +0.048 A 
ATOM      6 CL   LIG    1       22.837 -24.011   6.647  0.00  0.00    -0.083 Cl
ATOM      7  C   LIG    1       25.515 -24.514   6.288  0.00  0.00    +0.001 A 
ATOM      8  C   LIG    1       26.565 -25.418   6.031  0.00  0.00    +0.009 A 
ATOM      9  C   LIG    1       26.330 -26.792   5.970  0.00  0.00    +0.020 A 
ENDBRANCH   1   7
BRANCH   1  10
ATOM     10  O   LIG    1       27.089 -22.804   6.984  0.00  0.00    -0.365 OA
BRANCH  10  11
ATOM     11  C   LIG    1       27.133 -21.573   7.716  0.00  0.00    +0.199 C 
BRANCH  11  12
ATOM     12  C   LIG    1       28.271 -20.721   7.211  0.00  0.00    +0.015 A 
ATOM     13  C   LIG    1       28.113 -19.867   6.101  0.00  0.00    +0.048 A 
ATOM     14 CL   LIG    1       26.617 -19.742   5.238  0.00  0.00    -0.083 Cl
ATOM     15  C   LIG    1       29.169 -19.068   5.642  0.00  0.00    +0.020 A 
ATOM     16  C   LIG    1       30.410 -19.118   6.267  0.00  0.00    +0.003 A 
ATOM     17  C   LIG    1       30.593 -19.964   7.356  0.00  0.00    +0.020 A 
ATOM     18  C   LIG    1       29.536 -20.756   7.826  0.00  0.00    +0.048 A 
ATOM     19 CL   LIG    1       29.863 -21.756   9.198  0.00  0.00    -0.083 Cl
ENDBRANCH  11  12
ENDBRANCH  10  11
ENDBRANCH   1  10
BRANCH   1  20
ATOM     20  C   LIG    1       24.714 -22.281   7.110  0.00  0.00    +0.159 C 
BRANCH  20  21
ATOM     21  N   LIG    1       23.966 -21.357   6.280  0.00  0.00    -0.334 N 
ATOM     22  C   LIG    1       23.914 -21.376   4.914  0.00  0.00    +0.199 A 
ATOM     23  N   LIG    1       23.118 -20.449   4.450  0.00  0.00    -0.244 NA
ATOM     24  C   LIG    1       22.641 -19.794   5.558  0.00  0.00    +0.130 A 
ATOM     25  C   LIG    1       23.153 -20.346   6.707  0.00  0.00    +0.107 A 
ENDBRANCH  20  21
ENDBRANCH   1  20
TORSDOF 6
ENDMDL
MODEL 9
REMARK VINA RESULT:      -7.1      2.670      4.999
REMARK  Name = *****
REMARK                            x       y       z     vdW  Elec       q    Type
REMARK                         _______ _______ _______ _____ _____    ______ ____
ROOT
ATOM      1  C   LIG    1       25.810 -23.223   6.469  0.00  0.00    +0.170 C 
ENDROOT
BRANCH   1   7
ATOM      2 CL   LIG    1       25.192 -29.213   5.869  0.00  0.00    -0.084 Cl
ATOM      3  C   LIG    1       25.373 -27.510   6.021  0.00  0.00    +0.042 A 
ATOM      4  C   LIG    1       24.999 -26.679   4.970  0.00  0.00    +0.040 A 
ATOM      5  C   LIG    1       25.143 -25.294   5.094  0.00  0.00    +0.048 A 
ATOM      6 CL   LIG    1       24.741 -24.339   3.712  0.00  0.00    -0.083 Cl
ATOM      7  C   LIG    1       25.634 -24.726   6.282  0.00  0.00    +0.001 A 
ATOM      8  C   LIG    1       26.028 -25.592   7.322  0.00  0.00    +0.009 A 
ATOM      9  C   LIG    1       25.901 -26.974   7.191  0.00  0.00    +0.020 A 
ENDBRANCH   1   7
BRANCH   1  10
ATOM     10  O   LIG    1       27.088 -22.957   7.085  0.00  0.00    -0.365 OA
BRANCH  10  11
ATOM     11  C   LIG    1       27.114 -21.718   7.804  0.00  0.00    +0.199 C 
BRANCH  11  12
ATOM     12  C   LIG    1       28.176 -20.816   7.226  0.00  0.00    +0.015 A 
ATOM     13  C   LIG    1       29.471 -20.758   7.779  0.00  0.00    +0.048 A 
ATOM     14 CL   LIG    1       29.930 -21.702   9.156  0.00  0.00    -0.083 Cl
ATOM     15  C   LIG    1       30.459 -19.928   7.231  0.00  0.00    +0.020 A 
ATOM     16  C   LIG    1       30.172 -19.125   6.134  0.00  0.00    +0.003 A 
ATOM     17  C   LIG    1       28.896 -19.155   5.580  0.00  0.00    +0.020 A 
ATOM     18  C   LIG    1       27.908 -19.993   6.117  0.00  0.00    +0.048 A 
ATOM     19 CL   LIG    1       26.363 -19.971   5.340  0.00  0.00    -0.083 Cl
ENDBRANCH  11  12
ENDBRANCH  10  11
ENDBRANCH   1  10
BRANCH   1  20
ATOM     20  C   LIG    1       24.688 -22.675   7.380  0.00  0.00    +0.159 C 
BRANCH  20  21
ATOM     21  N   LIG    1       23.811 -21.750   6.690  0.00  0.00    -0.334 N 
ATOM     22  C   LIG    1       23.479 -20.495   7.119  0.00  0.00    +0.199 A 
ATOM     23  N   LIG    1       22.707 -19.882   6.260  0.00  0.00    -0.244 NA
ATOM     24  C   LIG    1       22.522 -20.777   5.236  0.00  0.00    +0.130 A 
ATOM     25  C   LIG    1       23.203 -21.944   5.482  0.00  0.00    +0.107 A 
ENDBRANCH  20  21
ENDBRANCH   1  20
TORSDOF 6
ENDMDL
