MODEL 1
REMARK VINA RESULT:      -4.3      0.000      0.000
REMARK  Name = *****
REMARK                            x       y       z     vdW  Elec       q    Type
REMARK                         _______ _______ _______ _____ _____    ______ ____
ROOT
ATOM      1  O   LIG    1       26.191 -13.534   4.341  0.00  0.00    -0.284 OA
ENDROOT
BRANCH   1   3
ATOM      2  O   LIG    1       26.717 -14.321   1.895  0.00  0.00    -0.228 OA
ATOM      3  P   LIG    1       27.239 -14.100   3.272  0.00  0.00    +0.472 P 
BRANCH   3   4
ATOM      4  O   LIG    1       28.492 -13.116   3.317  0.00  0.00    -0.303 OA
ATOM      5  H   LIG    1       28.218 -12.198   3.143  0.00  0.00    +0.222 HD
ENDBRANCH   3   4
BRANCH   3   6
ATOM      6  O   LIG    1       27.816 -15.435   3.924  0.00  0.00    -0.303 OA
ATOM      7  H   LIG    1       28.667 -15.677   3.512  0.00  0.00    +0.222 HD
ENDBRANCH   3   6
ENDBRANCH   1   3
BRANCH   1   8
ATOM      8  C   LIG    1       24.831 -13.941   4.223  0.00  0.00    +0.205 C 
BRANCH   8   9
ATOM      9  C   LIG    1       23.935 -12.702   4.219  0.00  0.00    +0.166 C 
BRANCH   9  10
ATOM     10  O   LIG    1       24.322 -11.817   5.285  0.00  0.00    -0.387 OA
ATOM     11  H   LIG    1       24.825 -12.361   5.921  0.00  0.00    +0.210 HD
ENDBRANCH   9  10
BRANCH   9  12
ATOM     12  C   LIG    1       24.018 -11.917   2.906  0.00  0.00    +0.189 C 
BRANCH  12  13
ATOM     13  O   LIG    1       24.167 -12.831   1.819  0.00  0.00    -0.392 OA
ATOM     14  H   LIG    1       25.065 -12.672   1.466  0.00  0.00    +0.209 HD
ENDBRANCH  12  13
ENDBRANCH   9  12
ENDBRANCH   8   9
ENDBRANCH   1   8
TORSDOF 8
ENDMDL
MODEL 2
REMARK VINA RESULT:      -4.1      2.055      3.904
REMARK  Name = *****
REMARK                            x       y       z     vdW  Elec       q    Type
REMARK                         _______ _______ _______ _____ _____    ______ ____
ROOT
ATOM      1  O   LIG    1       25.216 -13.488   4.282  0.00  0.00    -0.284 OA
ENDROOT
BRANCH   1   3
ATOM      2  O   LIG    1       23.574 -11.447   4.155  0.00  0.00    -0.228 OA
ATOM      3  P   LIG    1       24.293 -12.516   3.408  0.00  0.00    +0.472 P 
BRANCH   3   4
ATOM      4  O   LIG    1       25.224 -11.949   2.245  0.00  0.00    -0.303 OA
ATOM      5  H   LIG    1       25.722 -12.669   1.818  0.00  0.00    +0.222 HD
ENDBRANCH   3   4
BRANCH   3   6
ATOM      6  O   LIG    1       23.299 -13.483   2.623  0.00  0.00    -0.303 OA
ATOM      7  H   LIG    1       23.735 -14.332   2.422  0.00  0.00    +0.222 HD
ENDBRANCH   3   6
ENDBRANCH   1   3
BRANCH   1   8
ATOM      8  C   LIG    1       25.468 -14.798   3.783  0.00  0.00    +0.205 C 
BRANCH   8   9
ATOM      9  C   LIG    1       26.871 -14.843   3.177  0.00  0.00    +0.166 C 
BRANCH   9  10
ATOM     10  O   LIG    1       26.828 -14.393   1.812  0.00  0.00    -0.387 OA
ATOM     11  H   LIG    1       25.950 -13.983   1.688  0.00  0.00    +0.210 HD
ENDBRANCH   9  10
BRANCH   9  12
ATOM     12  C   LIG    1       27.869 -13.957   3.930  0.00  0.00    +0.189 C 
BRANCH  12  13
ATOM     13  O   LIG    1       28.087 -12.756   3.188  0.00  0.00    -0.392 OA
ATOM     14  H   LIG    1       28.903 -12.366   3.558  0.00  0.00    +0.209 HD
ENDBRANCH  12  13
ENDBRANCH   9  12
ENDBRANCH   8   9
ENDBRANCH   1   8
TORSDOF 8
ENDMDL
MODEL 3
REMARK VINA RESULT:      -4.0      1.355      1.912
REMARK  Name = *****
REMARK                            x       y       z     vdW  Elec       q    Type
REMARK                         _______ _______ _______ _____ _____    ______ ____
ROOT
ATOM      1  O   LIG    1       26.699 -12.946   2.917  0.00  0.00    -0.284 OA
ENDROOT
BRANCH   1   3
ATOM      2  O   LIG    1       29.187 -13.029   3.740  0.00  0.00    -0.228 OA
ATOM      3  P   LIG    1       27.791 -13.503   3.945  0.00  0.00    +0.472 P 
BRANCH   3   4
ATOM      4  O   LIG    1       27.228 -13.184   5.403  0.00  0.00    -0.303 OA
ATOM      5  H   LIG    1       26.403 -12.670   5.351  0.00  0.00    +0.222 HD
ENDBRANCH   3   4
BRANCH   3   6
ATOM      6  O   LIG    1       27.669 -15.089   3.861  0.00  0.00    -0.303 OA
ATOM      7  H   LIG    1       26.737 -15.356   3.753  0.00  0.00    +0.222 HD
ENDBRANCH   3   6
ENDBRANCH   1   3
BRANCH   1   8
ATOM      8  C   LIG    1       25.739 -13.863   2.400  0.00  0.00    +0.205 C 
BRANCH   8   9
ATOM      9  C   LIG    1       24.435 -13.720   3.184  0.00  0.00    +0.166 C 
BRANCH   9  10
ATOM     10  O   LIG    1       24.576 -14.326   4.481  0.00  0.00    -0.387 OA
ATOM     11  H   LIG    1       25.252 -15.024   4.383  0.00  0.00    +0.210 HD
ENDBRANCH   9  10
BRANCH   9  12
ATOM     12  C   LIG    1       24.028 -12.258   3.394  0.00  0.00    +0.189 C 
BRANCH  12  13
ATOM     13  O   LIG    1       23.954 -11.602   2.127  0.00  0.00    -0.392 OA
ATOM     14  H   LIG    1       24.637 -10.903   2.155  0.00  0.00    +0.209 HD
ENDBRANCH  12  13
ENDBRANCH   9  12
ENDBRANCH   8   9
ENDBRANCH   1   8
TORSDOF 8
ENDMDL
MODEL 4
REMARK VINA RESULT:      -3.9      2.309      4.159
REMARK  Name = *****
REMARK                            x       y       z     vdW  Elec       q    Type
REMARK                         _______ _______ _______ _____ _____    ______ ____
ROOT
ATOM      1  O   LIG    1       25.738 -14.291   3.361  0.00  0.00    -0.284 OA
ENDROOT
BRANCH   1   3
ATOM      2  O   LIG    1       24.420 -12.472   4.714  0.00  0.00    -0.228 OA
ATOM      3  P   LIG    1       24.350 -13.581   3.722  0.00  0.00    +0.472 P 
BRANCH   3   4
ATOM      4  O   LIG    1       23.704 -13.141   2.334  0.00  0.00    -0.303 OA
ATOM      5  H   LIG    1       22.768 -13.408   2.286  0.00  0.00    +0.222 HD
ENDBRANCH   3   4
BRANCH   3   6
ATOM      6  O   LIG    1       23.392 -14.762   4.198  0.00  0.00    -0.303 OA
ATOM      7  H   LIG    1       22.932 -15.159   3.434  0.00  0.00    +0.222 HD
ENDBRANCH   3   6
ENDBRANCH   1   3
BRANCH   1   8
ATOM      8  C   LIG    1       26.818 -13.468   2.931  0.00  0.00    +0.205 C 
BRANCH   8   9
ATOM      9  C   LIG    1       28.017 -13.691   3.851  0.00  0.00    +0.166 C 
BRANCH   9  10
ATOM     10  O   LIG    1       29.232 -13.350   3.162  0.00  0.00    -0.387 OA
ATOM     11  H   LIG    1       29.888 -14.029   3.414  0.00  0.00    +0.210 HD
ENDBRANCH   9  10
BRANCH   9  12
ATOM     12  C   LIG    1       27.950 -12.843   5.125  0.00  0.00    +0.189 C 
BRANCH  12  13
ATOM     13  O   LIG    1       26.994 -13.411   6.021  0.00  0.00    -0.392 OA
ATOM     14  H   LIG    1       27.480 -14.099   6.519  0.00  0.00    +0.209 HD
ENDBRANCH  12  13
ENDBRANCH   9  12
ENDBRANCH   8   9
ENDBRANCH   1   8
TORSDOF 8
ENDMDL
MODEL 5
REMARK VINA RESULT:      -3.9      1.458      2.453
REMARK  Name = *****
REMARK                            x       y       z     vdW  Elec       q    Type
REMARK                         _______ _______ _______ _____ _____    ______ ____
ROOT
ATOM      1  O   LIG    1       26.953 -12.930   2.677  0.00  0.00    -0.284 OA
ENDROOT
BRANCH   1   3
ATOM      2  O   LIG    1       27.572 -13.100   5.219  0.00  0.00    -0.228 OA
ATOM      3  P   LIG    1       27.833 -13.592   3.838  0.00  0.00    +0.472 P 
BRANCH   3   4
ATOM      4  O   LIG    1       27.649 -15.168   3.688  0.00  0.00    -0.303 OA
ATOM      5  H   LIG    1       27.068 -15.517   4.388  0.00  0.00    +0.222 HD
ENDBRANCH   3   4
BRANCH   3   6
ATOM      6  O   LIG    1       29.346 -13.370   3.389  0.00  0.00    -0.303 OA
ATOM      7  H   LIG    1       29.739 -14.209   3.084  0.00  0.00    +0.222 HD
ENDBRANCH   3   6
ENDBRANCH   1   3
BRANCH   1   8
ATOM      8  C   LIG    1       25.692 -13.519   2.375  0.00  0.00    +0.205 C 
BRANCH   8   9
ATOM      9  C   LIG    1       24.644 -12.993   3.355  0.00  0.00    +0.166 C 
BRANCH   9  10
ATOM     10  O   LIG    1       23.672 -12.201   2.652  0.00  0.00    -0.387 OA
ATOM     11  H   LIG    1       24.178 -11.617   2.054  0.00  0.00    +0.210 HD
ENDBRANCH   9  10
BRANCH   9  12
ATOM     12  C   LIG    1       23.895 -14.117   4.079  0.00  0.00    +0.189 C 
BRANCH  12  13
ATOM     13  O   LIG    1       24.609 -15.343   3.911  0.00  0.00    -0.392 OA
ATOM     14  H   LIG    1       24.953 -15.568   4.799  0.00  0.00    +0.209 HD
ENDBRANCH  12  13
ENDBRANCH   9  12
ENDBRANCH   8   9
ENDBRANCH   1   8
TORSDOF 8
ENDMDL
MODEL 6
REMARK VINA RESULT:      -3.8      1.195      2.324
REMARK  Name = *****
REMARK                            x       y       z     vdW  Elec       q    Type
REMARK                         _______ _______ _______ _____ _____    ______ ____
ROOT
ATOM      1  O   LIG    1       26.261 -14.323   2.601  0.00  0.00    -0.284 OA
ENDROOT
BRANCH   1   3
ATOM      2  O   LIG    1       26.753 -13.553   5.060  0.00  0.00    -0.228 OA
ATOM      3  P   LIG    1       27.294 -14.160   3.812  0.00  0.00    +0.472 P 
BRANCH   3   4
ATOM      4  O   LIG    1       27.936 -15.600   4.043  0.00  0.00    -0.303 OA
ATOM      5  H   LIG    1       28.736 -15.539   4.595  0.00  0.00    +0.222 HD
ENDBRANCH   3   4
BRANCH   3   6
ATOM      6  O   LIG    1       28.511 -13.325   3.209  0.00  0.00    -0.303 OA
ATOM      7  H   LIG    1       29.356 -13.782   3.378  0.00  0.00    +0.222 HD
ENDBRANCH   3   6
ENDBRANCH   1   3
BRANCH   1   8
ATOM      8  C   LIG    1       25.556 -13.165   2.163  0.00  0.00    +0.205 C 
BRANCH   8   9
ATOM      9  C   LIG    1       24.148 -13.179   2.757  0.00  0.00    +0.166 C 
BRANCH   9  10
ATOM     10  O   LIG    1       24.018 -14.274   3.679  0.00  0.00    -0.387 OA
ATOM     11  H   LIG    1       24.917 -14.455   4.015  0.00  0.00    +0.210 HD
ENDBRANCH   9  10
BRANCH   9  12
ATOM     12  C   LIG    1       23.814 -11.889   3.514  0.00  0.00    +0.189 C 
BRANCH  12  13
ATOM     13  O   LIG    1       24.113 -12.064   4.899  0.00  0.00    -0.392 OA
ATOM     14  H   LIG    1       23.265 -12.310   5.320  0.00  0.00    +0.209 HD
ENDBRANCH  12  13
ENDBRANCH   9  12
ENDBRANCH   8   9
ENDBRANCH   1   8
TORSDOF 8
ENDMDL
MODEL 7
REMARK VINA RESULT:      -3.8      2.474      4.263
REMARK  Name = *****
REMARK                            x       y       z     vdW  Elec       q    Type
REMARK                         _______ _______ _______ _____ _____    ______ ____
ROOT
ATOM      1  O   LIG    1       25.654 -14.286   3.092  0.00  0.00    -0.284 OA
ENDROOT
BRANCH   1   3
ATOM      2  O   LIG    1       23.375 -14.845   4.263  0.00  0.00    -0.228 OA
ATOM      3  P   LIG    1       24.240 -13.795   3.657  0.00  0.00    +0.472 P 
BRANCH   3   4
ATOM      4  O   LIG    1       24.556 -12.591   4.654  0.00  0.00    -0.303 OA
ATOM      5  H   LIG    1       24.567 -11.741   4.178  0.00  0.00    +0.222 HD
ENDBRANCH   3   4
BRANCH   3   6
ATOM      6  O   LIG    1       23.535 -13.060   2.431  0.00  0.00    -0.303 OA
ATOM      7  H   LIG    1       22.576 -12.975   2.588  0.00  0.00    +0.222 HD
ENDBRANCH   3   6
ENDBRANCH   1   3
BRANCH   1   8
ATOM      8  C   LIG    1       26.706 -13.330   3.001  0.00  0.00    +0.205 C 
BRANCH   8   9
ATOM      9  C   LIG    1       27.723 -13.596   4.111  0.00  0.00    +0.166 C 
BRANCH   9  10
ATOM     10  O   LIG    1       28.073 -14.991   4.129  0.00  0.00    -0.387 OA
ATOM     11  H   LIG    1       28.234 -15.218   5.065  0.00  0.00    +0.210 HD
ENDBRANCH   9  10
BRANCH   9  12
ATOM     12  C   LIG    1       29.015 -12.793   3.933  0.00  0.00    +0.189 C 
BRANCH  12  13
ATOM     13  O   LIG    1       29.188 -11.922   5.052  0.00  0.00    -0.392 OA
ATOM     14  H   LIG    1       28.566 -11.182   4.905  0.00  0.00    +0.209 HD
ENDBRANCH  12  13
ENDBRANCH   9  12
ENDBRANCH   8   9
ENDBRANCH   1   8
TORSDOF 8
ENDMDL
MODEL 8
REMARK VINA RESULT:      -3.7      2.388      3.730
REMARK  Name = *****
REMARK                            x       y       z     vdW  Elec       q    Type
REMARK                         _______ _______ _______ _____ _____    ______ ____
ROOT
ATOM      1  O   LIG    1       25.991 -14.228   4.577  0.00  0.00    -0.284 OA
ENDROOT
BRANCH   1   3
ATOM      2  O   LIG    1       23.444 -14.731   4.209  0.00  0.00    -0.228 OA
ATOM      3  P   LIG    1       24.552 -13.746   4.070  0.00  0.00    +0.472 P 
BRANCH   3   4
ATOM      4  O   LIG    1       24.261 -12.366   4.813  0.00  0.00    -0.303 OA
ATOM      5  H   LIG    1       23.457 -11.945   4.459  0.00  0.00    +0.222 HD
ENDBRANCH   3   4
BRANCH   3   6
ATOM      6  O   LIG    1       24.775 -13.291   2.559  0.00  0.00    -0.303 OA
ATOM      7  H   LIG    1       25.557 -13.734   2.180  0.00  0.00    +0.222 HD
ENDBRANCH   3   6
ENDBRANCH   1   3
BRANCH   1   8
ATOM      8  C   LIG    1       26.711 -13.371   5.458  0.00  0.00    +0.205 C 
BRANCH   8   9
ATOM      9  C   LIG    1       27.802 -12.644   4.672  0.00  0.00    +0.166 C 
BRANCH   9  10
ATOM     10  O   LIG    1       28.798 -12.135   5.576  0.00  0.00    -0.387 OA
ATOM     11  H   LIG    1       29.514 -12.798   5.593  0.00  0.00    +0.210 HD
ENDBRANCH   9  10
BRANCH   9  12
ATOM     12  C   LIG    1       28.509 -13.554   3.662  0.00  0.00    +0.189 C 
BRANCH  12  13
ATOM     13  O   LIG    1       27.735 -13.620   2.464  0.00  0.00    -0.392 OA
ATOM     14  H   LIG    1       27.614 -14.574   2.284  0.00  0.00    +0.209 HD
ENDBRANCH  12  13
ENDBRANCH   9  12
ENDBRANCH   8   9
ENDBRANCH   1   8
TORSDOF 8
ENDMDL
MODEL 9
REMARK VINA RESULT:      -3.6      6.745      7.987
REMARK  Name = *****
REMARK                            x       y       z     vdW  Elec       q    Type
REMARK                         _______ _______ _______ _____ _____    ______ ____
ROOT
ATOM      1  O   LIG    1       23.966 -21.007   4.326  0.00  0.00    -0.284 OA
ENDROOT
BRANCH   1   3
ATOM      2  O   LIG    1       22.323 -19.150   5.181  0.00  0.00    -0.228 OA
ATOM      3  P   LIG    1       22.713 -20.586   5.229  0.00  0.00    +0.472 P 
BRANCH   3   4
ATOM      4  O   LIG    1       21.527 -21.572   4.826  0.00  0.00    -0.303 OA
ATOM      5  H   LIG    1       21.278 -22.140   5.576  0.00  0.00    +0.222 HD
ENDBRANCH   3   4
BRANCH   3   6
ATOM      6  O   LIG    1       23.084 -21.067   6.702  0.00  0.00    -0.303 OA
ATOM      7  H   LIG    1       22.392 -21.658   7.054  0.00  0.00    +0.222 HD
ENDBRANCH   3   6
ENDBRANCH   1   3
BRANCH   1   8
ATOM      8  C   LIG    1       25.237 -21.120   4.958  0.00  0.00    +0.205 C 
BRANCH   8   9
ATOM      9  C   LIG    1       26.014 -19.820   4.761  0.00  0.00    +0.166 C 
BRANCH   9  10
ATOM     10  O   LIG    1       27.427 -20.080   4.833  0.00  0.00    -0.387 OA
ATOM     11  H   LIG    1       27.719 -20.253   3.917  0.00  0.00    +0.210 HD
ENDBRANCH   9  10
BRANCH   9  12
ATOM     12  C   LIG    1       25.730 -19.161   3.407  0.00  0.00    +0.189 C 
BRANCH  12  13
ATOM     13  O   LIG    1       24.702 -18.182   3.566  0.00  0.00    -0.392 OA
ATOM     14  H   LIG    1       24.525 -17.841   2.666  0.00  0.00    +0.209 HD
ENDBRANCH  12  13
ENDBRANCH   9  12
ENDBRANCH   8   9
ENDBRANCH   1   8
TORSDOF 8
ENDMDL
