MODEL 1
REMARK VINA RESULT:      -4.8      0.000      0.000
REMARK  Name = *****
REMARK                            x       y       z     vdW  Elec       q    Type
REMARK                         _______ _______ _______ _____ _____    ______ ____
ROOT
ATOM      1  C   LIG    1       29.131 -21.166   7.552  0.00  0.00    +0.284 C 
ENDROOT
BRANCH   1   2
ATOM      2  C   LIG    1       27.876 -20.272   7.683  0.00  0.00    +0.174 C 
BRANCH   2   4
ATOM      3  C   LIG    1       26.103 -20.481   5.861  0.00  0.00    +0.192 C 
ATOM      4  N   LIG    1       26.539 -20.938   7.243  0.00  0.00    +0.239 N 
ATOM      5  C   LIG    1       26.743 -22.459   7.194  0.00  0.00    +0.192 C 
ATOM      6  C   LIG    1       25.435 -20.645   8.249  0.00  0.00    +0.192 C 
ENDBRANCH   2   4
ENDBRANCH   1   2
BRANCH   1   7
ATOM      7  O   LIG    1       29.812 -21.469   8.782  0.00  0.00    -0.445 OA
BRANCH   7   8
ATOM      8  C   LIG    1       31.149 -21.251   8.781  0.00  0.00    +0.398 C 
ATOM      9  O   LIG    1       31.942 -21.801   9.513  0.00  0.00    -0.227 OA
ATOM     10  N   LIG    1       31.466 -20.306   7.867  0.00  0.00    -0.295 N 
ATOM     11  H   LIG    1       32.443 -20.138   7.662  0.00  0.00    +0.148 HD
ATOM     12  H   LIG    1       30.768 -19.915   7.253  0.00  0.00    +0.148 HD
ENDBRANCH   7   8
ENDBRANCH   1   7
TORSDOF 4
ENDMDL
MODEL 2
REMARK VINA RESULT:      -4.8      0.059      1.356
REMARK  Name = *****
REMARK                            x       y       z     vdW  Elec       q    Type
REMARK                         _______ _______ _______ _____ _____    ______ ____
ROOT
ATOM      1  C   LIG    1       29.189 -21.143   7.528  0.00  0.00    +0.284 C 
ENDROOT
BRANCH   1   2
ATOM      2  C   LIG    1       27.922 -20.263   7.631  0.00  0.00    +0.174 C 
BRANCH   2   4
ATOM      3  C   LIG    1       26.735 -22.483   7.221  0.00  0.00    +0.192 C 
ATOM      4  N   LIG    1       26.590 -20.970   7.245  0.00  0.00    +0.239 N 
ATOM      5  C   LIG    1       25.526 -20.616   8.295  0.00  0.00    +0.192 C 
ATOM      6  C   LIG    1       26.094 -20.484   5.891  0.00  0.00    +0.192 C 
ENDBRANCH   2   4
ENDBRANCH   1   2
BRANCH   1   7
ATOM      7  O   LIG    1       29.842 -21.445   8.774  0.00  0.00    -0.445 OA
BRANCH   7   8
ATOM      8  C   LIG    1       31.181 -21.248   8.797  0.00  0.00    +0.398 C 
ATOM      9  O   LIG    1       31.953 -21.813   9.540  0.00  0.00    -0.227 OA
ATOM     10  N   LIG    1       31.529 -20.304   7.892  0.00  0.00    -0.295 N 
ATOM     11  H   LIG    1       32.511 -20.151   7.705  0.00  0.00    +0.148 HD
ATOM     12  H   LIG    1       30.848 -19.900   7.268  0.00  0.00    +0.148 HD
ENDBRANCH   7   8
ENDBRANCH   1   7
TORSDOF 4
ENDMDL
MODEL 3
REMARK VINA RESULT:      -4.8      1.025      1.699
REMARK  Name = *****
REMARK                            x       y       z     vdW  Elec       q    Type
REMARK                         _______ _______ _______ _____ _____    ______ ____
ROOT
ATOM      1  C   LIG    1       29.221 -21.169   7.681  0.00  0.00    +0.284 C 
ENDROOT
BRANCH   1   2
ATOM      2  C   LIG    1       28.081 -20.482   6.895  0.00  0.00    +0.174 C 
BRANCH   2   4
ATOM      3  C   LIG    1       26.086 -20.520   8.485  0.00  0.00    +0.192 C 
ATOM      4  N   LIG    1       26.654 -21.039   7.174  0.00  0.00    +0.239 N 
ATOM      5  C   LIG    1       25.721 -20.582   6.044  0.00  0.00    +0.192 C 
ATOM      6  C   LIG    1       26.664 -22.560   7.190  0.00  0.00    +0.192 C 
ENDBRANCH   2   4
ENDBRANCH   1   2
BRANCH   1   7
ATOM      7  O   LIG    1       29.874 -20.355   8.671  0.00  0.00    -0.445 OA
BRANCH   7   8
ATOM      8  C   LIG    1       31.199 -20.581   8.836  0.00  0.00    +0.398 C 
ATOM      9  O   LIG    1       32.013 -19.741   9.151  0.00  0.00    -0.227 OA
ATOM     10  N   LIG    1       31.488 -21.874   8.562  0.00  0.00    -0.295 N 
ATOM     11  H   LIG    1       32.416 -22.218   8.773  0.00  0.00    +0.148 HD
ATOM     12  H   LIG    1       30.761 -22.539   8.347  0.00  0.00    +0.148 HD
ENDBRANCH   7   8
ENDBRANCH   1   7
TORSDOF 4
ENDMDL
MODEL 4
REMARK VINA RESULT:      -4.8      0.594      1.435
REMARK  Name = *****
REMARK                            x       y       z     vdW  Elec       q    Type
REMARK                         _______ _______ _______ _____ _____    ______ ____
ROOT
ATOM      1  C   LIG    1       29.106 -20.521   7.942  0.00  0.00    +0.284 C 
ENDROOT
BRANCH   1   2
ATOM      2  C   LIG    1       28.260 -21.126   6.798  0.00  0.00    +0.174 C 
BRANCH   2   4
ATOM      3  C   LIG    1       26.344 -20.530   8.374  0.00  0.00    +0.192 C 
ATOM      4  N   LIG    1       26.737 -21.253   7.096  0.00  0.00    +0.239 N 
ATOM      5  C   LIG    1       25.957 -20.617   5.936  0.00  0.00    +0.192 C 
ATOM      6  C   LIG    1       26.327 -22.716   7.191  0.00  0.00    +0.192 C 
ENDBRANCH   2   4
ENDBRANCH   1   2
BRANCH   1   7
ATOM      7  O   LIG    1       29.867 -21.463   8.719  0.00  0.00    -0.445 OA
BRANCH   7   8
ATOM      8  C   LIG    1       31.201 -21.234   8.775  0.00  0.00    +0.398 C 
ATOM      9  O   LIG    1       31.970 -21.796   9.524  0.00  0.00    -0.227 OA
ATOM     10  N   LIG    1       31.544 -20.262   7.899  0.00  0.00    -0.295 N 
ATOM     11  H   LIG    1       32.526 -20.080   7.737  0.00  0.00    +0.148 HD
ATOM     12  H   LIG    1       30.866 -19.861   7.269  0.00  0.00    +0.148 HD
ENDBRANCH   7   8
ENDBRANCH   1   7
TORSDOF 4
ENDMDL
MODEL 5
REMARK VINA RESULT:      -4.5      1.326      1.349
REMARK  Name = *****
REMARK                            x       y       z     vdW  Elec       q    Type
REMARK                         _______ _______ _______ _____ _____    ______ ____
ROOT
ATOM      1  C   LIG    1       29.034 -21.188   7.978  0.00  0.00    +0.284 C 
ENDROOT
BRANCH   1   2
ATOM      2  C   LIG    1       28.084 -20.912   6.789  0.00  0.00    +0.174 C 
BRANCH   2   4
ATOM      3  C   LIG    1       25.690 -20.703   5.934  0.00  0.00    +0.192 C 
ATOM      4  N   LIG    1       26.579 -21.199   7.063  0.00  0.00    +0.239 N 
ATOM      5  C   LIG    1       26.384 -22.717   7.183  0.00  0.00    +0.192 C 
ATOM      6  C   LIG    1       26.139 -20.563   8.374  0.00  0.00    +0.192 C 
ENDBRANCH   2   4
ENDBRANCH   1   2
BRANCH   1   7
ATOM      7  O   LIG    1       29.809 -20.064   8.430  0.00  0.00    -0.445 OA
BRANCH   7   8
ATOM      8  C   LIG    1       31.139 -20.131   8.185  0.00  0.00    +0.398 C 
ATOM      9  O   LIG    1       31.701 -19.595   7.255  0.00  0.00    -0.227 OA
ATOM     10  N   LIG    1       31.744 -20.913   9.108  0.00  0.00    -0.295 N 
ATOM     11  H   LIG    1       32.755 -20.945   9.128  0.00  0.00    +0.148 HD
ATOM     12  H   LIG    1       31.231 -21.297   9.887  0.00  0.00    +0.148 HD
ENDBRANCH   7   8
ENDBRANCH   1   7
TORSDOF 4
ENDMDL
MODEL 6
REMARK VINA RESULT:      -4.5      3.821      4.843
REMARK  Name = *****
REMARK                            x       y       z     vdW  Elec       q    Type
REMARK                         _______ _______ _______ _____ _____    ______ ____
ROOT
ATOM      1  C   LIG    1       31.677 -17.868   9.199  0.00  0.00    +0.284 C 
ENDROOT
BRANCH   1   2
ATOM      2  C   LIG    1       30.246 -18.379   8.914  0.00  0.00    +0.174 C 
BRANCH   2   4
ATOM      3  C   LIG    1       28.723 -20.023   7.695  0.00  0.00    +0.192 C 
ATOM      4  N   LIG    1       30.161 -19.629   7.989  0.00  0.00    +0.239 N 
ATOM      5  C   LIG    1       30.840 -19.296   6.654  0.00  0.00    +0.192 C 
ATOM      6  C   LIG    1       30.896 -20.809   8.609  0.00  0.00    +0.192 C 
ENDBRANCH   2   4
ENDBRANCH   1   2
BRANCH   1   7
ATOM      7  O   LIG    1       32.017 -17.709  10.588  0.00  0.00    -0.445 OA
BRANCH   7   8
ATOM      8  C   LIG    1       31.602 -16.557  11.166  0.00  0.00    +0.398 C 
ATOM      9  O   LIG    1       30.456 -16.306  11.468  0.00  0.00    -0.227 OA
ATOM     10  N   LIG    1       32.647 -15.713  11.325  0.00  0.00    -0.295 N 
ATOM     11  H   LIG    1       32.509 -14.869  11.865  0.00  0.00    +0.148 HD
ATOM     12  H   LIG    1       33.588 -15.994  11.095  0.00  0.00    +0.148 HD
ENDBRANCH   7   8
ENDBRANCH   1   7
TORSDOF 4
ENDMDL
MODEL 7
REMARK VINA RESULT:      -4.4      3.738      4.787
REMARK  Name = *****
REMARK                            x       y       z     vdW  Elec       q    Type
REMARK                         _______ _______ _______ _____ _____    ______ ____
ROOT
ATOM      1  C   LIG    1       30.936 -19.714   8.221  0.00  0.00    +0.284 C 
ENDROOT
BRANCH   1   2
ATOM      2  C   LIG    1       31.753 -19.046   9.351  0.00  0.00    +0.174 C 
BRANCH   2   4
ATOM      3  C   LIG    1       32.290 -16.552   9.346  0.00  0.00    +0.192 C 
ATOM      4  N   LIG    1       31.283 -17.616   9.751  0.00  0.00    +0.239 N 
ATOM      5  C   LIG    1       29.963 -17.315   9.028  0.00  0.00    +0.192 C 
ATOM      6  C   LIG    1       31.028 -17.533  11.249  0.00  0.00    +0.192 C 
ENDBRANCH   2   4
ENDBRANCH   1   2
BRANCH   1   7
ATOM      7  O   LIG    1       30.232 -20.914   8.586  0.00  0.00    -0.445 OA
BRANCH   7   8
ATOM      8  C   LIG    1       30.952 -21.830   9.276  0.00  0.00    +0.398 C 
ATOM      9  O   LIG    1       30.764 -22.131  10.435  0.00  0.00    -0.227 OA
ATOM     10  N   LIG    1       31.933 -22.335   8.495  0.00  0.00    -0.295 N 
ATOM     11  H   LIG    1       32.465 -23.126   8.835  0.00  0.00    +0.148 HD
ATOM     12  H   LIG    1       32.013 -22.080   7.523  0.00  0.00    +0.148 HD
ENDBRANCH   7   8
ENDBRANCH   1   7
TORSDOF 4
ENDMDL
MODEL 8
REMARK VINA RESULT:      -4.4      3.308      4.462
REMARK  Name = *****
REMARK                            x       y       z     vdW  Elec       q    Type
REMARK                         _______ _______ _______ _____ _____    ______ ____
ROOT
ATOM      1  C   LIG    1       24.745 -21.174   6.597  0.00  0.00    +0.284 C 
ENDROOT
BRANCH   1   2
ATOM      2  C   LIG    1       24.851 -22.298   5.541  0.00  0.00    +0.174 C 
BRANCH   2   4
ATOM      3  C   LIG    1       23.388 -24.039   6.697  0.00  0.00    +0.192 C 
ATOM      4  N   LIG    1       24.756 -23.747   6.103  0.00  0.00    +0.239 N 
ATOM      5  C   LIG    1       24.990 -24.735   4.951  0.00  0.00    +0.192 C 
ATOM      6  C   LIG    1       25.830 -23.988   7.154  0.00  0.00    +0.192 C 
ENDBRANCH   2   4
ENDBRANCH   1   2
BRANCH   1   7
ATOM      7  O   LIG    1       25.931 -20.382   6.786  0.00  0.00    -0.445 OA
BRANCH   7   8
ATOM      8  C   LIG    1       26.477 -20.429   8.024  0.00  0.00    +0.398 C 
ATOM      9  O   LIG    1       27.654 -20.280   8.269  0.00  0.00    -0.227 OA
ATOM     10  N   LIG    1       25.523 -20.700   8.944  0.00  0.00    -0.295 N 
ATOM     11  H   LIG    1       25.763 -20.632   9.925  0.00  0.00    +0.148 HD
ATOM     12  H   LIG    1       24.551 -20.769   8.686  0.00  0.00    +0.148 HD
ENDBRANCH   7   8
ENDBRANCH   1   7
TORSDOF 4
ENDMDL
MODEL 9
REMARK VINA RESULT:      -4.4      2.075      4.735
REMARK  Name = *****
REMARK                            x       y       z     vdW  Elec       q    Type
REMARK                         _______ _______ _______ _____ _____    ______ ____
ROOT
ATOM      1  C   LIG    1       28.500 -20.940   7.491  0.00  0.00    +0.284 C 
ENDROOT
BRANCH   1   2
ATOM      2  C   LIG    1       29.067 -19.614   8.048  0.00  0.00    +0.174 C 
BRANCH   2   4
ATOM      3  C   LIG    1       30.977 -18.647   9.434  0.00  0.00    +0.192 C 
ATOM      4  N   LIG    1       30.599 -19.611   8.322  0.00  0.00    +0.239 N 
ATOM      5  C   LIG    1       31.021 -21.021   8.758  0.00  0.00    +0.192 C 
ATOM      6  C   LIG    1       31.371 -19.259   7.058  0.00  0.00    +0.192 C 
ENDBRANCH   2   4
ENDBRANCH   1   2
BRANCH   1   7
ATOM      7  O   LIG    1       27.455 -21.549   8.270  0.00  0.00    -0.445 OA
BRANCH   7   8
ATOM      8  C   LIG    1       26.328 -20.812   8.416  0.00  0.00    +0.398 C 
ATOM      9  O   LIG    1       25.878 -20.435   9.475  0.00  0.00    -0.227 OA
ATOM     10  N   LIG    1       25.758 -20.589   7.209  0.00  0.00    -0.295 N 
ATOM     11  H   LIG    1       24.984 -19.940   7.152  0.00  0.00    +0.148 HD
ATOM     12  H   LIG    1       26.203 -20.890   6.356  0.00  0.00    +0.148 HD
ENDBRANCH   7   8
ENDBRANCH   1   7
TORSDOF 4
ENDMDL
