MODEL 1
REMARK VINA RESULT:      -9.0      0.000      0.000
REMARK  Name = *****
REMARK                            x       y       z     vdW  Elec       q    Type
REMARK                         _______ _______ _______ _____ _____    ______ ____
ROOT
ATOM      1  O   LIG    1       23.926 -20.304   6.542  0.00  0.00    -0.362 OA
ENDROOT
BRANCH   1   5
ATOM      2  N   LIG    1       24.160 -18.766   4.092  0.00  0.00    -0.302 NA
ATOM      3  C   LIG    1       22.714 -18.811   4.404  0.00  0.00    +0.087 C 
ATOM      4  C   LIG    1       22.221 -20.227   4.726  0.00  0.00    +0.047 C 
ATOM      5  C   LIG    1       23.322 -21.007   5.427  0.00  0.00    +0.122 C 
ATOM      6  C   LIG    1       24.342 -21.231   4.250  0.00  0.00    +0.047 C 
ATOM      7  C   LIG    1       24.565 -19.965   3.369  0.00  0.00    +0.087 C 
BRANCH   2   8
ATOM      8  C   LIG    1       24.575 -17.473   3.540  0.00  0.00    +0.085 C 
BRANCH   8   9
ATOM      9  C   LIG    1       26.075 -17.384   3.204  0.00  0.00    +0.026 C 
BRANCH   9  10
ATOM     10  C   LIG    1       26.747 -16.071   3.643  0.00  0.00    +0.121 C 
BRANCH  10  12
ATOM     11  O   LIG    1       25.189 -14.199   3.750  0.00  0.00    -0.251 OA
ATOM     12  C   LIG    1       26.103 -14.835   3.130  0.00  0.00    +0.305 C 
BRANCH  12  13
ATOM     13  O   LIG    1       26.584 -14.409   1.949  0.00  0.00    -0.481 OA
ATOM     14  H   LIG    1       26.348 -13.471   1.748  0.00  0.00    +0.295 HD
ENDBRANCH  12  13
ENDBRANCH  10  12
ENDBRANCH   9  10
ENDBRANCH   8   9
ENDBRANCH   2   8
ENDBRANCH   1   5
BRANCH   1  15
ATOM     15  C   LIG    1       24.874 -20.977   7.436  0.00  0.00    +0.197 C 
BRANCH  15  16
ATOM     16  C   LIG    1       24.725 -22.545   7.228  0.00  0.00    -0.013 A 
ATOM     17  C   LIG    1       25.864 -23.349   6.950  0.00  0.00    +0.008 A 
ATOM     18  C   LIG    1       25.738 -24.636   6.395  0.00  0.00    +0.020 A 
ATOM     19  C   LIG    1       24.482 -25.211   6.258  0.00  0.00    +0.041 A 
ATOM     20 CL   LIG    1       24.328 -26.804   5.617  0.00  0.00    -0.084 Cl
ATOM     21  C   LIG    1       23.350 -24.492   6.631  0.00  0.00    +0.020 A 
ATOM     22  C   LIG    1       23.467 -23.163   7.086  0.00  0.00    +0.008 A 
ENDBRANCH  15  16
BRANCH  15  23
ATOM     23  C   LIG    1       26.393 -20.559   7.255  0.00  0.00    +0.074 A 
ATOM     24  N   LIG    1       27.247 -20.553   8.325  0.00  0.00    -0.257 NA
ATOM     25  C   LIG    1       28.541 -20.149   8.135  0.00  0.00    +0.111 A 
ATOM     26  C   LIG    1       29.084 -19.847   6.900  0.00  0.00    +0.020 A 
ATOM     27  C   LIG    1       28.251 -19.945   5.806  0.00  0.00    +0.003 A 
ATOM     28  C   LIG    1       26.901 -20.244   5.984  0.00  0.00    +0.026 A 
ENDBRANCH  15  23
ENDBRANCH   1  15
TORSDOF 9
ENDMDL
MODEL 2
REMARK VINA RESULT:      -9.0      4.072      8.409
REMARK  Name = *****
REMARK                            x       y       z     vdW  Elec       q    Type
REMARK                         _______ _______ _______ _____ _____    ______ ____
ROOT
ATOM      1  O   LIG    1       25.584 -23.209   6.458  0.00  0.00    -0.362 OA
ENDROOT
BRANCH   1   5
ATOM      2  N   LIG    1       25.518 -26.100   6.699  0.00  0.00    -0.302 NA
ATOM      3  C   LIG    1       25.982 -25.821   5.321  0.00  0.00    +0.087 C 
ATOM      4  C   LIG    1       25.101 -24.795   4.597  0.00  0.00    +0.047 C 
ATOM      5  C   LIG    1       24.567 -23.779   5.596  0.00  0.00    +0.122 C 
ATOM      6  C   LIG    1       23.533 -24.650   6.401  0.00  0.00    +0.047 C 
ATOM      7  C   LIG    1       24.062 -26.069   6.766  0.00  0.00    +0.087 C 
BRANCH   2   8
ATOM      8  C   LIG    1       26.197 -27.256   7.294  0.00  0.00    +0.085 C 
BRANCH   8   9
ATOM      9  C   LIG    1       25.278 -28.467   7.539  0.00  0.00    +0.026 C 
BRANCH   9  10
ATOM     10  C   LIG    1       25.281 -29.507   6.405  0.00  0.00    +0.121 C 
BRANCH  10  12
ATOM     11  O   LIG    1       23.527 -31.198   6.502  0.00  0.00    -0.251 OA
ATOM     12  C   LIG    1       23.950 -30.075   6.072  0.00  0.00    +0.305 C 
BRANCH  12  13
ATOM     13  O   LIG    1       23.193 -29.289   5.287  0.00  0.00    -0.481 OA
ATOM     14  H   LIG    1       22.805 -28.517   5.767  0.00  0.00    +0.295 HD
ENDBRANCH  12  13
ENDBRANCH  10  12
ENDBRANCH   9  10
ENDBRANCH   8   9
ENDBRANCH   2   8
ENDBRANCH   1   5
BRANCH   1  15
ATOM     15  C   LIG    1       25.597 -21.774   6.763  0.00  0.00    +0.197 C 
BRANCH  15  16
ATOM     16  C   LIG    1       27.097 -21.261   6.671  0.00  0.00    -0.013 A 
ATOM     17  C   LIG    1       28.089 -21.764   7.557  0.00  0.00    +0.008 A 
ATOM     18  C   LIG    1       29.304 -21.084   7.766  0.00  0.00    +0.020 A 
ATOM     19  C   LIG    1       29.624 -19.984   6.982  0.00  0.00    +0.041 A 
ATOM     20 CL   LIG    1       31.129 -19.174   7.207  0.00  0.00    -0.084 Cl
ATOM     21  C   LIG    1       28.721 -19.535   6.023  0.00  0.00    +0.020 A 
ATOM     22  C   LIG    1       27.460 -20.149   5.886  0.00  0.00    +0.008 A 
ENDBRANCH  15  16
BRANCH  15  23
ATOM     23  C   LIG    1       24.670 -20.875   5.844  0.00  0.00    +0.074 A 
ATOM     24  N   LIG    1       25.030 -20.592   4.554  0.00  0.00    -0.257 NA
ATOM     25  C   LIG    1       24.220 -19.780   3.805  0.00  0.00    +0.111 A 
ATOM     26  C   LIG    1       22.991 -19.309   4.230  0.00  0.00    +0.020 A 
ATOM     27  C   LIG    1       22.581 -19.673   5.494  0.00  0.00    +0.003 A 
ATOM     28  C   LIG    1       23.434 -20.404   6.319  0.00  0.00    +0.026 A 
ENDBRANCH  15  23
ENDBRANCH   1  15
TORSDOF 9
ENDMDL
MODEL 3
REMARK VINA RESULT:      -9.0      3.853      6.345
REMARK  Name = *****
REMARK                            x       y       z     vdW  Elec       q    Type
REMARK                         _______ _______ _______ _____ _____    ______ ____
ROOT
ATOM      1  O   LIG    1       26.707 -22.134   6.857  0.00  0.00    -0.362 OA
ENDROOT
BRANCH   1   5
ATOM      2  N   LIG    1       29.311 -21.133   7.658  0.00  0.00    -0.302 NA
ATOM      3  C   LIG    1       28.345 -20.568   8.628  0.00  0.00    +0.087 C 
ATOM      4  C   LIG    1       27.127 -19.933   7.949  0.00  0.00    +0.047 C 
ATOM      5  C   LIG    1       26.790 -20.697   6.677  0.00  0.00    +0.122 C 
ATOM      6  C   LIG    1       27.988 -20.288   5.743  0.00  0.00    +0.047 C 
ATOM      7  C   LIG    1       29.372 -20.308   6.458  0.00  0.00    +0.087 C 
BRANCH   2   8
ATOM      8  C   LIG    1       30.583 -21.506   8.286  0.00  0.00    +0.085 C 
BRANCH   8   9
ATOM      9  C   LIG    1       31.215 -20.389   9.137  0.00  0.00    +0.026 C 
BRANCH   9  10
ATOM     10  C   LIG    1       31.590 -19.123   8.346  0.00  0.00    +0.121 C 
BRANCH  10  12
ATOM     11  O   LIG    1       32.024 -17.975  10.453  0.00  0.00    -0.251 OA
ATOM     12  C   LIG    1       31.989 -17.959   9.179  0.00  0.00    +0.305 C 
BRANCH  12  13
ATOM     13  O   LIG    1       32.345 -16.871   8.475  0.00  0.00    -0.481 OA
ATOM     14  H   LIG    1       32.841 -16.206   9.011  0.00  0.00    +0.295 HD
ENDBRANCH  12  13
ENDBRANCH  10  12
ENDBRANCH   9  10
ENDBRANCH   8   9
ENDBRANCH   2   8
ENDBRANCH   1   5
BRANCH   1  15
ATOM     15  C   LIG    1       25.410 -22.805   6.991  0.00  0.00    +0.197 C 
BRANCH  15  16
ATOM     16  C   LIG    1       24.322 -21.939   6.224  0.00  0.00    -0.013 A 
ATOM     17  C   LIG    1       24.385 -21.785   4.812  0.00  0.00    +0.008 A 
ATOM     18  C   LIG    1       23.696 -20.750   4.153  0.00  0.00    +0.020 A 
ATOM     19  C   LIG    1       22.806 -19.951   4.858  0.00  0.00    +0.041 A 
ATOM     20 CL   LIG    1       21.930 -18.709   4.044  0.00  0.00    -0.084 Cl
ATOM     21  C   LIG    1       22.635 -20.153   6.225  0.00  0.00    +0.020 A 
ATOM     22  C   LIG    1       23.403 -21.118   6.906  0.00  0.00    +0.008 A 
ENDBRANCH  15  16
BRANCH  15  23
ATOM     23  C   LIG    1       25.362 -24.302   6.473  0.00  0.00    +0.074 A 
ATOM     24  N   LIG    1       26.518 -24.987   6.210  0.00  0.00    -0.257 NA
ATOM     25  C   LIG    1       26.433 -26.266   5.728  0.00  0.00    +0.111 A 
ATOM     26  C   LIG    1       25.247 -26.963   5.589  0.00  0.00    +0.020 A 
ATOM     27  C   LIG    1       24.087 -26.309   5.944  0.00  0.00    +0.003 A 
ATOM     28  C   LIG    1       24.134 -24.970   6.331  0.00  0.00    +0.026 A 
ENDBRANCH  15  23
ENDBRANCH   1  15
TORSDOF 9
ENDMDL
MODEL 4
REMARK VINA RESULT:      -8.2      3.719      7.662
REMARK  Name = *****
REMARK                            x       y       z     vdW  Elec       q    Type
REMARK                         _______ _______ _______ _____ _____    ______ ____
ROOT
ATOM      1  O   LIG    1       24.888 -22.752   5.321  0.00  0.00    -0.362 OA
ENDROOT
BRANCH   1   5
ATOM      2  N   LIG    1       25.396 -25.609   5.316  0.00  0.00    -0.302 NA
ATOM      3  C   LIG    1       23.939 -25.458   5.532  0.00  0.00    +0.087 C 
ATOM      4  C   LIG    1       23.605 -24.441   6.630  0.00  0.00    +0.047 C 
ATOM      5  C   LIG    1       24.640 -23.326   6.629  0.00  0.00    +0.122 C 
ATOM      6  C   LIG    1       25.903 -24.076   7.194  0.00  0.00    +0.047 C 
ATOM      7  C   LIG    1       26.115 -25.491   6.579  0.00  0.00    +0.087 C 
BRANCH   2   8
ATOM      8  C   LIG    1       25.720 -26.754   4.459  0.00  0.00    +0.085 C 
BRANCH   8   9
ATOM      9  C   LIG    1       26.263 -27.976   5.222  0.00  0.00    +0.026 C 
BRANCH   9  10
ATOM     10  C   LIG    1       25.368 -29.225   5.137  0.00  0.00    +0.121 C 
BRANCH  10  12
ATOM     11  O   LIG    1       24.206 -28.725   7.222  0.00  0.00    -0.251 OA
ATOM     12  C   LIG    1       24.193 -29.217   6.047  0.00  0.00    +0.305 C 
BRANCH  12  13
ATOM     13  O   LIG    1       23.080 -29.756   5.518  0.00  0.00    -0.481 OA
ATOM     14  H   LIG    1       22.254 -29.289   5.793  0.00  0.00    +0.295 HD
ENDBRANCH  12  13
ENDBRANCH  10  12
ENDBRANCH   9  10
ENDBRANCH   8   9
ENDBRANCH   2   8
ENDBRANCH   1   5
BRANCH   1  15
ATOM     15  C   LIG    1       25.435 -21.398   5.183  0.00  0.00    +0.197 C 
BRANCH  15  16
ATOM     16  C   LIG    1       24.228 -20.397   4.934  0.00  0.00    -0.013 A 
ATOM     17  C   LIG    1       22.933 -20.685   5.445  0.00  0.00    +0.008 A 
ATOM     18  C   LIG    1       21.784 -20.047   4.942  0.00  0.00    +0.020 A 
ATOM     19  C   LIG    1       21.913 -18.999   4.040  0.00  0.00    +0.041 A 
ATOM     20 CL   LIG    1       20.508 -18.189   3.454  0.00  0.00    -0.084 Cl
ATOM     21  C   LIG    1       23.178 -18.615   3.607  0.00  0.00    +0.020 A 
ATOM     22  C   LIG    1       24.322 -19.323   4.028  0.00  0.00    +0.008 A 
ENDBRANCH  15  16
BRANCH  15  23
ATOM     23  C   LIG    1       26.306 -20.888   6.406  0.00  0.00    +0.074 A 
ATOM     24  N   LIG    1       25.752 -20.761   7.651  0.00  0.00    -0.257 NA
ATOM     25  C   LIG    1       26.528 -20.281   8.673  0.00  0.00    +0.111 A 
ATOM     26  C   LIG    1       27.880 -20.016   8.560  0.00  0.00    +0.020 A 
ATOM     27  C   LIG    1       28.463 -20.236   7.330  0.00  0.00    +0.003 A 
ATOM     28  C   LIG    1       27.675 -20.616   6.244  0.00  0.00    +0.026 A 
ENDBRANCH  15  23
ENDBRANCH   1  15
TORSDOF 9
ENDMDL
MODEL 5
REMARK VINA RESULT:      -8.1      4.393      8.666
REMARK  Name = *****
REMARK                            x       y       z     vdW  Elec       q    Type
REMARK                         _______ _______ _______ _____ _____    ______ ____
ROOT
ATOM      1  O   LIG    1       25.680 -23.320   6.339  0.00  0.00    -0.362 OA
ENDROOT
BRANCH   1   5
ATOM      2  N   LIG    1       25.723 -26.213   6.561  0.00  0.00    -0.302 NA
ATOM      3  C   LIG    1       26.035 -25.912   5.146  0.00  0.00    +0.087 C 
ATOM      4  C   LIG    1       25.056 -24.909   4.524  0.00  0.00    +0.047 C 
ATOM      5  C   LIG    1       24.598 -23.915   5.581  0.00  0.00    +0.122 C 
ATOM      6  C   LIG    1       23.676 -24.821   6.479  0.00  0.00    +0.047 C 
ATOM      7  C   LIG    1       24.280 -26.226   6.776  0.00  0.00    +0.087 C 
BRANCH   2   8
ATOM      8  C   LIG    1       26.491 -27.352   7.075  0.00  0.00    +0.085 C 
BRANCH   8   9
ATOM      9  C   LIG    1       25.722 -28.226   8.082  0.00  0.00    +0.026 C 
BRANCH   9  10
ATOM     10  C   LIG    1       26.458 -28.457   9.414  0.00  0.00    +0.121 C 
BRANCH  10  12
ATOM     11  O   LIG    1       25.562 -30.667   9.923  0.00  0.00    -0.251 OA
ATOM     12  C   LIG    1       26.559 -29.878   9.836  0.00  0.00    +0.305 C 
BRANCH  12  13
ATOM     13  O   LIG    1       27.811 -30.289  10.100  0.00  0.00    -0.481 OA
ATOM     14  H   LIG    1       27.851 -31.006  10.778  0.00  0.00    +0.295 HD
ENDBRANCH  12  13
ENDBRANCH  10  12
ENDBRANCH   9  10
ENDBRANCH   8   9
ENDBRANCH   2   8
ENDBRANCH   1   5
BRANCH   1  15
ATOM     15  C   LIG    1       25.642 -21.906   6.728  0.00  0.00    +0.197 C 
BRANCH  15  16
ATOM     16  C   LIG    1       27.120 -21.330   6.656  0.00  0.00    -0.013 A 
ATOM     17  C   LIG    1       28.123 -21.801   7.547  0.00  0.00    +0.008 A 
ATOM     18  C   LIG    1       29.307 -21.073   7.773  0.00  0.00    +0.020 A 
ATOM     19  C   LIG    1       29.589 -19.953   7.003  0.00  0.00    +0.041 A 
ATOM     20 CL   LIG    1       31.057 -19.084   7.250  0.00  0.00    -0.084 Cl
ATOM     21  C   LIG    1       28.676 -19.532   6.039  0.00  0.00    +0.020 A 
ATOM     22  C   LIG    1       27.443 -20.197   5.885  0.00  0.00    +0.008 A 
ENDBRANCH  15  16
BRANCH  15  23
ATOM     23  C   LIG    1       24.671 -20.991   5.871  0.00  0.00    +0.074 A 
ATOM     24  N   LIG    1       24.929 -20.747   4.550  0.00  0.00    -0.257 NA
ATOM     25  C   LIG    1       24.087 -19.921   3.854  0.00  0.00    +0.111 A 
ATOM     26  C   LIG    1       22.917 -19.397   4.370  0.00  0.00    +0.020 A 
ATOM     27  C   LIG    1       22.604 -19.720   5.672  0.00  0.00    +0.003 A 
ATOM     28  C   LIG    1       23.498 -20.465   6.438  0.00  0.00    +0.026 A 
ENDBRANCH  15  23
ENDBRANCH   1  15
TORSDOF 9
ENDMDL
MODEL 6
REMARK VINA RESULT:      -7.5      3.193      5.755
REMARK  Name = *****
REMARK                            x       y       z     vdW  Elec       q    Type
REMARK                         _______ _______ _______ _____ _____    ______ ____
ROOT
ATOM      1  O   LIG    1       26.562 -21.879   6.502  0.00  0.00    -0.362 OA
ENDROOT
BRANCH   1   5
ATOM      2  N   LIG    1       29.187 -21.141   7.496  0.00  0.00    -0.302 NA
ATOM      3  C   LIG    1       28.256 -20.947   8.631  0.00  0.00    +0.087 C 
ATOM      4  C   LIG    1       27.005 -20.150   8.241  0.00  0.00    +0.047 C 
ATOM      5  C   LIG    1       26.624 -20.462   6.801  0.00  0.00    +0.122 C 
ATOM      6  C   LIG    1       27.781 -19.742   6.013  0.00  0.00    +0.047 C 
ATOM      7  C   LIG    1       29.192 -19.966   6.632  0.00  0.00    +0.087 C 
BRANCH   2   8
ATOM      8  C   LIG    1       30.485 -21.672   7.921  0.00  0.00    +0.085 C 
BRANCH   8   9
ATOM      9  C   LIG    1       31.111 -20.924   9.114  0.00  0.00    +0.026 C 
BRANCH   9  10
ATOM     10  C   LIG    1       31.585 -19.496   8.790  0.00  0.00    +0.121 C 
BRANCH  10  12
ATOM     11  O   LIG    1       29.988 -18.190  10.089  0.00  0.00    -0.251 OA
ATOM     12  C   LIG    1       31.195 -18.465   9.786  0.00  0.00    +0.305 C 
BRANCH  12  13
ATOM     13  O   LIG    1       32.232 -17.847  10.377  0.00  0.00    -0.481 OA
ATOM     14  H   LIG    1       32.102 -17.713  11.348  0.00  0.00    +0.295 HD
ENDBRANCH  12  13
ENDBRANCH  10  12
ENDBRANCH   9  10
ENDBRANCH   8   9
ENDBRANCH   2   8
ENDBRANCH   1   5
BRANCH   1  15
ATOM     15  C   LIG    1       25.711 -22.385   5.420  0.00  0.00    +0.197 C 
BRANCH  15  16
ATOM     16  C   LIG    1       25.282 -23.871   5.779  0.00  0.00    -0.013 A 
ATOM     17  C   LIG    1       25.699 -24.469   7.000  0.00  0.00    +0.008 A 
ATOM     18  C   LIG    1       25.670 -25.864   7.185  0.00  0.00    +0.020 A 
ATOM     19  C   LIG    1       25.079 -26.677   6.227  0.00  0.00    +0.041 A 
ATOM     20 CL   LIG    1       25.007 -28.382   6.470  0.00  0.00    -0.084 Cl
ATOM     21  C   LIG    1       24.556 -26.109   5.069  0.00  0.00    +0.020 A 
ATOM     22  C   LIG    1       24.679 -24.725   4.834  0.00  0.00    +0.008 A 
ENDBRANCH  15  16
BRANCH  15  23
ATOM     23  C   LIG    1       24.420 -21.519   5.108  0.00  0.00    +0.074 A 
ATOM     24  N   LIG    1       23.249 -21.746   5.780  0.00  0.00    -0.257 NA
ATOM     25  C   LIG    1       22.146 -21.001   5.455  0.00  0.00    +0.111 A 
ATOM     26  C   LIG    1       22.161 -19.947   4.561  0.00  0.00    +0.020 A 
ATOM     27  C   LIG    1       23.363 -19.653   3.954  0.00  0.00    +0.003 A 
ATOM     28  C   LIG    1       24.473 -20.465   4.180  0.00  0.00    +0.026 A 
ENDBRANCH  15  23
ENDBRANCH   1  15
TORSDOF 9
ENDMDL
MODEL 7
REMARK VINA RESULT:      -7.4      8.444     11.741
REMARK  Name = *****
REMARK                            x       y       z     vdW  Elec       q    Type
REMARK                         _______ _______ _______ _____ _____    ______ ____
ROOT
ATOM      1  O   LIG    1       24.452 -30.398   8.613  0.00  0.00    -0.362 OA
ENDROOT
BRANCH   1   5
ATOM      2  N   LIG    1       24.674 -30.213  11.500  0.00  0.00    -0.302 NA
ATOM      3  C   LIG    1       24.939 -31.631  11.165  0.00  0.00    +0.087 C 
ATOM      4  C   LIG    1       23.889 -32.221  10.217  0.00  0.00    +0.047 C 
ATOM      5  C   LIG    1       23.392 -31.143   9.264  0.00  0.00    +0.122 C 
ATOM      6  C   LIG    1       22.545 -30.239  10.234  0.00  0.00    +0.047 C 
ATOM      7  C   LIG    1       23.240 -29.971  11.603  0.00  0.00    +0.087 C 
BRANCH   2   8
ATOM      8  C   LIG    1       25.520 -29.728  12.595  0.00  0.00    +0.085 C 
BRANCH   8   9
ATOM      9  C   LIG    1       26.162 -28.353  12.333  0.00  0.00    +0.026 C 
BRANCH   9  10
ATOM     10  C   LIG    1       26.895 -28.241  10.985  0.00  0.00    +0.121 C 
BRANCH  10  12
ATOM     11  O   LIG    1       28.795 -29.724  11.358  0.00  0.00    -0.251 OA
ATOM     12  C   LIG    1       27.784 -29.386  10.658  0.00  0.00    +0.305 C 
BRANCH  12  13
ATOM     13  O   LIG    1       27.423 -30.072   9.560  0.00  0.00    -0.481 OA
ATOM     14  H   LIG    1       28.164 -30.593   9.165  0.00  0.00    +0.295 HD
ENDBRANCH  12  13
ENDBRANCH  10  12
ENDBRANCH   9  10
ENDBRANCH   8   9
ENDBRANCH   2   8
ENDBRANCH   1   5
BRANCH   1  15
ATOM     15  C   LIG    1       24.576 -30.384   7.151  0.00  0.00    +0.197 C 
BRANCH  15  16
ATOM     16  C   LIG    1       24.946 -28.907   6.699  0.00  0.00    -0.013 A 
ATOM     17  C   LIG    1       25.892 -28.142   7.434  0.00  0.00    +0.008 A 
ATOM     18  C   LIG    1       25.965 -26.742   7.306  0.00  0.00    +0.020 A 
ATOM     19  C   LIG    1       25.216 -26.096   6.333  0.00  0.00    +0.041 A 
ATOM     20 CL   LIG    1       25.335 -24.386   6.147  0.00  0.00    -0.084 Cl
ATOM     21  C   LIG    1       24.363 -26.834   5.517  0.00  0.00    +0.020 A 
ATOM     22  C   LIG    1       24.209 -28.221   5.714  0.00  0.00    +0.008 A 
ENDBRANCH  15  16
BRANCH  15  23
ATOM     23  C   LIG    1       25.628 -31.405   6.548  0.00  0.00    +0.074 A 
ATOM     24  N   LIG    1       26.569 -31.992   7.350  0.00  0.00    -0.257 NA
ATOM     25  C   LIG    1       27.484 -32.840   6.784  0.00  0.00    +0.111 A 
ATOM     26  C   LIG    1       27.455 -33.236   5.460  0.00  0.00    +0.020 A 
ATOM     27  C   LIG    1       26.449 -32.722   4.671  0.00  0.00    +0.003 A 
ATOM     28  C   LIG    1       25.573 -31.771   5.193  0.00  0.00    +0.026 A 
ENDBRANCH  15  23
ENDBRANCH   1  15
TORSDOF 9
ENDMDL
MODEL 8
REMARK VINA RESULT:      -7.3      7.488     10.966
REMARK  Name = *****
REMARK                            x       y       z     vdW  Elec       q    Type
REMARK                         _______ _______ _______ _____ _____    ______ ____
ROOT
ATOM      1  O   LIG    1       26.082 -29.268   8.661  0.00  0.00    -0.362 OA
ENDROOT
BRANCH   1   5
ATOM      2  N   LIG    1       25.559 -28.970  11.499  0.00  0.00    -0.302 NA
ATOM      3  C   LIG    1       27.025 -29.128  11.374  0.00  0.00    +0.087 C 
ATOM      4  C   LIG    1       27.419 -30.314  10.485  0.00  0.00    +0.047 C 
ATOM      5  C   LIG    1       26.392 -30.490   9.377  0.00  0.00    +0.122 C 
ATOM      6  C   LIG    1       25.154 -31.029  10.185  0.00  0.00    +0.047 C 
ATOM      7  C   LIG    1       24.904 -30.272  11.523  0.00  0.00    +0.087 C 
BRANCH   2   8
ATOM      8  C   LIG    1       25.186 -28.008  12.542  0.00  0.00    +0.085 C 
BRANCH   8   9
ATOM      9  C   LIG    1       26.275 -26.966  12.855  0.00  0.00    +0.026 C 
BRANCH   9  10
ATOM     10  C   LIG    1       25.788 -25.768  13.687  0.00  0.00    +0.121 C 
BRANCH  10  12
ATOM     11  O   LIG    1       26.590 -23.652  14.595  0.00  0.00    -0.251 OA
ATOM     12  C   LIG    1       26.797 -24.698  13.898  0.00  0.00    +0.305 C 
BRANCH  12  13
ATOM     13  O   LIG    1       27.983 -24.933  13.310  0.00  0.00    -0.481 OA
ATOM     14  H   LIG    1       28.644 -24.214  13.465  0.00  0.00    +0.295 HD
ENDBRANCH  12  13
ENDBRANCH  10  12
ENDBRANCH   9  10
ENDBRANCH   8   9
ENDBRANCH   2   8
ENDBRANCH   1   5
BRANCH   1  15
ATOM     15  C   LIG    1       24.969 -29.213   7.707  0.00  0.00    +0.197 C 
BRANCH  15  16
ATOM     16  C   LIG    1       25.121 -27.889   6.842  0.00  0.00    -0.013 A 
ATOM     17  C   LIG    1       26.055 -26.885   7.216  0.00  0.00    +0.008 A 
ATOM     18  C   LIG    1       25.959 -25.570   6.723  0.00  0.00    +0.020 A 
ATOM     19  C   LIG    1       25.037 -25.269   5.730  0.00  0.00    +0.041 A 
ATOM     20 CL   LIG    1       24.946 -23.668   5.095  0.00  0.00    -0.084 Cl
ATOM     21  C   LIG    1       24.183 -26.261   5.259  0.00  0.00    +0.020 A 
ATOM     22  C   LIG    1       24.205 -27.551   5.826  0.00  0.00    +0.008 A 
ENDBRANCH  15  16
BRANCH  15  23
ATOM     23  C   LIG    1       24.836 -30.465   6.745  0.00  0.00    +0.074 A 
ATOM     24  N   LIG    1       23.720 -31.258   6.782  0.00  0.00    -0.257 NA
ATOM     25  C   LIG    1       23.660 -32.352   5.961  0.00  0.00    +0.111 A 
ATOM     26  C   LIG    1       24.612 -32.656   5.005  0.00  0.00    +0.020 A 
ATOM     27  C   LIG    1       25.690 -31.805   4.899  0.00  0.00    +0.003 A 
ATOM     28  C   LIG    1       25.833 -30.748   5.797  0.00  0.00    +0.026 A 
ENDBRANCH  15  23
ENDBRANCH   1  15
TORSDOF 9
ENDMDL
MODEL 9
REMARK VINA RESULT:      -7.2      2.944      5.622
REMARK  Name = *****
REMARK                            x       y       z     vdW  Elec       q    Type
REMARK                         _______ _______ _______ _____ _____    ______ ____
ROOT
ATOM      1  O   LIG    1       26.815 -20.974   6.174  0.00  0.00    -0.362 OA
ENDROOT
BRANCH   1   5
ATOM      2  N   LIG    1       28.993 -19.571   7.481  0.00  0.00    -0.302 NA
ATOM      3  C   LIG    1       29.459 -20.966   7.305  0.00  0.00    +0.087 C 
ATOM      4  C   LIG    1       28.427 -21.998   7.775  0.00  0.00    +0.047 C 
ATOM      5  C   LIG    1       27.022 -21.474   7.519  0.00  0.00    +0.122 C 
ATOM      6  C   LIG    1       26.917 -20.332   8.596  0.00  0.00    +0.047 C 
ATOM      7  C   LIG    1       28.196 -19.448   8.695  0.00  0.00    +0.087 C 
BRANCH   2   8
ATOM      8  C   LIG    1       30.065 -18.593   7.276  0.00  0.00    +0.085 C 
BRANCH   8   9
ATOM      9  C   LIG    1       31.150 -18.609   8.369  0.00  0.00    +0.026 C 
BRANCH   9  10
ATOM     10  C   LIG    1       31.252 -17.307   9.182  0.00  0.00    +0.121 C 
BRANCH  10  12
ATOM     11  O   LIG    1       30.221 -16.371  11.184  0.00  0.00    -0.251 OA
ATOM     12  C   LIG    1       30.683 -17.377  10.552  0.00  0.00    +0.305 C 
BRANCH  12  13
ATOM     13  O   LIG    1       30.663 -18.613  11.081  0.00  0.00    -0.481 OA
ATOM     14  H   LIG    1       29.957 -19.189  10.699  0.00  0.00    +0.295 HD
ENDBRANCH  12  13
ENDBRANCH  10  12
ENDBRANCH   9  10
ENDBRANCH   8   9
ENDBRANCH   2   8
ENDBRANCH   1   5
BRANCH   1  15
ATOM     15  C   LIG    1       25.783 -21.550   5.305  0.00  0.00    +0.197 C 
BRANCH  15  16
ATOM     16  C   LIG    1       25.338 -22.945   5.919  0.00  0.00    -0.013 A 
ATOM     17  C   LIG    1       26.289 -23.984   6.116  0.00  0.00    +0.008 A 
ATOM     18  C   LIG    1       25.891 -25.323   6.290  0.00  0.00    +0.020 A 
ATOM     19  C   LIG    1       24.545 -25.632   6.433  0.00  0.00    +0.041 A 
ATOM     20 CL   LIG    1       24.059 -27.266   6.687  0.00  0.00    -0.084 Cl
ATOM     21  C   LIG    1       23.594 -24.619   6.360  0.00  0.00    +0.020 A 
ATOM     22  C   LIG    1       23.983 -23.293   6.080  0.00  0.00    +0.008 A 
ENDBRANCH  15  16
BRANCH  15  23
ATOM     23  C   LIG    1       24.506 -20.640   5.070  0.00  0.00    +0.074 A 
ATOM     24  N   LIG    1       23.609 -20.424   6.081  0.00  0.00    -0.257 NA
ATOM     25  C   LIG    1       22.498 -19.662   5.828  0.00  0.00    +0.111 A 
ATOM     26  C   LIG    1       22.272 -18.997   4.637  0.00  0.00    +0.020 A 
ATOM     27  C   LIG    1       23.223 -19.135   3.649  0.00  0.00    +0.003 A 
ATOM     28  C   LIG    1       24.305 -19.993   3.840  0.00  0.00    +0.026 A 
ENDBRANCH  15  23
ENDBRANCH   1  15
TORSDOF 9
ENDMDL
