MODEL 1
REMARK VINA RESULT:      -9.3      0.000      0.000
REMARK  Name = *****
REMARK                            x       y       z     vdW  Elec       q    Type
REMARK                         _______ _______ _______ _____ _____    ______ ____
ROOT
ATOM      1  C   LIG    1       27.074 -19.959   5.213  0.00  0.00    +0.049 C 
ATOM      2  C   LIG    1       26.665 -20.778   6.406  0.00  0.00    +0.013 A 
ATOM      3  C   LIG    1       27.253 -20.616   7.671  0.00  0.00    +0.060 A 
ATOM      4  N   LIG    1       26.853 -21.352   8.743  0.00  0.00    -0.259 NA
ATOM      5  C   LIG    1       25.872 -22.259   8.573  0.00  0.00    +0.114 A 
ATOM      6  C   LIG    1       25.206 -22.453   7.380  0.00  0.00    +0.065 A 
ATOM      7  C   LIG    1       25.585 -21.677   6.291  0.00  0.00    +0.127 A 
ENDROOT
BRANCH   3   8
ATOM      8  C   LIG    1       28.299 -19.566   7.973  0.00  0.00    +0.167 C 
BRANCH   8   9
ATOM      9  S   LIG    1       30.009 -20.190   7.911  0.00  0.00    +0.095 S 
ATOM     10  O   LIG    1       30.122 -21.428   8.753  0.00  0.00    -0.249 OA
BRANCH   9  11
ATOM     11  C   LIG    1       30.703 -18.925   8.887  0.00  0.00    +0.198 A 
ATOM     12  N   LIG    1       31.496 -17.922   8.384  0.00  0.00    -0.331 N 
ATOM     13  H   LIG    1       31.754 -17.831   7.414  0.00  0.00    +0.168 HD
ATOM     14  C   LIG    1       31.933 -17.160   9.439  0.00  0.00    +0.067 A 
ATOM     15  C   LIG    1       31.312 -17.724  10.549  0.00  0.00    +0.090 A 
ATOM     16  C   LIG    1       31.536 -17.170  11.818  0.00  0.00    +0.030 A 
ATOM     17  C   LIG    1       32.405 -16.077  11.933  0.00  0.00    +0.002 A 
ATOM     18  C   LIG    1       33.025 -15.536  10.805  0.00  0.00    +0.002 A 
ATOM     19  C   LIG    1       32.797 -16.061   9.525  0.00  0.00    +0.028 A 
ATOM     20  N   LIG    1       30.558 -18.820  10.189  0.00  0.00    -0.220 NA
ENDBRANCH   9  11
ENDBRANCH   8   9
ENDBRANCH   3   8
BRANCH   7  21
ATOM     21  O   LIG    1       24.966 -21.746   5.066  0.00  0.00    -0.483 OA
BRANCH  21  22
ATOM     22  C   LIG    1       23.528 -21.741   5.078  0.00  0.00    +0.342 C 
BRANCH  22  23
ATOM     23  C   LIG    1       22.963 -20.326   5.197  0.00  0.00    +0.424 C 
ATOM     24  F   LIG    1       22.896 -19.948   6.496  0.00  0.00    -0.167 F 
ATOM     25  F   LIG    1       21.705 -20.264   4.700  0.00  0.00    -0.167 F 
ATOM     26  F   LIG    1       23.703 -19.401   4.547  0.00  0.00    -0.167 F 
ENDBRANCH  22  23
ENDBRANCH  21  22
ENDBRANCH   7  21
TORSDOF 6
ENDMDL
MODEL 2
REMARK VINA RESULT:      -9.0      3.893      8.134
REMARK  Name = *****
REMARK                            x       y       z     vdW  Elec       q    Type
REMARK                         _______ _______ _______ _____ _____    ______ ____
ROOT
ATOM      1  C   LIG    1       30.490 -21.529   9.128  0.00  0.00    +0.049 C 
ATOM      2  C   LIG    1       30.197 -20.549   8.026  0.00  0.00    +0.013 A 
ATOM      3  C   LIG    1       29.138 -20.724   7.119  0.00  0.00    +0.060 A 
ATOM      4  N   LIG    1       28.877 -19.815   6.142  0.00  0.00    -0.259 NA
ATOM      5  C   LIG    1       29.665 -18.726   6.048  0.00  0.00    +0.114 A 
ATOM      6  C   LIG    1       30.696 -18.448   6.920  0.00  0.00    +0.065 A 
ATOM      7  C   LIG    1       30.943 -19.355   7.945  0.00  0.00    +0.127 A 
ENDROOT
BRANCH   3   8
ATOM      8  C   LIG    1       28.154 -21.870   7.203  0.00  0.00    +0.167 C 
BRANCH   8   9
ATOM      9  S   LIG    1       26.732 -21.543   8.294  0.00  0.00    +0.095 S 
ATOM     10  O   LIG    1       26.140 -22.845   8.750  0.00  0.00    -0.249 OA
BRANCH   9  11
ATOM     11  C   LIG    1       25.662 -20.985   7.037  0.00  0.00    +0.198 A 
ATOM     12  N   LIG    1       26.074 -20.693   5.759  0.00  0.00    -0.331 N 
ATOM     13  H   LIG    1       27.024 -20.767   5.436  0.00  0.00    +0.168 HD
ATOM     14  C   LIG    1       24.992 -20.204   5.069  0.00  0.00    +0.067 A 
ATOM     15  C   LIG    1       23.940 -20.287   5.977  0.00  0.00    +0.090 A 
ATOM     16  C   LIG    1       22.659 -19.870   5.585  0.00  0.00    +0.030 A 
ATOM     17  C   LIG    1       22.483 -19.354   4.295  0.00  0.00    +0.002 A 
ATOM     18  C   LIG    1       23.557 -19.271   3.406  0.00  0.00    +0.002 A 
ATOM     19  C   LIG    1       24.840 -19.703   3.770  0.00  0.00    +0.028 A 
ATOM     20  N   LIG    1       24.375 -20.768   7.193  0.00  0.00    -0.220 NA
ENDBRANCH   9  11
ENDBRANCH   8   9
ENDBRANCH   3   8
BRANCH   7  21
ATOM     21  O   LIG    1       31.911 -19.165   8.901  0.00  0.00    -0.483 OA
BRANCH  21  22
ATOM     22  C   LIG    1       32.106 -17.813   9.350  0.00  0.00    +0.342 C 
BRANCH  22  23
ATOM     23  C   LIG    1       31.042 -17.388  10.362  0.00  0.00    +0.424 C 
ATOM     24  F   LIG    1       29.951 -16.897   9.726  0.00  0.00    -0.167 F 
ATOM     25  F   LIG    1       31.507 -16.404  11.167  0.00  0.00    -0.167 F 
ATOM     26  F   LIG    1       30.626 -18.399  11.153  0.00  0.00    -0.167 F 
ENDBRANCH  22  23
ENDBRANCH  21  22
ENDBRANCH   7  21
TORSDOF 6
ENDMDL
MODEL 3
REMARK VINA RESULT:      -8.9      4.121      8.546
REMARK  Name = *****
REMARK                            x       y       z     vdW  Elec       q    Type
REMARK                         _______ _______ _______ _____ _____    ______ ____
ROOT
ATOM      1  C   LIG    1       29.427 -18.097   6.410  0.00  0.00    +0.049 C 
ATOM      2  C   LIG    1       29.739 -19.286   7.276  0.00  0.00    +0.013 A 
ATOM      3  C   LIG    1       28.938 -20.441   7.291  0.00  0.00    +0.060 A 
ATOM      4  N   LIG    1       29.249 -21.515   8.065  0.00  0.00    -0.259 NA
ATOM      5  C   LIG    1       30.352 -21.457   8.836  0.00  0.00    +0.114 A 
ATOM      6  C   LIG    1       31.222 -20.386   8.850  0.00  0.00    +0.065 A 
ATOM      7  C   LIG    1       30.929 -19.300   8.032  0.00  0.00    +0.127 A 
ENDROOT
BRANCH   3   8
ATOM      8  C   LIG    1       27.731 -20.626   6.398  0.00  0.00    +0.167 C 
BRANCH   8   9
ATOM      9  S   LIG    1       26.141 -20.556   7.283  0.00  0.00    +0.095 S 
ATOM     10  O   LIG    1       26.393 -20.467   8.761  0.00  0.00    -0.249 OA
BRANCH   9  11
ATOM     11  C   LIG    1       25.703 -22.220   7.008  0.00  0.00    +0.198 A 
ATOM     12  N   LIG    1       26.618 -23.239   6.894  0.00  0.00    -0.331 N 
ATOM     13  H   LIG    1       27.616 -23.119   6.952  0.00  0.00    +0.168 HD
ATOM     14  C   LIG    1       25.931 -24.391   6.597  0.00  0.00    +0.067 A 
ATOM     15  C   LIG    1       24.594 -24.005   6.607  0.00  0.00    +0.090 A 
ATOM     16  C   LIG    1       23.600 -24.960   6.348  0.00  0.00    +0.030 A 
ATOM     17  C   LIG    1       23.988 -26.274   6.056  0.00  0.00    +0.002 A 
ATOM     18  C   LIG    1       25.337 -26.634   6.042  0.00  0.00    +0.002 A 
ATOM     19  C   LIG    1       26.345 -25.700   6.320  0.00  0.00    +0.028 A 
ATOM     20  N   LIG    1       24.472 -22.655   6.858  0.00  0.00    -0.220 NA
ENDBRANCH   9  11
ENDBRANCH   8   9
ENDBRANCH   3   8
BRANCH   7  21
ATOM     21  O   LIG    1       31.742 -18.198   7.925  0.00  0.00    -0.483 OA
BRANCH  21  22
ATOM     22  C   LIG    1       32.257 -17.665   9.156  0.00  0.00    +0.342 C 
BRANCH  22  23
ATOM     23  C   LIG    1       31.164 -17.001   9.993  0.00  0.00    +0.424 C 
ATOM     24  F   LIG    1       30.158 -16.561   9.199  0.00  0.00    -0.167 F 
ATOM     25  F   LIG    1       31.648 -15.923  10.653  0.00  0.00    -0.167 F 
ATOM     26  F   LIG    1       30.620 -17.829  10.910  0.00  0.00    -0.167 F 
ENDBRANCH  22  23
ENDBRANCH  21  22
ENDBRANCH   7  21
TORSDOF 6
ENDMDL
MODEL 4
REMARK VINA RESULT:      -8.9      2.308      3.004
REMARK  Name = *****
REMARK                            x       y       z     vdW  Elec       q    Type
REMARK                         _______ _______ _______ _____ _____    ______ ____
ROOT
ATOM      1  C   LIG    1       26.295 -21.283   8.828  0.00  0.00    +0.049 C 
ATOM      2  C   LIG    1       26.236 -20.807   7.403  0.00  0.00    +0.013 A 
ATOM      3  C   LIG    1       27.326 -20.194   6.764  0.00  0.00    +0.060 A 
ATOM      4  N   LIG    1       27.259 -19.790   5.468  0.00  0.00    -0.259 NA
ATOM      5  C   LIG    1       26.111 -19.983   4.791  0.00  0.00    +0.114 A 
ATOM      6  C   LIG    1       25.006 -20.617   5.321  0.00  0.00    +0.065 A 
ATOM      7  C   LIG    1       25.083 -21.067   6.634  0.00  0.00    +0.127 A 
ENDROOT
BRANCH   3   8
ATOM      8  C   LIG    1       28.679 -20.015   7.419  0.00  0.00    +0.167 C 
BRANCH   8   9
ATOM      9  S   LIG    1       29.763 -18.831   6.559  0.00  0.00    +0.095 S 
ATOM     10  O   LIG    1       30.878 -19.574   5.880  0.00  0.00    -0.249 OA
BRANCH   9  11
ATOM     11  C   LIG    1       30.486 -18.164   7.997  0.00  0.00    +0.198 A 
ATOM     12  N   LIG    1       29.831 -18.059   9.200  0.00  0.00    -0.331 N 
ATOM     13  H   LIG    1       28.880 -18.349   9.359  0.00  0.00    +0.168 HD
ATOM     14  C   LIG    1       30.666 -17.414  10.079  0.00  0.00    +0.067 A 
ATOM     15  C   LIG    1       31.837 -17.213   9.355  0.00  0.00    +0.090 A 
ATOM     16  C   LIG    1       32.925 -16.576   9.971  0.00  0.00    +0.030 A 
ATOM     17  C   LIG    1       32.788 -16.134  11.293  0.00  0.00    +0.002 A 
ATOM     18  C   LIG    1       31.598 -16.338  11.995  0.00  0.00    +0.002 A 
ATOM     19  C   LIG    1       30.507 -16.992  11.406  0.00  0.00    +0.028 A 
ATOM     20  N   LIG    1       31.706 -17.679   8.065  0.00  0.00    -0.220 NA
ENDBRANCH   9  11
ENDBRANCH   8   9
ENDBRANCH   3   8
BRANCH   7  21
ATOM     21  O   LIG    1       24.067 -21.752   7.255  0.00  0.00    -0.483 OA
BRANCH  21  22
ATOM     22  C   LIG    1       23.473 -22.826   6.508  0.00  0.00    +0.342 C 
BRANCH  22  23
ATOM     23  C   LIG    1       24.381 -24.055   6.454  0.00  0.00    +0.424 C 
ATOM     24  F   LIG    1       25.050 -24.101   5.276  0.00  0.00    -0.167 F 
ATOM     25  F   LIG    1       23.658 -25.195   6.543  0.00  0.00    -0.167 F 
ATOM     26  F   LIG    1       25.303 -24.079   7.441  0.00  0.00    -0.167 F 
ENDBRANCH  22  23
ENDBRANCH  21  22
ENDBRANCH   7  21
TORSDOF 6
ENDMDL
MODEL 5
REMARK VINA RESULT:      -8.9      0.991      1.809
REMARK  Name = *****
REMARK                            x       y       z     vdW  Elec       q    Type
REMARK                         _______ _______ _______ _____ _____    ______ ____
ROOT
ATOM      1  C   LIG    1       25.759 -21.469   8.321  0.00  0.00    +0.049 C 
ATOM      2  C   LIG    1       26.420 -20.763   7.169  0.00  0.00    +0.013 A 
ATOM      3  C   LIG    1       27.730 -20.260   7.240  0.00  0.00    +0.060 A 
ATOM      4  N   LIG    1       28.317 -19.644   6.180  0.00  0.00    -0.259 NA
ATOM      5  C   LIG    1       27.613 -19.514   5.039  0.00  0.00    +0.114 A 
ATOM      6  C   LIG    1       26.340 -20.017   4.862  0.00  0.00    +0.065 A 
ATOM      7  C   LIG    1       25.750 -20.682   5.931  0.00  0.00    +0.127 A 
ENDROOT
BRANCH   3   8
ATOM      8  C   LIG    1       28.622 -20.436   8.450  0.00  0.00    +0.167 C 
BRANCH   8   9
ATOM      9  S   LIG    1       30.386 -20.632   8.042  0.00  0.00    +0.095 S 
ATOM     10  O   LIG    1       30.944 -21.814   8.782  0.00  0.00    -0.249 OA
BRANCH   9  11
ATOM     11  C   LIG    1       30.938 -19.246   8.941  0.00  0.00    +0.198 A 
ATOM     12  N   LIG    1       31.715 -18.248   8.403  0.00  0.00    -0.331 N 
ATOM     13  H   LIG    1       32.040 -18.230   7.450  0.00  0.00    +0.168 HD
ATOM     14  C   LIG    1       32.030 -17.370   9.410  0.00  0.00    +0.067 A 
ATOM     15  C   LIG    1       31.356 -17.866  10.522  0.00  0.00    +0.090 A 
ATOM     16  C   LIG    1       31.455 -17.187  11.745  0.00  0.00    +0.030 A 
ATOM     17  C   LIG    1       32.255 -16.040  11.818  0.00  0.00    +0.002 A 
ATOM     18  C   LIG    1       32.931 -15.568  10.690  0.00  0.00    +0.002 A 
ATOM     19  C   LIG    1       32.829 -16.219   9.453  0.00  0.00    +0.028 A 
ATOM     20  N   LIG    1       30.689 -19.032  10.214  0.00  0.00    -0.220 NA
ENDBRANCH   9  11
ENDBRANCH   8   9
ENDBRANCH   3   8
BRANCH   7  21
ATOM     21  O   LIG    1       24.508 -21.265   5.861  0.00  0.00    -0.483 OA
BRANCH  21  22
ATOM     22  C   LIG    1       23.737 -20.982   4.681  0.00  0.00    +0.342 C 
BRANCH  22  23
ATOM     23  C   LIG    1       22.562 -20.049   4.976  0.00  0.00    +0.424 C 
ATOM     24  F   LIG    1       21.385 -20.694   4.788  0.00  0.00    -0.167 F 
ATOM     25  F   LIG    1       22.569 -18.984   4.140  0.00  0.00    -0.167 F 
ATOM     26  F   LIG    1       22.564 -19.575   6.240  0.00  0.00    -0.167 F 
ENDBRANCH  22  23
ENDBRANCH  21  22
ENDBRANCH   7  21
TORSDOF 6
ENDMDL
MODEL 6
REMARK VINA RESULT:      -8.7      4.418      8.896
REMARK  Name = *****
REMARK                            x       y       z     vdW  Elec       q    Type
REMARK                         _______ _______ _______ _____ _____    ______ ____
ROOT
ATOM      1  C   LIG    1       29.937 -21.481   8.622  0.00  0.00    +0.049 C 
ATOM      2  C   LIG    1       29.509 -20.574   7.502  0.00  0.00    +0.013 A 
ATOM      3  C   LIG    1       28.225 -20.625   6.936  0.00  0.00    +0.060 A 
ATOM      4  N   LIG    1       27.850 -19.781   5.938  0.00  0.00    -0.259 NA
ATOM      5  C   LIG    1       28.744 -18.880   5.485  0.00  0.00    +0.114 A 
ATOM      6  C   LIG    1       30.010 -18.726   6.012  0.00  0.00    +0.065 A 
ATOM      7  C   LIG    1       30.384 -19.561   7.058  0.00  0.00    +0.127 A 
ENDROOT
BRANCH   3   8
ATOM      8  C   LIG    1       27.132 -21.545   7.437  0.00  0.00    +0.167 C 
BRANCH   8   9
ATOM      9  S   LIG    1       25.646 -21.566   6.384  0.00  0.00    +0.095 S 
ATOM     10  O   LIG    1       24.454 -21.138   7.190  0.00  0.00    -0.249 OA
BRANCH   9  11
ATOM     11  C   LIG    1       25.515 -23.301   6.286  0.00  0.00    +0.198 A 
ATOM     12  N   LIG    1       24.669 -23.954   5.422  0.00  0.00    -0.331 N 
ATOM     13  H   LIG    1       24.047 -23.494   4.777  0.00  0.00    +0.168 HD
ATOM     14  C   LIG    1       24.764 -25.300   5.676  0.00  0.00    +0.067 A 
ATOM     15  C   LIG    1       25.736 -25.394   6.667  0.00  0.00    +0.090 A 
ATOM     16  C   LIG    1       26.094 -26.657   7.161  0.00  0.00    +0.030 A 
ATOM     17  C   LIG    1       25.438 -27.789   6.659  0.00  0.00    +0.002 A 
ATOM     18  C   LIG    1       24.458 -27.667   5.671  0.00  0.00    +0.002 A 
ATOM     19  C   LIG    1       24.101 -26.416   5.149  0.00  0.00    +0.028 A 
ATOM     20  N   LIG    1       26.186 -24.146   7.037  0.00  0.00    -0.220 NA
ENDBRANCH   9  11
ENDBRANCH   8   9
ENDBRANCH   3   8
BRANCH   7  21
ATOM     21  O   LIG    1       31.599 -19.472   7.694  0.00  0.00    -0.483 OA
BRANCH  21  22
ATOM     22  C   LIG    1       31.999 -18.159   8.121  0.00  0.00    +0.342 C 
BRANCH  22  23
ATOM     23  C   LIG    1       31.293 -17.737   9.409  0.00  0.00    +0.424 C 
ATOM     24  F   LIG    1       30.970 -18.824  10.152  0.00  0.00    -0.167 F 
ATOM     25  F   LIG    1       30.139 -17.086   9.137  0.00  0.00    -0.167 F 
ATOM     26  F   LIG    1       32.044 -16.928  10.187  0.00  0.00    -0.167 F 
ENDBRANCH  22  23
ENDBRANCH  21  22
ENDBRANCH   7  21
TORSDOF 6
ENDMDL
MODEL 7
REMARK VINA RESULT:      -8.7      2.997      3.522
REMARK  Name = *****
REMARK                            x       y       z     vdW  Elec       q    Type
REMARK                         _______ _______ _______ _____ _____    ______ ____
ROOT
ATOM      1  C   LIG    1       26.083 -22.664   8.099  0.00  0.00    +0.049 C 
ATOM      2  C   LIG    1       25.755 -21.936   6.825  0.00  0.00    +0.013 A 
ATOM      3  C   LIG    1       26.319 -20.691   6.499  0.00  0.00    +0.060 A 
ATOM      4  N   LIG    1       26.026 -20.059   5.331  0.00  0.00    -0.259 NA
ATOM      5  C   LIG    1       25.167 -20.648   4.477  0.00  0.00    +0.114 A 
ATOM      6  C   LIG    1       24.601 -21.888   4.692  0.00  0.00    +0.065 A 
ATOM      7  C   LIG    1       24.928 -22.556   5.866  0.00  0.00    +0.127 A 
ENDROOT
BRANCH   3   8
ATOM      8  C   LIG    1       27.355 -19.998   7.357  0.00  0.00    +0.167 C 
BRANCH   8   9
ATOM      9  S   LIG    1       29.073 -20.321   6.845  0.00  0.00    +0.095 S 
ATOM     10  O   LIG    1       29.506 -21.663   7.360  0.00  0.00    -0.249 OA
BRANCH   9  11
ATOM     11  C   LIG    1       29.807 -19.172   7.929  0.00  0.00    +0.198 A 
ATOM     12  N   LIG    1       30.980 -18.509   7.657  0.00  0.00    -0.331 N 
ATOM     13  H   LIG    1       31.522 -18.631   6.817  0.00  0.00    +0.168 HD
ATOM     14  C   LIG    1       31.304 -17.756   8.758  0.00  0.00    +0.067 A 
ATOM     15  C   LIG    1       30.247 -17.964   9.638  0.00  0.00    +0.090 A 
ATOM     16  C   LIG    1       30.253 -17.319  10.884  0.00  0.00    +0.030 A 
ATOM     17  C   LIG    1       31.343 -16.505  11.218  0.00  0.00    +0.002 A 
ATOM     18  C   LIG    1       32.398 -16.321  10.321  0.00  0.00    +0.002 A 
ATOM     19  C   LIG    1       32.401 -16.939   9.062  0.00  0.00    +0.028 A 
ATOM     20  N   LIG    1       29.331 -18.848   9.111  0.00  0.00    -0.220 NA
ENDBRANCH   9  11
ENDBRANCH   8   9
ENDBRANCH   3   8
BRANCH   7  21
ATOM     21  O   LIG    1       24.466 -23.814   6.170  0.00  0.00    -0.483 OA
BRANCH  21  22
ATOM     22  C   LIG    1       24.875 -24.872   5.288  0.00  0.00    +0.342 C 
BRANCH  22  23
ATOM     23  C   LIG    1       25.393 -26.088   6.056  0.00  0.00    +0.424 C 
ATOM     24  F   LIG    1       26.381 -26.703   5.361  0.00  0.00    -0.167 F 
ATOM     25  F   LIG    1       24.410 -27.000   6.239  0.00  0.00    -0.167 F 
ATOM     26  F   LIG    1       25.891 -25.776   7.272  0.00  0.00    -0.167 F 
ENDBRANCH  22  23
ENDBRANCH  21  22
ENDBRANCH   7  21
TORSDOF 6
ENDMDL
MODEL 8
REMARK VINA RESULT:      -8.3      4.284      8.584
REMARK  Name = *****
REMARK                            x       y       z     vdW  Elec       q    Type
REMARK                         _______ _______ _______ _____ _____    ______ ____
ROOT
ATOM      1  C   LIG    1       26.434 -20.996   8.845  0.00  0.00    +0.049 C 
ATOM      2  C   LIG    1       26.904 -20.528   7.496  0.00  0.00    +0.013 A 
ATOM      3  C   LIG    1       26.036 -20.385   6.401  0.00  0.00    +0.060 A 
ATOM      4  N   LIG    1       26.477 -19.939   5.194  0.00  0.00    -0.259 NA
ATOM      5  C   LIG    1       27.782 -19.635   5.056  0.00  0.00    +0.114 A 
ATOM      6  C   LIG    1       28.697 -19.701   6.087  0.00  0.00    +0.065 A 
ATOM      7  C   LIG    1       28.243 -20.120   7.333  0.00  0.00    +0.127 A 
ENDROOT
BRANCH   3   8
ATOM      8  C   LIG    1       24.543 -20.621   6.487  0.00  0.00    +0.167 C 
BRANCH   8   9
ATOM      9  S   LIG    1       23.842 -21.448   5.024  0.00  0.00    +0.095 S 
ATOM     10  O   LIG    1       22.363 -21.628   5.210  0.00  0.00    -0.249 OA
BRANCH   9  11
ATOM     11  C   LIG    1       24.525 -23.016   5.354  0.00  0.00    +0.198 A 
ATOM     12  N   LIG    1       24.761 -23.964   4.387  0.00  0.00    -0.331 N 
ATOM     13  H   LIG    1       24.557 -23.843   3.408  0.00  0.00    +0.168 HD
ATOM     14  C   LIG    1       25.218 -25.098   5.011  0.00  0.00    +0.067 A 
ATOM     15  C   LIG    1       25.293 -24.744   6.354  0.00  0.00    +0.090 A 
ATOM     16  C   LIG    1       25.744 -25.687   7.290  0.00  0.00    +0.030 A 
ATOM     17  C   LIG    1       26.079 -26.972   6.845  0.00  0.00    +0.002 A 
ATOM     18  C   LIG    1       25.985 -27.306   5.492  0.00  0.00    +0.002 A 
ATOM     19  C   LIG    1       25.558 -26.372   4.538  0.00  0.00    +0.028 A 
ATOM     20  N   LIG    1       24.854 -23.452   6.550  0.00  0.00    -0.220 NA
ENDBRANCH   9  11
ENDBRANCH   8   9
ENDBRANCH   3   8
BRANCH   7  21
ATOM     21  O   LIG    1       29.048 -20.180   8.445  0.00  0.00    -0.483 OA
BRANCH  21  22
ATOM     22  C   LIG    1       30.460 -20.045   8.217  0.00  0.00    +0.342 C 
BRANCH  22  23
ATOM     23  C   LIG    1       30.979 -18.670   8.638  0.00  0.00    +0.424 C 
ATOM     24  F   LIG    1       32.111 -18.361   7.961  0.00  0.00    -0.167 F 
ATOM     25  F   LIG    1       31.288 -18.653   9.956  0.00  0.00    -0.167 F 
ATOM     26  F   LIG    1       30.092 -17.676   8.415  0.00  0.00    -0.167 F 
ENDBRANCH  22  23
ENDBRANCH  21  22
ENDBRANCH   7  21
TORSDOF 6
ENDMDL
MODEL 9
REMARK VINA RESULT:      -8.2      5.277      9.318
REMARK  Name = *****
REMARK                            x       y       z     vdW  Elec       q    Type
REMARK                         _______ _______ _______ _____ _____    ______ ____
ROOT
ATOM      1  C   LIG    1       22.854 -23.447   6.853  0.00  0.00    +0.049 C 
ATOM      2  C   LIG    1       24.147 -22.680   6.829  0.00  0.00    +0.013 A 
ATOM      3  C   LIG    1       25.395 -23.296   7.022  0.00  0.00    +0.060 A 
ATOM      4  N   LIG    1       26.555 -22.588   6.975  0.00  0.00    -0.259 NA
ATOM      5  C   LIG    1       26.493 -21.263   6.741  0.00  0.00    +0.114 A 
ATOM      6  C   LIG    1       25.319 -20.582   6.494  0.00  0.00    +0.065 A 
ATOM      7  C   LIG    1       24.133 -21.308   6.503  0.00  0.00    +0.127 A 
ENDROOT
BRANCH   3   8
ATOM      8  C   LIG    1       25.565 -24.788   7.206  0.00  0.00    +0.167 C 
BRANCH   8   9
ATOM      9  S   LIG    1       25.966 -25.679   5.668  0.00  0.00    +0.095 S 
ATOM     10  O   LIG    1       24.959 -25.332   4.611  0.00  0.00    -0.249 OA
BRANCH   9  11
ATOM     11  C   LIG    1       25.487 -27.254   6.238  0.00  0.00    +0.198 A 
ATOM     12  N   LIG    1       25.857 -27.768   7.458  0.00  0.00    -0.331 N 
ATOM     13  H   LIG    1       26.440 -27.289   8.125  0.00  0.00    +0.168 HD
ATOM     14  C   LIG    1       25.378 -29.052   7.537  0.00  0.00    +0.067 A 
ATOM     15  C   LIG    1       24.671 -29.228   6.351  0.00  0.00    +0.090 A 
ATOM     16  C   LIG    1       24.030 -30.452   6.107  0.00  0.00    +0.030 A 
ATOM     17  C   LIG    1       24.145 -31.475   7.057  0.00  0.00    +0.002 A 
ATOM     18  C   LIG    1       24.869 -31.277   8.235  0.00  0.00    +0.002 A 
ATOM     19  C   LIG    1       25.499 -30.055   8.508  0.00  0.00    +0.028 A 
ATOM     20  N   LIG    1       24.755 -28.106   5.555  0.00  0.00    -0.220 NA
ENDBRANCH   9  11
ENDBRANCH   8   9
ENDBRANCH   3   8
BRANCH   7  21
ATOM     21  O   LIG    1       22.908 -20.752   6.226  0.00  0.00    -0.483 OA
BRANCH  21  22
ATOM     22  C   LIG    1       22.613 -20.522   4.838  0.00  0.00    +0.342 C 
BRANCH  22  23
ATOM     23  C   LIG    1       22.382 -19.040   4.540  0.00  0.00    +0.424 C 
ATOM     24  F   LIG    1       23.408 -18.536   3.813  0.00  0.00    -0.167 F 
ATOM     25  F   LIG    1       22.317 -18.321   5.685  0.00  0.00    -0.167 F 
ATOM     26  F   LIG    1       21.246 -18.807   3.849  0.00  0.00    -0.167 F 
ENDBRANCH  22  23
ENDBRANCH  21  22
ENDBRANCH   7  21
TORSDOF 6
ENDMDL
