MODEL 1
REMARK VINA RESULT:      -8.5      0.000      0.000
REMARK  Name = *****
REMARK                            x       y       z     vdW  Elec       q    Type
REMARK                         _______ _______ _______ _____ _____    ______ ____
ROOT
ATOM      1  C   LIG    1       27.745 -20.374   6.975  0.00  0.00    -0.016 A 
ATOM      2  C   LIG    1       27.566 -19.887   5.666  0.00  0.00    +0.035 A 
ATOM      3  C   LIG    1       28.519 -18.990   5.151  0.00  0.00    +0.023 A 
ATOM      4  C   LIG    1       29.586 -18.526   5.919  0.00  0.00    +0.002 A 
ATOM      5  C   LIG    1       29.744 -18.978   7.220  0.00  0.00    +0.000 A 
ATOM      6  C   LIG    1       28.841 -19.903   7.739  0.00  0.00    +0.006 A 
ENDROOT
BRANCH   2   7
ATOM      7  N   LIG    1       26.620 -20.363   4.737  0.00  0.00    -0.312 N 
ATOM      8  H   LIG    1       26.854 -21.311   4.440  0.00  0.00    +0.152 HD
BRANCH   7   9
ATOM      9  C   LIG    1       25.244 -20.081   4.538  0.00  0.00    +0.068 A 
ATOM     10  C   LIG    1       24.743 -18.889   3.983  0.00  0.00    +0.064 A 
ATOM     11 CL   LIG    1       25.773 -17.659   3.332  0.00  0.00    -0.082 Cl
ATOM     12  C   LIG    1       23.361 -18.679   3.851  0.00  0.00    +0.022 A 
ATOM     13  C   LIG    1       22.451 -19.666   4.231  0.00  0.00    +0.003 A 
ATOM     14  C   LIG    1       22.920 -20.878   4.721  0.00  0.00    +0.022 A 
ATOM     15  C   LIG    1       24.296 -21.081   4.866  0.00  0.00    +0.064 A 
ATOM     16 CL   LIG    1       24.819 -22.619   5.474  0.00  0.00    -0.082 Cl
ENDBRANCH   7   9
ENDBRANCH   2   7
BRANCH   1  17
ATOM     17  C   LIG    1       26.819 -21.361   7.652  0.00  0.00    +0.157 C 
BRANCH  17  19
ATOM     18  O   LIG    1       26.066 -20.330   9.684  0.00  0.00    -0.251 OA
ATOM     19  C   LIG    1       25.775 -20.771   8.585  0.00  0.00    +0.309 C 
BRANCH  19  20
ATOM     20  O   LIG    1       24.502 -20.715   8.122  0.00  0.00    -0.480 OA
ATOM     21  H   LIG    1       23.812 -20.871   8.789  0.00  0.00    +0.295 HD
ENDBRANCH  19  20
ENDBRANCH  17  19
ENDBRANCH   1  17
TORSDOF 5
ENDMDL
MODEL 2
REMARK VINA RESULT:      -8.0      2.467      3.084
REMARK  Name = *****
REMARK                            x       y       z     vdW  Elec       q    Type
REMARK                         _______ _______ _______ _____ _____    ______ ____
ROOT
ATOM      1  C   LIG    1       29.378 -20.486   7.113  0.00  0.00    -0.016 A 
ATOM      2  C   LIG    1       28.233 -20.263   6.326  0.00  0.00    +0.035 A 
ATOM      3  C   LIG    1       28.236 -19.173   5.438  0.00  0.00    +0.023 A 
ATOM      4  C   LIG    1       29.304 -18.280   5.368  0.00  0.00    +0.002 A 
ATOM      5  C   LIG    1       30.418 -18.479   6.169  0.00  0.00    +0.000 A 
ATOM      6  C   LIG    1       30.462 -19.577   7.023  0.00  0.00    +0.006 A 
ENDROOT
BRANCH   2   7
ATOM      7  N   LIG    1       27.144 -21.147   6.195  0.00  0.00    -0.312 N 
ATOM      8  H   LIG    1       27.412 -22.092   6.475  0.00  0.00    +0.152 HD
BRANCH   7   9
ATOM      9  C   LIG    1       25.741 -20.961   6.274  0.00  0.00    +0.068 A 
ATOM     10  C   LIG    1       24.941 -20.445   5.238  0.00  0.00    +0.064 A 
ATOM     11 CL   LIG    1       25.566 -20.107   3.659  0.00  0.00    -0.082 Cl
ATOM     12  C   LIG    1       23.560 -20.263   5.414  0.00  0.00    +0.022 A 
ATOM     13  C   LIG    1       22.940 -20.625   6.609  0.00  0.00    +0.003 A 
ATOM     14  C   LIG    1       23.695 -21.197   7.626  0.00  0.00    +0.022 A 
ATOM     15  C   LIG    1       25.073 -21.364   7.456  0.00  0.00    +0.064 A 
ATOM     16 CL   LIG    1       25.958 -22.093   8.758  0.00  0.00    -0.082 Cl
ENDBRANCH   7   9
ENDBRANCH   2   7
BRANCH   1  17
ATOM     17  C   LIG    1       29.531 -21.631   8.091  0.00  0.00    +0.157 C 
BRANCH  17  19
ATOM     18  O   LIG    1       30.890 -20.892   9.927  0.00  0.00    -0.251 OA
ATOM     19  C   LIG    1       30.785 -21.616   8.951  0.00  0.00    +0.309 C 
BRANCH  19  20
ATOM     20  O   LIG    1       31.772 -22.479   8.609  0.00  0.00    -0.480 OA
ATOM     21  H   LIG    1       32.350 -22.758   9.339  0.00  0.00    +0.295 HD
ENDBRANCH  19  20
ENDBRANCH  17  19
ENDBRANCH   1  17
TORSDOF 5
ENDMDL
MODEL 3
REMARK VINA RESULT:      -7.9      2.516      3.566
REMARK  Name = *****
REMARK                            x       y       z     vdW  Elec       q    Type
REMARK                         _______ _______ _______ _____ _____    ______ ____
ROOT
ATOM      1  C   LIG    1       29.417 -20.598   7.329  0.00  0.00    -0.016 A 
ATOM      2  C   LIG    1       28.342 -20.319   6.464  0.00  0.00    +0.035 A 
ATOM      3  C   LIG    1       28.432 -19.189   5.632  0.00  0.00    +0.023 A 
ATOM      4  C   LIG    1       29.514 -18.313   5.691  0.00  0.00    +0.002 A 
ATOM      5  C   LIG    1       30.557 -18.568   6.569  0.00  0.00    +0.000 A 
ATOM      6  C   LIG    1       30.516 -19.706   7.370  0.00  0.00    +0.006 A 
ENDROOT
BRANCH   2   7
ATOM      7  N   LIG    1       27.256 -21.177   6.204  0.00  0.00    -0.312 N 
ATOM      8  H   LIG    1       27.542 -22.154   6.281  0.00  0.00    +0.152 HD
BRANCH   7   9
ATOM      9  C   LIG    1       25.855 -21.032   6.374  0.00  0.00    +0.068 A 
ATOM     10  C   LIG    1       25.155 -21.346   7.553  0.00  0.00    +0.064 A 
ATOM     11 CL   LIG    1       25.954 -21.819   9.014  0.00  0.00    -0.082 Cl
ATOM     12  C   LIG    1       23.759 -21.201   7.624  0.00  0.00    +0.022 A 
ATOM     13  C   LIG    1       23.039 -20.706   6.539  0.00  0.00    +0.003 A 
ATOM     14  C   LIG    1       23.712 -20.326   5.385  0.00  0.00    +0.022 A 
ATOM     15  C   LIG    1       25.100 -20.485   5.309  0.00  0.00    +0.064 A 
ATOM     16 CL   LIG    1       25.884 -19.983   3.844  0.00  0.00    -0.082 Cl
ENDBRANCH   7   9
ENDBRANCH   2   7
BRANCH   1  17
ATOM     17  C   LIG    1       29.474 -21.790   8.261  0.00  0.00    +0.157 C 
BRANCH  17  19
ATOM     18  O   LIG    1       30.761 -21.807  10.286  0.00  0.00    -0.251 OA
ATOM     19  C   LIG    1       30.748 -21.944   9.075  0.00  0.00    +0.309 C 
BRANCH  19  20
ATOM     20  O   LIG    1       31.871 -22.286   8.396  0.00  0.00    -0.480 OA
ATOM     21  H   LIG    1       32.651 -22.465   8.948  0.00  0.00    +0.295 HD
ENDBRANCH  19  20
ENDBRANCH  17  19
ENDBRANCH   1  17
TORSDOF 5
ENDMDL
MODEL 4
REMARK VINA RESULT:      -7.8      2.006      4.902
REMARK  Name = *****
REMARK                            x       y       z     vdW  Elec       q    Type
REMARK                         _______ _______ _______ _____ _____    ______ ____
ROOT
ATOM      1  C   LIG    1       23.673 -20.640   5.773  0.00  0.00    -0.016 A 
ATOM      2  C   LIG    1       24.826 -20.457   4.986  0.00  0.00    +0.035 A 
ATOM      3  C   LIG    1       24.811 -19.450   4.005  0.00  0.00    +0.023 A 
ATOM      4  C   LIG    1       23.674 -18.684   3.750  0.00  0.00    +0.002 A 
ATOM      5  C   LIG    1       22.526 -18.888   4.501  0.00  0.00    +0.000 A 
ATOM      6  C   LIG    1       22.529 -19.846   5.511  0.00  0.00    +0.006 A 
ENDROOT
BRANCH   2   7
ATOM      7  N   LIG    1       26.079 -21.059   5.215  0.00  0.00    -0.312 N 
ATOM      8  H   LIG    1       26.367 -21.609   4.405  0.00  0.00    +0.152 HD
BRANCH   7   9
ATOM      9  C   LIG    1       27.190 -20.688   6.013  0.00  0.00    +0.068 A 
ATOM     10  C   LIG    1       28.011 -19.571   5.773  0.00  0.00    +0.064 A 
ATOM     11 CL   LIG    1       27.668 -18.411   4.536  0.00  0.00    -0.082 Cl
ATOM     12  C   LIG    1       29.114 -19.295   6.599  0.00  0.00    +0.022 A 
ATOM     13  C   LIG    1       29.399 -20.101   7.700  0.00  0.00    +0.003 A 
ATOM     14  C   LIG    1       28.567 -21.173   7.998  0.00  0.00    +0.022 A 
ATOM     15  C   LIG    1       27.478 -21.456   7.168  0.00  0.00    +0.064 A 
ATOM     16 CL   LIG    1       26.471 -22.802   7.599  0.00  0.00    -0.082 Cl
ENDBRANCH   7   9
ENDBRANCH   2   7
BRANCH   1  17
ATOM     17  C   LIG    1       23.551 -21.663   6.881  0.00  0.00    +0.157 C 
BRANCH  17  19
ATOM     18  O   LIG    1       22.288 -23.704   6.863  0.00  0.00    -0.251 OA
ATOM     19  C   LIG    1       23.256 -23.090   6.448  0.00  0.00    +0.309 C 
BRANCH  19  20
ATOM     20  O   LIG    1       24.100 -23.641   5.542  0.00  0.00    -0.480 OA
ATOM     21  H   LIG    1       24.970 -23.213   5.471  0.00  0.00    +0.295 HD
ENDBRANCH  19  20
ENDBRANCH  17  19
ENDBRANCH   1  17
TORSDOF 5
ENDMDL
MODEL 5
REMARK VINA RESULT:      -7.8      1.991      2.982
REMARK  Name = *****
REMARK                            x       y       z     vdW  Elec       q    Type
REMARK                         _______ _______ _______ _____ _____    ______ ____
ROOT
ATOM      1  C   LIG    1       26.866 -21.767   7.080  0.00  0.00    -0.016 A 
ATOM      2  C   LIG    1       26.684 -20.857   6.022  0.00  0.00    +0.035 A 
ATOM      3  C   LIG    1       27.694 -19.912   5.772  0.00  0.00    +0.023 A 
ATOM      4  C   LIG    1       28.826 -19.812   6.579  0.00  0.00    +0.002 A 
ATOM      5  C   LIG    1       28.990 -20.684   7.644  0.00  0.00    +0.000 A 
ATOM      6  C   LIG    1       28.028 -21.661   7.884  0.00  0.00    +0.006 A 
ENDROOT
BRANCH   2   7
ATOM      7  N   LIG    1       25.665 -20.924   5.051  0.00  0.00    -0.312 N 
ATOM      8  H   LIG    1       25.582 -21.872   4.681  0.00  0.00    +0.152 HD
BRANCH   7   9
ATOM      9  C   LIG    1       24.468 -20.187   4.863  0.00  0.00    +0.068 A 
ATOM     10  C   LIG    1       23.257 -20.442   5.534  0.00  0.00    +0.064 A 
ATOM     11 CL   LIG    1       23.122 -21.615   6.799  0.00  0.00    -0.082 Cl
ATOM     12  C   LIG    1       22.108 -19.681   5.263  0.00  0.00    +0.022 A 
ATOM     13  C   LIG    1       22.150 -18.628   4.349  0.00  0.00    +0.003 A 
ATOM     14  C   LIG    1       23.348 -18.313   3.721  0.00  0.00    +0.022 A 
ATOM     15  C   LIG    1       24.488 -19.081   3.980  0.00  0.00    +0.064 A 
ATOM     16 CL   LIG    1       25.957 -18.631   3.171  0.00  0.00    -0.082 Cl
ENDBRANCH   7   9
ENDBRANCH   2   7
BRANCH   1  17
ATOM     17  C   LIG    1       25.881 -22.854   7.450  0.00  0.00    +0.157 C 
BRANCH  17  19
ATOM     18  O   LIG    1       26.122 -25.152   6.798  0.00  0.00    -0.251 OA
ATOM     19  C   LIG    1       25.779 -24.024   6.485  0.00  0.00    +0.309 C 
BRANCH  19  20
ATOM     20  O   LIG    1       25.247 -23.767   5.265  0.00  0.00    -0.480 OA
ATOM     21  H   LIG    1       25.893 -23.609   4.556  0.00  0.00    +0.295 HD
ENDBRANCH  19  20
ENDBRANCH  17  19
ENDBRANCH   1  17
TORSDOF 5
ENDMDL
MODEL 6
REMARK VINA RESULT:      -7.8      1.970      2.283
REMARK  Name = *****
REMARK                            x       y       z     vdW  Elec       q    Type
REMARK                         _______ _______ _______ _____ _____    ______ ____
ROOT
ATOM      1  C   LIG    1       26.751 -21.777   7.105  0.00  0.00    -0.016 A 
ATOM      2  C   LIG    1       26.531 -20.896   6.029  0.00  0.00    +0.035 A 
ATOM      3  C   LIG    1       27.523 -19.946   5.731  0.00  0.00    +0.023 A 
ATOM      4  C   LIG    1       28.673 -19.812   6.506  0.00  0.00    +0.002 A 
ATOM      5  C   LIG    1       28.875 -20.655   7.588  0.00  0.00    +0.000 A 
ATOM      6  C   LIG    1       27.931 -21.637   7.877  0.00  0.00    +0.006 A 
ENDROOT
BRANCH   2   7
ATOM      7  N   LIG    1       25.489 -21.000   5.086  0.00  0.00    -0.312 N 
ATOM      8  H   LIG    1       25.287 -21.979   4.879  0.00  0.00    +0.152 HD
BRANCH   7   9
ATOM      9  C   LIG    1       24.382 -20.167   4.783  0.00  0.00    +0.068 A 
ATOM     10  C   LIG    1       24.451 -18.992   4.012  0.00  0.00    +0.064 A 
ATOM     11 CL   LIG    1       25.897 -18.492   3.203  0.00  0.00    -0.082 Cl
ATOM     12  C   LIG    1       23.308 -18.207   3.787  0.00  0.00    +0.022 A 
ATOM     13  C   LIG    1       22.068 -18.595   4.293  0.00  0.00    +0.003 A 
ATOM     14  C   LIG    1       21.958 -19.784   5.003  0.00  0.00    +0.022 A 
ATOM     15  C   LIG    1       23.099 -20.557   5.239  0.00  0.00    +0.064 A 
ATOM     16 CL   LIG    1       22.896 -22.036   6.124  0.00  0.00    -0.082 Cl
ENDBRANCH   7   9
ENDBRANCH   2   7
BRANCH   1  17
ATOM     17  C   LIG    1       25.789 -22.866   7.527  0.00  0.00    +0.157 C 
BRANCH  17  19
ATOM     18  O   LIG    1       26.008 -25.221   7.116  0.00  0.00    -0.251 OA
ATOM     19  C   LIG    1       25.768 -24.115   6.661  0.00  0.00    +0.309 C 
BRANCH  19  20
ATOM     20  O   LIG    1       25.427 -23.952   5.359  0.00  0.00    -0.480 OA
ATOM     21  H   LIG    1       26.126 -24.167   4.718  0.00  0.00    +0.295 HD
ENDBRANCH  19  20
ENDBRANCH  17  19
ENDBRANCH   1  17
TORSDOF 5
ENDMDL
MODEL 7
REMARK VINA RESULT:      -7.7      3.383      4.349
REMARK  Name = *****
REMARK                            x       y       z     vdW  Elec       q    Type
REMARK                         _______ _______ _______ _____ _____    ______ ____
ROOT
ATOM      1  C   LIG    1       29.070 -20.978   7.525  0.00  0.00    -0.016 A 
ATOM      2  C   LIG    1       27.806 -21.302   6.996  0.00  0.00    +0.035 A 
ATOM      3  C   LIG    1       27.316 -20.537   5.923  0.00  0.00    +0.023 A 
ATOM      4  C   LIG    1       28.011 -19.439   5.421  0.00  0.00    +0.002 A 
ATOM      5  C   LIG    1       29.240 -19.097   5.964  0.00  0.00    +0.000 A 
ATOM      6  C   LIG    1       29.771 -19.866   6.996  0.00  0.00    +0.006 A 
ENDROOT
BRANCH   2   7
ATOM      7  N   LIG    1       27.057 -22.453   7.311  0.00  0.00    -0.312 N 
ATOM      8  H   LIG    1       27.464 -22.939   8.111  0.00  0.00    +0.152 HD
BRANCH   7   9
ATOM      9  C   LIG    1       25.688 -22.783   7.144  0.00  0.00    +0.068 A 
ATOM     10  C   LIG    1       25.216 -23.994   6.605  0.00  0.00    +0.064 A 
ATOM     11 CL   LIG    1       26.268 -25.310   6.207  0.00  0.00    -0.082 Cl
ATOM     12  C   LIG    1       23.840 -24.225   6.445  0.00  0.00    +0.022 A 
ATOM     13  C   LIG    1       22.906 -23.274   6.855  0.00  0.00    +0.003 A 
ATOM     14  C   LIG    1       23.342 -22.097   7.450  0.00  0.00    +0.022 A 
ATOM     15  C   LIG    1       24.713 -21.861   7.595  0.00  0.00    +0.064 A 
ATOM     16 CL   LIG    1       25.194 -20.377   8.355  0.00  0.00    -0.082 Cl
ENDBRANCH   7   9
ENDBRANCH   2   7
BRANCH   1  17
ATOM     17  C   LIG    1       29.738 -21.726   8.658  0.00  0.00    +0.157 C 
BRANCH  17  19
ATOM     18  O   LIG    1       31.337 -20.226   9.634  0.00  0.00    -0.251 OA
ATOM     19  C   LIG    1       31.138 -21.267   9.032  0.00  0.00    +0.309 C 
BRANCH  19  20
ATOM     20  O   LIG    1       32.161 -22.093   8.701  0.00  0.00    -0.480 OA
ATOM     21  H   LIG    1       32.633 -21.860   7.884  0.00  0.00    +0.295 HD
ENDBRANCH  19  20
ENDBRANCH  17  19
ENDBRANCH   1  17
TORSDOF 5
ENDMDL
MODEL 8
REMARK VINA RESULT:      -7.7      0.120      2.097
REMARK  Name = *****
REMARK                            x       y       z     vdW  Elec       q    Type
REMARK                         _______ _______ _______ _____ _____    ______ ____
ROOT
ATOM      1  C   LIG    1       27.707 -20.316   6.903  0.00  0.00    -0.016 A 
ATOM      2  C   LIG    1       27.561 -19.838   5.587  0.00  0.00    +0.035 A 
ATOM      3  C   LIG    1       28.528 -18.947   5.090  0.00  0.00    +0.023 A 
ATOM      4  C   LIG    1       29.576 -18.479   5.881  0.00  0.00    +0.002 A 
ATOM      5  C   LIG    1       29.700 -18.921   7.189  0.00  0.00    +0.000 A 
ATOM      6  C   LIG    1       28.784 -19.841   7.691  0.00  0.00    +0.006 A 
ENDROOT
BRANCH   2   7
ATOM      7  N   LIG    1       26.638 -20.320   4.638  0.00  0.00    -0.312 N 
ATOM      8  H   LIG    1       26.958 -21.206   4.243  0.00  0.00    +0.152 HD
BRANCH   7   9
ATOM      9  C   LIG    1       25.236 -20.166   4.498  0.00  0.00    +0.068 A 
ATOM     10  C   LIG    1       24.281 -21.118   4.899  0.00  0.00    +0.064 A 
ATOM     11 CL   LIG    1       24.706 -22.559   5.760  0.00  0.00    -0.082 Cl
ATOM     12  C   LIG    1       22.909 -20.897   4.693  0.00  0.00    +0.022 A 
ATOM     13  C   LIG    1       22.458 -19.708   4.121  0.00  0.00    +0.003 A 
ATOM     14  C   LIG    1       23.374 -18.723   3.775  0.00  0.00    +0.022 A 
ATOM     15  C   LIG    1       24.741 -18.950   3.967  0.00  0.00    +0.064 A 
ATOM     16 CL   LIG    1       25.834 -17.677   3.524  0.00  0.00    -0.082 Cl
ENDBRANCH   7   9
ENDBRANCH   2   7
BRANCH   1  17
ATOM     17  C   LIG    1       26.763 -21.298   7.563  0.00  0.00    +0.157 C 
BRANCH  17  19
ATOM     18  O   LIG    1       26.124 -20.334   9.666  0.00  0.00    -0.251 OA
ATOM     19  C   LIG    1       25.776 -20.713   8.560  0.00  0.00    +0.309 C 
BRANCH  19  20
ATOM     20  O   LIG    1       24.491 -20.590   8.149  0.00  0.00    -0.480 OA
ATOM     21  H   LIG    1       24.369 -20.506   7.189  0.00  0.00    +0.295 HD
ENDBRANCH  19  20
ENDBRANCH  17  19
ENDBRANCH   1  17
TORSDOF 5
ENDMDL
MODEL 9
REMARK VINA RESULT:      -7.7      3.134      5.468
REMARK  Name = *****
REMARK                            x       y       z     vdW  Elec       q    Type
REMARK                         _______ _______ _______ _____ _____    ______ ____
ROOT
ATOM      1  C   LIG    1       25.183 -23.155   6.824  0.00  0.00    -0.016 A 
ATOM      2  C   LIG    1       25.909 -21.957   6.965  0.00  0.00    +0.035 A 
ATOM      3  C   LIG    1       25.216 -20.801   7.367  0.00  0.00    +0.023 A 
ATOM      4  C   LIG    1       23.836 -20.797   7.560  0.00  0.00    +0.002 A 
ATOM      5  C   LIG    1       23.115 -21.969   7.386  0.00  0.00    +0.000 A 
ATOM      6  C   LIG    1       23.782 -23.139   7.035  0.00  0.00    +0.006 A 
ENDROOT
BRANCH   2   7
ATOM      7  N   LIG    1       27.312 -21.841   6.933  0.00  0.00    -0.312 N 
ATOM      8  H   LIG    1       27.743 -22.740   6.712  0.00  0.00    +0.152 HD
BRANCH   7   9
ATOM      9  C   LIG    1       28.180 -20.761   6.628  0.00  0.00    +0.068 A 
ATOM     10  C   LIG    1       27.938 -19.797   5.632  0.00  0.00    +0.064 A 
ATOM     11 CL   LIG    1       26.456 -19.728   4.741  0.00  0.00    -0.082 Cl
ATOM     12  C   LIG    1       28.869 -18.777   5.374  0.00  0.00    +0.022 A 
ATOM     13  C   LIG    1       30.038 -18.673   6.126  0.00  0.00    +0.003 A 
ATOM     14  C   LIG    1       30.271 -19.573   7.159  0.00  0.00    +0.022 A 
ATOM     15  C   LIG    1       29.351 -20.597   7.405  0.00  0.00    +0.064 A 
ATOM     16 CL   LIG    1       29.694 -21.682   8.715  0.00  0.00    -0.082 Cl
ENDBRANCH   7   9
ENDBRANCH   2   7
BRANCH   1  17
ATOM     17  C   LIG    1       25.795 -24.481   6.425  0.00  0.00    +0.157 C 
BRANCH  17  19
ATOM     18  O   LIG    1       24.479 -26.377   5.768  0.00  0.00    -0.251 OA
ATOM     19  C   LIG    1       24.995 -25.321   5.444  0.00  0.00    +0.309 C 
BRANCH  19  20
ATOM     20  O   LIG    1       24.842 -24.822   4.193  0.00  0.00    -0.480 OA
ATOM     21  H   LIG    1       23.965 -24.959   3.796  0.00  0.00    +0.295 HD
ENDBRANCH  19  20
ENDBRANCH  17  19
ENDBRANCH   1  17
TORSDOF 5
ENDMDL
