MODEL 1
REMARK VINA RESULT:      42.7      0.000      0.000
REMARK  Name = *****
REMARK                            x       y       z     vdW  Elec       q    Type
REMARK                         _______ _______ _______ _____ _____    ______ ____
ROOT
ATOM      1  O   LIG    1       25.493 -16.979   4.994  0.00  0.00    -0.340 OA
ENDROOT
BRANCH   1   5
ATOM      2  C   LIG    1       25.360 -13.823   6.891  0.00  0.00    +0.283 C 
ATOM      3  C   LIG    1       24.266 -14.306   5.900  0.00  0.00    +0.201 C 
ATOM      4  C   LIG    1       24.887 -14.672   4.541  0.00  0.00    +0.180 C 
ATOM      5  C   LIG    1       26.055 -15.674   4.708  0.00  0.00    +0.192 C 
ATOM      6  C   LIG    1       27.016 -15.211   5.818  0.00  0.00    +0.261 C 
ATOM      7  O   LIG    1       26.382 -14.816   7.041  0.00  0.00    -0.332 OA
BRANCH   6   8
ATOM      8  C   LIG    1       28.146 -14.331   5.324  0.00  0.00    +0.337 C 
ATOM      9  O   LIG    1       28.752 -13.486   5.983  0.00  0.00    -0.248 OA
BRANCH   8  10
ATOM     10  O   LIG    1       28.351 -14.475   3.997  0.00  0.00    -0.479 OA
ATOM     11  H   LIG    1       28.746 -13.657   3.627  0.00  0.00    +0.295 HD
ENDBRANCH   8  10
ENDBRANCH   6   8
BRANCH   4  12
ATOM     12  O   LIG    1       25.351 -13.498   3.875  0.00  0.00    -0.386 OA
ATOM     13  H   LIG    1       25.201 -12.737   4.467  0.00  0.00    +0.210 HD
ENDBRANCH   4  12
BRANCH   3  14
ATOM     14  O   LIG    1       23.565 -15.445   6.440  0.00  0.00    -0.384 OA
ATOM     15  H   LIG    1       24.241 -16.139   6.570  0.00  0.00    +0.210 HD
ENDBRANCH   3  14
BRANCH   2  16
ATOM     16  O   LIG    1       25.899 -12.567   6.509  0.00  0.00    -0.341 OA
BRANCH  16  18
ATOM     17  C   LIG    1       24.025 -12.437   4.809  0.00  0.00    +0.160 C 
ATOM     18  C   LIG    1       25.424 -11.974   5.279  0.00  0.00    +0.177 C 
ATOM     19  C   LIG    1       26.553 -12.197   4.260  0.00  0.00    +0.176 C 
ATOM     20  C   LIG    1       26.108 -11.768   2.860  0.00  0.00    +0.178 C 
ATOM     21  O   LIG    1       24.951 -12.522   2.499  0.00  0.00    -0.341 OA
ATOM     22  C   LIG    1       23.823 -12.186   3.290  0.00  0.00    +0.270 C 
BRANCH  17  25
ATOM     23  C   LIG    1       21.075 -11.453   7.061  0.00  0.00    +0.109 C 
ATOM     24  C   LIG    1       21.963 -12.367   6.254  0.00  0.00    +0.210 C 
ATOM     25  N   LIG    1       22.981 -11.714   5.593  0.00  0.00    -0.305 N 
ATOM     26  H   LIG    1       22.885 -10.714   5.476  0.00  0.00    +0.149 HD
ATOM     27  O   LIG    1       21.847 -13.585   6.286  0.00  0.00    -0.276 OA
ENDBRANCH  17  25
BRANCH  22  28
ATOM     28  O   LIG    1       22.760 -12.976   2.799  0.00  0.00    -0.365 OA
ATOM     29  H   LIG    1       22.155 -12.325   2.402  0.00  0.00    +0.212 HD
ENDBRANCH  22  28
BRANCH  19  30
ATOM     30  O   LIG    1       27.718 -11.448   4.639  0.00  0.00    -0.387 OA
ATOM     31  H   LIG    1       27.683 -11.297   5.607  0.00  0.00    +0.210 HD
ENDBRANCH  19  30
BRANCH  20  32
ATOM     32  C   LIG    1       27.211 -12.011   1.819  0.00  0.00    +0.190 C 
BRANCH  32  33
ATOM     33  O   LIG    1       27.748 -13.328   1.875  0.00  0.00    -0.392 OA
ATOM     34  H   LIG    1       27.794 -13.664   0.954  0.00  0.00    +0.209 HD
ENDBRANCH  32  33
ENDBRANCH  20  32
ENDBRANCH  16  18
ENDBRANCH   2  16
ENDBRANCH   1   5
BRANCH   1  35
ATOM     35  C   LIG    1       26.435 -18.036   5.236  0.00  0.00    +0.274 C 
ATOM     36  C   LIG    1       25.744 -19.398   5.065  0.00  0.00    +0.160 C 
ATOM     37  C   LIG    1       25.592 -19.769   3.581  0.00  0.00    +0.177 C 
ATOM     38  C   LIG    1       26.938 -19.584   2.846  0.00  0.00    +0.176 C 
ATOM     39  C   LIG    1       27.645 -18.241   3.140  0.00  0.00    +0.178 C 
ATOM     40  O   LIG    1       27.668 -17.924   4.537  0.00  0.00    -0.341 OA
BRANCH  36  41
ATOM     41  N   LIG    1       26.375 -20.452   5.865  0.00  0.00    -0.305 N 
ATOM     42  H   LIG    1       25.791 -21.129   6.342  0.00  0.00    +0.149 HD
ATOM     43  C   LIG    1       27.683 -20.317   6.280  0.00  0.00    +0.210 C 
ATOM     44  O   LIG    1       28.377 -19.344   6.010  0.00  0.00    -0.276 OA
ATOM     45  C   LIG    1       28.195 -21.493   7.060  0.00  0.00    +0.109 C 
ENDBRANCH  36  41
BRANCH  38  46
ATOM     46  O   LIG    1       27.808 -20.663   3.265  0.00  0.00    -0.387 OA
ATOM     47  H   LIG    1       28.304 -20.980   2.491  0.00  0.00    +0.210 HD
ENDBRANCH  38  46
BRANCH  39  48
ATOM     48  C   LIG    1       27.211 -17.056   2.270  0.00  0.00    +0.190 C 
BRANCH  48  49
ATOM     49  O   LIG    1       25.856 -16.697   2.510  0.00  0.00    -0.392 OA
ATOM     50  H   LIG    1       25.285 -17.439   2.248  0.00  0.00    +0.209 HD
ENDBRANCH  48  49
ENDBRANCH  39  48
BRANCH  37  51
ATOM     51  O   LIG    1       24.565 -19.017   2.912  0.00  0.00    -0.341 OA
BRANCH  51  52
ATOM     52  C   LIG    1       23.258 -19.616   2.935  0.00  0.00    +0.283 C 
ATOM     53  C   LIG    1       23.052 -20.334   4.283  0.00  0.00    +0.201 C 
ATOM     54  C   LIG    1       21.575 -20.641   4.524  0.00  0.00    +0.179 C 
ATOM     55  C   LIG    1       20.644 -19.454   4.221  0.00  0.00    +0.185 C 
ATOM     56  C   LIG    1       21.374 -18.250   3.615  0.00  0.00    +0.260 C 
ATOM     57  O   LIG    1       22.274 -18.647   2.584  0.00  0.00    -0.332 OA
BRANCH  56  58
ATOM     58  C   LIG    1       21.970 -17.316   4.666  0.00  0.00    +0.337 C 
ATOM     59  O   LIG    1       21.410 -16.975   5.702  0.00  0.00    -0.248 OA
BRANCH  58  60
ATOM     60  O   LIG    1       23.186 -16.839   4.322  0.00  0.00    -0.479 OA
ATOM     61  H   LIG    1       23.905 -17.293   4.812  0.00  0.00    +0.295 HD
ENDBRANCH  58  60
ENDBRANCH  56  58
BRANCH  55  62
ATOM     62  O   LIG    1       19.640 -19.903   3.280  0.00  0.00    -0.386 OA
ATOM     63  H   LIG    1       19.157 -20.653   3.671  0.00  0.00    +0.210 HD
ENDBRANCH  55  62
BRANCH  54  64
ATOM     64  O   LIG    1       21.417 -21.046   5.894  0.00  0.00    -0.386 OA
ATOM     65  H   LIG    1       21.812 -21.936   5.971  0.00  0.00    +0.210 HD
ENDBRANCH  54  64
BRANCH  53  66
ATOM     66  O   LIG    1       23.794 -21.571   4.358  0.00  0.00    -0.384 OA
ATOM     67  H   LIG    1       24.722 -21.392   4.622  0.00  0.00    +0.210 HD
ENDBRANCH  53  66
ENDBRANCH  51  52
ENDBRANCH  37  51
ENDBRANCH   1  35
TORSDOF 24
ENDMDL
MODEL 2
REMARK VINA RESULT:      43.9      1.977      5.118
REMARK  Name = *****
REMARK                            x       y       z     vdW  Elec       q    Type
REMARK                         _______ _______ _______ _____ _____    ______ ____
ROOT
ATOM      1  O   LIG    1       21.921 -16.037   2.989  0.00  0.00    -0.340 OA
ENDROOT
BRANCH   1   5
ATOM      2  C   LIG    1       25.048 -14.188   2.375  0.00  0.00    +0.283 C 
ATOM      3  C   LIG    1       24.972 -15.635   2.933  0.00  0.00    +0.201 C 
ATOM      4  C   LIG    1       24.029 -15.701   4.146  0.00  0.00    +0.180 C 
ATOM      5  C   LIG    1       22.644 -15.092   3.817  0.00  0.00    +0.192 C 
ATOM      6  C   LIG    1       22.800 -13.728   3.120  0.00  0.00    +0.261 C 
ATOM      7  O   LIG    1       23.742 -13.704   2.040  0.00  0.00    -0.332 OA
BRANCH   6   8
ATOM      8  C   LIG    1       22.832 -12.552   4.075  0.00  0.00    +0.337 C 
ATOM      9  O   LIG    1       21.989 -12.286   4.931  0.00  0.00    -0.248 OA
BRANCH   8  10
ATOM     10  O   LIG    1       23.853 -11.711   3.801  0.00  0.00    -0.479 OA
ATOM     11  H   LIG    1       23.709 -10.850   4.249  0.00  0.00    +0.295 HD
ENDBRANCH   8  10
ENDBRANCH   6   8
BRANCH   4  12
ATOM     12  O   LIG    1       24.603 -15.015   5.259  0.00  0.00    -0.386 OA
ATOM     13  H   LIG    1       24.432 -15.546   6.060  0.00  0.00    +0.210 HD
ENDBRANCH   4  12
BRANCH   3  14
ATOM     14  O   LIG    1       24.517 -16.545   1.910  0.00  0.00    -0.384 OA
ATOM     15  H   LIG    1       25.314 -17.013   1.593  0.00  0.00    +0.210 HD
ENDBRANCH   3  14
BRANCH   2  16
ATOM     16  O   LIG    1       25.719 -13.313   3.269  0.00  0.00    -0.341 OA
BRANCH  16  18
ATOM     17  C   LIG    1       27.033 -12.901   5.395  0.00  0.00    +0.160 C 
ATOM     18  C   LIG    1       26.440 -13.901   4.375  0.00  0.00    +0.177 C 
ATOM     19  C   LIG    1       27.467 -14.848   3.730  0.00  0.00    +0.176 C 
ATOM     20  C   LIG    1       28.419 -15.409   4.788  0.00  0.00    +0.178 C 
ATOM     21  O   LIG    1       29.080 -14.319   5.430  0.00  0.00    -0.341 OA
ATOM     22  C   LIG    1       28.190 -13.538   6.211  0.00  0.00    +0.270 C 
BRANCH  17  25
ATOM     23  C   LIG    1       23.835 -11.449   6.947  0.00  0.00    +0.109 C 
ATOM     24  C   LIG    1       24.852 -11.735   5.869  0.00  0.00    +0.210 C 
ATOM     25  N   LIG    1       25.951 -12.437   6.312  0.00  0.00    -0.305 N 
ATOM     26  H   LIG    1       26.116 -12.451   7.310  0.00  0.00    +0.149 HD
ATOM     27  O   LIG    1       24.649 -11.464   4.693  0.00  0.00    -0.276 OA
ENDBRANCH  17  25
BRANCH  22  28
ATOM     28  O   LIG    1       28.983 -12.532   6.807  0.00  0.00    -0.365 OA
ATOM     29  H   LIG    1       29.714 -12.412   6.176  0.00  0.00    +0.212 HD
ENDBRANCH  22  28
BRANCH  19  30
ATOM     30  O   LIG    1       26.793 -15.933   3.073  0.00  0.00    -0.387 OA
ATOM     31  H   LIG    1       27.472 -16.540   2.710  0.00  0.00    +0.210 HD
ENDBRANCH  19  30
BRANCH  20  32
ATOM     32  C   LIG    1       29.473 -16.336   4.161  0.00  0.00    +0.190 C 
BRANCH  32  33
ATOM     33  O   LIG    1       28.961 -17.625   3.843  0.00  0.00    -0.392 OA
ATOM     34  H   LIG    1       29.557 -18.286   4.258  0.00  0.00    +0.209 HD
ENDBRANCH  32  33
ENDBRANCH  20  32
ENDBRANCH  16  18
ENDBRANCH   2  16
ENDBRANCH   1   5
BRANCH   1  35
ATOM     35  C   LIG    1       21.152 -17.031   3.684  0.00  0.00    +0.274 C 
ATOM     36  C   LIG    1       21.732 -18.427   3.406  0.00  0.00    +0.160 C 
ATOM     37  C   LIG    1       22.986 -18.693   4.254  0.00  0.00    +0.177 C 
ATOM     38  C   LIG    1       22.711 -18.345   5.733  0.00  0.00    +0.176 C 
ATOM     39  C   LIG    1       22.026 -16.978   5.950  0.00  0.00    +0.178 C 
ATOM     40  O   LIG    1       20.921 -16.768   5.062  0.00  0.00    -0.341 OA
BRANCH  36  41
ATOM     41  N   LIG    1       20.724 -19.486   3.512  0.00  0.00    -0.305 N 
ATOM     42  H   LIG    1       19.778 -19.303   3.196  0.00  0.00    +0.149 HD
ATOM     43  C   LIG    1       20.930 -20.556   4.357  0.00  0.00    +0.210 C 
ATOM     44  O   LIG    1       21.937 -20.687   5.042  0.00  0.00    -0.276 OA
ATOM     45  C   LIG    1       19.824 -21.571   4.329  0.00  0.00    +0.109 C 
ENDBRANCH  36  41
BRANCH  38  46
ATOM     46  O   LIG    1       21.850 -19.381   6.265  0.00  0.00    -0.387 OA
ATOM     47  H   LIG    1       21.588 -19.971   5.538  0.00  0.00    +0.210 HD
ENDBRANCH  38  46
BRANCH  39  48
ATOM     48  C   LIG    1       22.962 -15.767   6.025  0.00  0.00    +0.190 C 
BRANCH  48  49
ATOM     49  O   LIG    1       22.267 -14.588   6.410  0.00  0.00    -0.392 OA
ATOM     50  H   LIG    1       21.723 -14.786   7.192  0.00  0.00    +0.209 HD
ENDBRANCH  48  49
ENDBRANCH  39  48
BRANCH  37  51
ATOM     51  O   LIG    1       24.144 -17.976   3.793  0.00  0.00    -0.341 OA
BRANCH  51  52
ATOM     52  C   LIG    1       25.361 -18.741   3.760  0.00  0.00    +0.283 C 
ATOM     53  C   LIG    1       26.217 -18.386   4.992  0.00  0.00    +0.201 C 
ATOM     54  C   LIG    1       27.310 -19.429   5.222  0.00  0.00    +0.179 C 
ATOM     55  C   LIG    1       26.807 -20.879   5.120  0.00  0.00    +0.185 C 
ATOM     56  C   LIG    1       25.342 -20.984   4.680  0.00  0.00    +0.260 C 
ATOM     57  O   LIG    1       25.062 -20.121   3.580  0.00  0.00    -0.332 OA
BRANCH  56  58
ATOM     58  C   LIG    1       24.356 -20.884   5.843  0.00  0.00    +0.337 C 
ATOM     59  O   LIG    1       24.569 -20.295   6.897  0.00  0.00    -0.248 OA
BRANCH  58  60
ATOM     60  O   LIG    1       23.212 -21.570   5.627  0.00  0.00    -0.479 OA
ATOM     61  H   LIG    1       23.135 -21.860   4.693  0.00  0.00    +0.295 HD
ENDBRANCH  58  60
ENDBRANCH  56  58
BRANCH  55  62
ATOM     62  O   LIG    1       27.627 -21.571   4.148  0.00  0.00    -0.386 OA
ATOM     63  H   LIG    1       28.141 -20.912   3.647  0.00  0.00    +0.210 HD
ENDBRANCH  55  62
BRANCH  54  64
ATOM     64  O   LIG    1       27.883 -19.203   6.520  0.00  0.00    -0.386 OA
ATOM     65  H   LIG    1       27.200 -19.446   7.175  0.00  0.00    +0.210 HD
ENDBRANCH  54  64
BRANCH  53  66
ATOM     66  O   LIG    1       26.842 -17.090   4.865  0.00  0.00    -0.384 OA
ATOM     67  H   LIG    1       27.584 -17.010   5.503  0.00  0.00    +0.210 HD
ENDBRANCH  53  66
ENDBRANCH  51  52
ENDBRANCH  37  51
ENDBRANCH   1  35
TORSDOF 24
ENDMDL
