MODEL 1
REMARK VINA RESULT:      -6.4      0.000      0.000
REMARK  Name = *****
REMARK                            x       y       z     vdW  Elec       q    Type
REMARK                         _______ _______ _______ _____ _____    ______ ____
ROOT
ATOM      1  N   LIG    1       25.072 -24.496   6.078  0.00  0.00    +0.239 N 
ATOM      2  C   LIG    1       25.802 -25.617   6.854  0.00  0.00    +0.192 C 
ATOM      3  C   LIG    1       24.973 -24.985   4.645  0.00  0.00    +0.192 C 
ENDROOT
BRANCH   1   4
ATOM      4  C   LIG    1       25.839 -23.157   6.196  0.00  0.00    +0.132 C 
BRANCH   4   5
ATOM      5  C   LIG    1       26.367 -22.808   7.599  0.00  0.00    +0.051 C 
BRANCH   5   6
ATOM      6  C   LIG    1       26.611 -21.284   7.697  0.00  0.00    +0.005 C 
BRANCH   6   7
ATOM      7  C   LIG    1       28.094 -20.933   7.893  0.00  0.00    +0.000 C 
BRANCH   7   8
ATOM      8  C   LIG    1       28.876 -20.702   6.585  0.00  0.00    -0.000 C 
BRANCH   8   9
ATOM      9  C   LIG    1       29.559 -19.333   6.473  0.00  0.00    -0.000 C 
BRANCH   9  10
ATOM     10  C   LIG    1       30.997 -19.292   7.027  0.00  0.00    -0.000 C 
BRANCH  10  11
ATOM     11  C   LIG    1       31.098 -19.008   8.532  0.00  0.00    -0.000 C 
BRANCH  11  13
ATOM     12  C   LIG    1       30.366 -17.442  10.389  0.00  0.00    +0.004 C 
ATOM     13  C   LIG    1       30.076 -17.957   8.984  0.00  0.00    -0.003 C 
ENDBRANCH  11  13
ENDBRANCH  10  11
ENDBRANCH   9  10
ENDBRANCH   8   9
ENDBRANCH   7   8
ENDBRANCH   6   7
ENDBRANCH   5   6
ENDBRANCH   4   5
ENDBRANCH   1   4
BRANCH   1  14
ATOM     14  C   LIG    1       23.656 -24.334   6.724  0.00  0.00    +0.132 C 
BRANCH  14  15
ATOM     15  C   LIG    1       22.883 -23.026   6.413  0.00  0.00    +0.051 C 
BRANCH  15  16
ATOM     16  C   LIG    1       22.954 -21.848   7.401  0.00  0.00    +0.005 C 
BRANCH  16  17
ATOM     17  C   LIG    1       23.181 -20.521   6.668  0.00  0.00    +0.000 C 
BRANCH  17  18
ATOM     18  C   LIG    1       22.498 -20.403   5.297  0.00  0.00    -0.000 C 
BRANCH  18  19
ATOM     19  C   LIG    1       23.442 -19.645   4.351  0.00  0.00    -0.000 C 
BRANCH  19  20
ATOM     20  C   LIG    1       24.673 -20.444   3.936  0.00  0.00    -0.003 C 
ATOM     21  C   LIG    1       25.947 -19.764   4.421  0.00  0.00    +0.004 C 
ENDBRANCH  19  20
ENDBRANCH  18  19
ENDBRANCH  17  18
ENDBRANCH  16  17
ENDBRANCH  15  16
ENDBRANCH  14  15
ENDBRANCH   1  14
TORSDOF 16
ENDMDL
MODEL 2
REMARK VINA RESULT:      -6.3      1.624      4.264
REMARK  Name = *****
REMARK                            x       y       z     vdW  Elec       q    Type
REMARK                         _______ _______ _______ _____ _____    ______ ____
ROOT
ATOM      1  N   LIG    1       23.462 -20.783   5.517  0.00  0.00    +0.239 N 
ATOM      2  C   LIG    1       24.211 -21.128   4.209  0.00  0.00    +0.192 C 
ATOM      3  C   LIG    1       22.619 -19.562   5.198  0.00  0.00    +0.192 C 
ENDROOT
BRANCH   1   4
ATOM      4  C   LIG    1       24.459 -20.530   6.672  0.00  0.00    +0.132 C 
BRANCH   4   5
ATOM      5  C   LIG    1       25.951 -20.578   6.292  0.00  0.00    +0.051 C 
BRANCH   5   6
ATOM      6  C   LIG    1       26.800 -20.843   7.557  0.00  0.00    +0.005 C 
BRANCH   6   7
ATOM      7  C   LIG    1       28.124 -21.557   7.244  0.00  0.00    +0.000 C 
BRANCH   7   8
ATOM      8  C   LIG    1       29.373 -20.890   7.854  0.00  0.00    -0.000 C 
BRANCH   8   9
ATOM      9  C   LIG    1       29.750 -19.538   7.237  0.00  0.00    -0.000 C 
BRANCH   9  10
ATOM     10  C   LIG    1       31.241 -19.170   7.373  0.00  0.00    -0.000 C 
BRANCH  10  11
ATOM     11  C   LIG    1       31.576 -18.285   8.582  0.00  0.00    -0.000 C 
BRANCH  11  13
ATOM     12  C   LIG    1       30.444 -17.325  10.639  0.00  0.00    +0.004 C 
ATOM     13  C   LIG    1       30.329 -17.589   9.143  0.00  0.00    -0.003 C 
ENDBRANCH  11  13
ENDBRANCH  10  11
ENDBRANCH   9  10
ENDBRANCH   8   9
ENDBRANCH   7   8
ENDBRANCH   6   7
ENDBRANCH   5   6
ENDBRANCH   4   5
ENDBRANCH   1   4
BRANCH   1  14
ATOM     14  C   LIG    1       22.567 -22.015   5.875  0.00  0.00    +0.132 C 
BRANCH  14  15
ATOM     15  C   LIG    1       23.077 -22.959   6.994  0.00  0.00    +0.051 C 
BRANCH  15  16
ATOM     16  C   LIG    1       23.701 -24.315   6.619  0.00  0.00    +0.005 C 
BRANCH  16  17
ATOM     17  C   LIG    1       25.230 -24.273   6.727  0.00  0.00    +0.000 C 
BRANCH  17  18
ATOM     18  C   LIG    1       25.945 -25.601   6.434  0.00  0.00    -0.000 C 
BRANCH  18  19
ATOM     19  C   LIG    1       24.912 -26.592   5.877  0.00  0.00    -0.000 C 
BRANCH  19  20
ATOM     20  C   LIG    1       24.887 -27.933   6.604  0.00  0.00    -0.003 C 
ATOM     21  C   LIG    1       24.121 -28.971   5.793  0.00  0.00    +0.004 C 
ENDBRANCH  19  20
ENDBRANCH  18  19
ENDBRANCH  17  18
ENDBRANCH  16  17
ENDBRANCH  15  16
ENDBRANCH  14  15
ENDBRANCH   1  14
TORSDOF 16
ENDMDL
MODEL 3
REMARK VINA RESULT:      -6.2      1.914      6.265
REMARK  Name = *****
REMARK                            x       y       z     vdW  Elec       q    Type
REMARK                         _______ _______ _______ _____ _____    ______ ____
ROOT
ATOM      1  N   LIG    1       28.967 -20.113   7.555  0.00  0.00    +0.239 N 
ATOM      2  C   LIG    1       29.854 -21.283   8.039  0.00  0.00    +0.192 C 
ATOM      3  C   LIG    1       29.730 -18.847   7.903  0.00  0.00    +0.192 C 
ENDROOT
BRANCH   1   4
ATOM      4  C   LIG    1       27.573 -20.167   8.224  0.00  0.00    +0.132 C 
BRANCH   4   5
ATOM      5  C   LIG    1       26.886 -21.545   8.231  0.00  0.00    +0.051 C 
BRANCH   5   6
ATOM      6  C   LIG    1       25.399 -21.382   8.619  0.00  0.00    +0.005 C 
BRANCH   6   7
ATOM      7  C   LIG    1       24.444 -21.967   7.568  0.00  0.00    +0.000 C 
BRANCH   7   8
ATOM      8  C   LIG    1       24.828 -23.373   7.065  0.00  0.00    -0.000 C 
BRANCH   8   9
ATOM      9  C   LIG    1       25.038 -23.482   5.550  0.00  0.00    -0.000 C 
BRANCH   9  10
ATOM     10  C   LIG    1       24.820 -24.896   4.976  0.00  0.00    -0.000 C 
BRANCH  10  11
ATOM     11  C   LIG    1       24.249 -25.912   5.975  0.00  0.00    -0.000 C 
BRANCH  11  13
ATOM     12  C   LIG    1       26.227 -27.178   5.016  0.00  0.00    +0.004 C 
ATOM     13  C   LIG    1       25.096 -27.190   6.037  0.00  0.00    -0.003 C 
ENDBRANCH  11  13
ENDBRANCH  10  11
ENDBRANCH   9  10
ENDBRANCH   8   9
ENDBRANCH   7   8
ENDBRANCH   6   7
ENDBRANCH   5   6
ENDBRANCH   4   5
ENDBRANCH   1   4
BRANCH   1  14
ATOM     14  C   LIG    1       28.800 -20.270   6.007  0.00  0.00    +0.132 C 
BRANCH  14  15
ATOM     15  C   LIG    1       27.694 -19.422   5.327  0.00  0.00    +0.051 C 
BRANCH  15  16
ATOM     16  C   LIG    1       26.347 -20.075   4.972  0.00  0.00    +0.005 C 
BRANCH  16  17
ATOM     17  C   LIG    1       25.633 -19.305   3.854  0.00  0.00    +0.000 C 
BRANCH  17  18
ATOM     18  C   LIG    1       24.275 -19.884   3.423  0.00  0.00    -0.000 C 
BRANCH  18  19
ATOM     19  C   LIG    1       23.166 -19.028   4.051  0.00  0.00    -0.000 C 
BRANCH  19  20
ATOM     20  C   LIG    1       22.568 -19.626   5.321  0.00  0.00    -0.003 C 
ATOM     21  C   LIG    1       22.076 -21.045   5.069  0.00  0.00    +0.004 C 
ENDBRANCH  19  20
ENDBRANCH  18  19
ENDBRANCH  17  18
ENDBRANCH  16  17
ENDBRANCH  15  16
ENDBRANCH  14  15
ENDBRANCH   1  14
TORSDOF 16
ENDMDL
MODEL 4
REMARK VINA RESULT:      -6.1      1.449      7.380
REMARK  Name = *****
REMARK                            x       y       z     vdW  Elec       q    Type
REMARK                         _______ _______ _______ _____ _____    ______ ____
ROOT
ATOM      1  N   LIG    1       27.243 -21.041   7.296  0.00  0.00    +0.239 N 
ATOM      2  C   LIG    1       26.350 -20.441   8.407  0.00  0.00    +0.192 C 
ATOM      3  C   LIG    1       26.920 -20.255   6.039  0.00  0.00    +0.192 C 
ENDROOT
BRANCH   1   4
ATOM      4  C   LIG    1       26.973 -22.556   7.133  0.00  0.00    +0.132 C 
BRANCH   4   5
ATOM      5  C   LIG    1       25.592 -23.046   7.608  0.00  0.00    +0.051 C 
BRANCH   5   6
ATOM      6  C   LIG    1       25.133 -24.234   6.731  0.00  0.00    +0.005 C 
BRANCH   6   7
ATOM      7  C   LIG    1       23.616 -24.241   6.490  0.00  0.00    +0.000 C 
BRANCH   7   8
ATOM      8  C   LIG    1       22.876 -22.998   7.022  0.00  0.00    -0.000 C 
BRANCH   8   9
ATOM      9  C   LIG    1       22.512 -21.957   5.956  0.00  0.00    -0.000 C 
BRANCH   9  10
ATOM     10  C   LIG    1       23.168 -20.578   6.161  0.00  0.00    -0.000 C 
BRANCH  10  11
ATOM     11  C   LIG    1       22.987 -19.601   4.992  0.00  0.00    -0.000 C 
BRANCH  11  13
ATOM     12  C   LIG    1       24.766 -18.683   3.431  0.00  0.00    +0.004 C 
ATOM     13  C   LIG    1       23.952 -19.906   3.838  0.00  0.00    -0.003 C 
ENDBRANCH  11  13
ENDBRANCH  10  11
ENDBRANCH   9  10
ENDBRANCH   8   9
ENDBRANCH   7   8
ENDBRANCH   6   7
ENDBRANCH   5   6
ENDBRANCH   4   5
ENDBRANCH   1   4
BRANCH   1  14
ATOM     14  C   LIG    1       28.730 -20.830   7.734  0.00  0.00    +0.132 C 
BRANCH  14  15
ATOM     15  C   LIG    1       29.443 -19.552   7.221  0.00  0.00    +0.051 C 
BRANCH  15  16
ATOM     16  C   LIG    1       30.976 -19.452   7.306  0.00  0.00    +0.005 C 
BRANCH  16  17
ATOM     17  C   LIG    1       31.409 -18.348   8.278  0.00  0.00    +0.000 C 
BRANCH  17  18
ATOM     18  C   LIG    1       30.264 -17.655   9.035  0.00  0.00    -0.000 C 
BRANCH  18  19
ATOM     19  C   LIG    1       30.543 -17.770  10.541  0.00  0.00    -0.000 C 
BRANCH  19  20
ATOM     20  C   LIG    1       31.002 -16.466  11.185  0.00  0.00    -0.003 C 
ATOM     21  C   LIG    1       31.929 -16.743  12.362  0.00  0.00    +0.004 C 
ENDBRANCH  19  20
ENDBRANCH  18  19
ENDBRANCH  17  18
ENDBRANCH  16  17
ENDBRANCH  15  16
ENDBRANCH  14  15
ENDBRANCH   1  14
TORSDOF 16
ENDMDL
MODEL 5
REMARK VINA RESULT:      -6.1      1.773      4.617
REMARK  Name = *****
REMARK                            x       y       z     vdW  Elec       q    Type
REMARK                         _______ _______ _______ _____ _____    ______ ____
ROOT
ATOM      1  N   LIG    1       24.467 -20.994   5.692  0.00  0.00    +0.239 N 
ATOM      2  C   LIG    1       23.930 -20.340   4.398  0.00  0.00    +0.192 C 
ATOM      3  C   LIG    1       23.466 -20.642   6.777  0.00  0.00    +0.192 C 
ENDROOT
BRANCH   1   4
ATOM      4  C   LIG    1       25.893 -20.484   6.013  0.00  0.00    +0.132 C 
BRANCH   4   5
ATOM      5  C   LIG    1       26.345 -20.637   7.478  0.00  0.00    +0.051 C 
BRANCH   5   6
ATOM      6  C   LIG    1       27.812 -20.169   7.619  0.00  0.00    +0.005 C 
BRANCH   6   7
ATOM      7  C   LIG    1       28.442 -19.781   6.274  0.00  0.00    +0.000 C 
BRANCH   7   8
ATOM      8  C   LIG    1       29.610 -18.779   6.378  0.00  0.00    -0.000 C 
BRANCH   8   9
ATOM      9  C   LIG    1       30.915 -19.364   6.931  0.00  0.00    -0.000 C 
BRANCH   9  10
ATOM     10  C   LIG    1       31.407 -18.704   8.234  0.00  0.00    -0.000 C 
BRANCH  10  11
ATOM     11  C   LIG    1       30.431 -17.691   8.848  0.00  0.00    -0.000 C 
BRANCH  11  13
ATOM     12  C   LIG    1       32.290 -16.122   9.571  0.00  0.00    +0.004 C 
ATOM     13  C   LIG    1       31.068 -16.918  10.012  0.00  0.00    -0.003 C 
ENDBRANCH  11  13
ENDBRANCH  10  11
ENDBRANCH   9  10
ENDBRANCH   8   9
ENDBRANCH   7   8
ENDBRANCH   6   7
ENDBRANCH   5   6
ENDBRANCH   4   5
ENDBRANCH   1   4
BRANCH   1  14
ATOM     14  C   LIG    1       24.519 -22.537   5.442  0.00  0.00    +0.132 C 
BRANCH  14  15
ATOM     15  C   LIG    1       23.883 -23.449   6.523  0.00  0.00    +0.051 C 
BRANCH  15  16
ATOM     16  C   LIG    1       24.061 -24.975   6.429  0.00  0.00    +0.005 C 
BRANCH  16  17
ATOM     17  C   LIG    1       25.522 -25.380   6.661  0.00  0.00    +0.000 C 
BRANCH  17  18
ATOM     18  C   LIG    1       25.866 -26.831   6.289  0.00  0.00    -0.000 C 
BRANCH  18  19
ATOM     19  C   LIG    1       24.727 -27.391   5.425  0.00  0.00    -0.000 C 
BRANCH  19  20
ATOM     20  C   LIG    1       24.217 -28.754   5.882  0.00  0.00    -0.003 C 
ATOM     21  C   LIG    1       24.604 -29.017   7.332  0.00  0.00    +0.004 C 
ENDBRANCH  19  20
ENDBRANCH  18  19
ENDBRANCH  17  18
ENDBRANCH  16  17
ENDBRANCH  15  16
ENDBRANCH  14  15
ENDBRANCH   1  14
TORSDOF 16
ENDMDL
MODEL 6
REMARK VINA RESULT:      -6.1      1.438      2.269
REMARK  Name = *****
REMARK                            x       y       z     vdW  Elec       q    Type
REMARK                         _______ _______ _______ _____ _____    ______ ____
ROOT
ATOM      1  N   LIG    1       25.619 -22.183   7.311  0.00  0.00    +0.239 N 
ATOM      2  C   LIG    1       26.357 -22.084   8.665  0.00  0.00    +0.192 C 
ATOM      3  C   LIG    1       25.706 -23.642   6.900  0.00  0.00    +0.192 C 
ENDROOT
BRANCH   1   4
ATOM      4  C   LIG    1       26.256 -21.235   6.267  0.00  0.00    +0.132 C 
BRANCH   4   5
ATOM      5  C   LIG    1       27.415 -20.359   6.777  0.00  0.00    +0.051 C 
BRANCH   5   6
ATOM      6  C   LIG    1       28.074 -19.625   5.586  0.00  0.00    +0.005 C 
BRANCH   6   7
ATOM      7  C   LIG    1       29.388 -18.930   5.972  0.00  0.00    +0.000 C 
BRANCH   7   8
ATOM      8  C   LIG    1       30.254 -19.708   6.982  0.00  0.00    -0.000 C 
BRANCH   8   9
ATOM      9  C   LIG    1       31.451 -18.930   7.541  0.00  0.00    -0.000 C 
BRANCH   9  10
ATOM     10  C   LIG    1       31.401 -18.690   9.063  0.00  0.00    -0.000 C 
BRANCH  10  11
ATOM     11  C   LIG    1       30.158 -17.935   9.553  0.00  0.00    -0.000 C 
BRANCH  11  13
ATOM     12  C   LIG    1       31.971 -16.495  10.590  0.00  0.00    +0.004 C 
ATOM     13  C   LIG    1       30.505 -16.907  10.638  0.00  0.00    -0.003 C 
ENDBRANCH  11  13
ENDBRANCH  10  11
ENDBRANCH   9  10
ENDBRANCH   8   9
ENDBRANCH   7   8
ENDBRANCH   6   7
ENDBRANCH   5   6
ENDBRANCH   4   5
ENDBRANCH   1   4
BRANCH   1  14
ATOM     14  C   LIG    1       24.137 -21.749   7.559  0.00  0.00    +0.132 C 
BRANCH  14  15
ATOM     15  C   LIG    1       23.061 -22.327   6.603  0.00  0.00    +0.051 C 
BRANCH  15  16
ATOM     16  C   LIG    1       22.475 -21.436   5.494  0.00  0.00    +0.005 C 
BRANCH  16  17
ATOM     17  C   LIG    1       23.004 -20.000   5.595  0.00  0.00    +0.000 C 
BRANCH  17  18
ATOM     18  C   LIG    1       22.248 -18.962   4.750  0.00  0.00    -0.000 C 
BRANCH  18  19
ATOM     19  C   LIG    1       23.170 -18.506   3.609  0.00  0.00    -0.000 C 
BRANCH  19  20
ATOM     20  C   LIG    1       24.563 -19.128   3.654  0.00  0.00    -0.003 C 
ATOM     21  C   LIG    1       25.631 -18.080   3.369  0.00  0.00    +0.004 C 
ENDBRANCH  19  20
ENDBRANCH  18  19
ENDBRANCH  17  18
ENDBRANCH  16  17
ENDBRANCH  15  16
ENDBRANCH  14  15
ENDBRANCH   1  14
TORSDOF 16
ENDMDL
MODEL 7
REMARK VINA RESULT:      -6.1      2.075      7.404
REMARK  Name = *****
REMARK                            x       y       z     vdW  Elec       q    Type
REMARK                         _______ _______ _______ _____ _____    ______ ____
ROOT
ATOM      1  N   LIG    1       23.542 -20.900   5.486  0.00  0.00    +0.239 N 
ATOM      2  C   LIG    1       22.646 -19.651   5.320  0.00  0.00    +0.192 C 
ATOM      3  C   LIG    1       24.303 -21.037   4.180  0.00  0.00    +0.192 C 
ENDROOT
BRANCH   1   4
ATOM      4  C   LIG    1       22.689 -22.149   5.808  0.00  0.00    +0.132 C 
BRANCH   4   5
ATOM      5  C   LIG    1       23.126 -22.960   7.042  0.00  0.00    +0.051 C 
BRANCH   5   6
ATOM      6  C   LIG    1       23.833 -24.258   6.587  0.00  0.00    +0.005 C 
BRANCH   6   7
ATOM      7  C   LIG    1       25.339 -24.251   6.893  0.00  0.00    +0.000 C 
BRANCH   7   8
ATOM      8  C   LIG    1       26.125 -25.421   6.270  0.00  0.00    -0.000 C 
BRANCH   8   9
ATOM      9  C   LIG    1       25.459 -26.073   5.052  0.00  0.00    -0.000 C 
BRANCH   9  10
ATOM     10  C   LIG    1       25.366 -27.610   5.123  0.00  0.00    -0.000 C 
BRANCH  10  11
ATOM     11  C   LIG    1       24.240 -28.144   6.020  0.00  0.00    -0.000 C 
BRANCH  11  13
ATOM     12  C   LIG    1       25.397 -30.301   5.354  0.00  0.00    +0.004 C 
ATOM     13  C   LIG    1       24.393 -29.646   6.294  0.00  0.00    -0.003 C 
ENDBRANCH  11  13
ENDBRANCH  10  11
ENDBRANCH   9  10
ENDBRANCH   8   9
ENDBRANCH   7   8
ENDBRANCH   6   7
ENDBRANCH   5   6
ENDBRANCH   4   5
ENDBRANCH   1   4
BRANCH   1  14
ATOM     14  C   LIG    1       24.510 -20.618   6.683  0.00  0.00    +0.132 C 
BRANCH  14  15
ATOM     15  C   LIG    1       26.029 -20.596   6.373  0.00  0.00    +0.051 C 
BRANCH  15  16
ATOM     16  C   LIG    1       27.040 -20.781   7.518  0.00  0.00    +0.005 C 
BRANCH  16  17
ATOM     17  C   LIG    1       28.462 -20.973   6.979  0.00  0.00    +0.000 C 
BRANCH  17  18
ATOM     18  C   LIG    1       29.079 -19.739   6.302  0.00  0.00    -0.000 C 
BRANCH  18  19
ATOM     19  C   LIG    1       30.436 -19.455   6.963  0.00  0.00    -0.000 C 
BRANCH  19  20
ATOM     20  C   LIG    1       30.387 -18.368   8.033  0.00  0.00    -0.003 C 
ATOM     21  C   LIG    1       31.773 -18.122   8.616  0.00  0.00    +0.004 C 
ENDBRANCH  19  20
ENDBRANCH  18  19
ENDBRANCH  17  18
ENDBRANCH  16  17
ENDBRANCH  15  16
ENDBRANCH  14  15
ENDBRANCH   1  14
TORSDOF 16
ENDMDL
MODEL 8
REMARK VINA RESULT:      -6.0      1.818      7.188
REMARK  Name = *****
REMARK                            x       y       z     vdW  Elec       q    Type
REMARK                         _______ _______ _______ _____ _____    ______ ____
ROOT
ATOM      1  N   LIG    1       24.196 -20.137   4.504  0.00  0.00    +0.239 N 
ATOM      2  C   LIG    1       23.596 -18.880   3.834  0.00  0.00    +0.192 C 
ATOM      3  C   LIG    1       23.947 -21.279   3.536  0.00  0.00    +0.192 C 
ENDROOT
BRANCH   1   4
ATOM      4  C   LIG    1       23.550 -20.383   5.889  0.00  0.00    +0.132 C 
BRANCH   4   5
ATOM      5  C   LIG    1       22.765 -21.699   6.039  0.00  0.00    +0.051 C 
BRANCH   5   6
ATOM      6  C   LIG    1       23.453 -22.597   7.093  0.00  0.00    +0.005 C 
BRANCH   6   7
ATOM      7  C   LIG    1       23.844 -23.973   6.534  0.00  0.00    +0.000 C 
BRANCH   7   8
ATOM      8  C   LIG    1       25.363 -24.213   6.424  0.00  0.00    -0.000 C 
BRANCH   8   9
ATOM      9  C   LIG    1       25.832 -25.602   6.874  0.00  0.00    -0.000 C 
BRANCH   9  10
ATOM     10  C   LIG    1       26.445 -26.462   5.751  0.00  0.00    -0.000 C 
BRANCH  10  11
ATOM     11  C   LIG    1       25.477 -27.463   5.107  0.00  0.00    -0.000 C 
BRANCH  11  13
ATOM     12  C   LIG    1       24.538 -29.075   6.828  0.00  0.00    +0.004 C 
ATOM     13  C   LIG    1       24.299 -27.796   6.034  0.00  0.00    -0.003 C 
ENDBRANCH  11  13
ENDBRANCH  10  11
ENDBRANCH   9  10
ENDBRANCH   8   9
ENDBRANCH   7   8
ENDBRANCH   6   7
ENDBRANCH   5   6
ENDBRANCH   4   5
ENDBRANCH   1   4
BRANCH   1  14
ATOM     14  C   LIG    1       25.727 -19.874   4.693  0.00  0.00    +0.132 C 
BRANCH  14  15
ATOM     15  C   LIG    1       26.432 -20.614   5.859  0.00  0.00    +0.051 C 
BRANCH  15  16
ATOM     16  C   LIG    1       27.845 -20.180   6.289  0.00  0.00    +0.005 C 
BRANCH  16  17
ATOM     17  C   LIG    1       28.356 -21.031   7.458  0.00  0.00    +0.000 C 
BRANCH  17  18
ATOM     18  C   LIG    1       29.813 -20.769   7.871  0.00  0.00    -0.000 C 
BRANCH  18  19
ATOM     19  C   LIG    1       30.320 -19.541   7.100  0.00  0.00    -0.000 C 
BRANCH  19  20
ATOM     20  C   LIG    1       30.613 -18.334   7.985  0.00  0.00    -0.003 C 
ATOM     21  C   LIG    1       31.675 -18.671   9.023  0.00  0.00    +0.004 C 
ENDBRANCH  19  20
ENDBRANCH  18  19
ENDBRANCH  17  18
ENDBRANCH  16  17
ENDBRANCH  15  16
ENDBRANCH  14  15
ENDBRANCH   1  14
TORSDOF 16
ENDMDL
MODEL 9
REMARK VINA RESULT:      -5.9      2.071      7.401
REMARK  Name = *****
REMARK                            x       y       z     vdW  Elec       q    Type
REMARK                         _______ _______ _______ _____ _____    ______ ____
ROOT
ATOM      1  N   LIG    1       24.142 -20.971   5.805  0.00  0.00    +0.239 N 
ATOM      2  C   LIG    1       23.642 -20.678   7.239  0.00  0.00    +0.192 C 
ATOM      3  C   LIG    1       23.227 -20.188   4.882  0.00  0.00    +0.192 C 
ENDROOT
BRANCH   1   4
ATOM      4  C   LIG    1       24.117 -22.491   5.515  0.00  0.00    +0.132 C 
BRANCH   4   5
ATOM      5  C   LIG    1       23.426 -23.365   6.578  0.00  0.00    +0.051 C 
BRANCH   5   6
ATOM      6  C   LIG    1       24.029 -24.788   6.552  0.00  0.00    +0.005 C 
BRANCH   6   7
ATOM      7  C   LIG    1       25.557 -24.781   6.390  0.00  0.00    +0.000 C 
BRANCH   7   8
ATOM      8  C   LIG    1       26.204 -26.179   6.346  0.00  0.00    -0.000 C 
BRANCH   8   9
ATOM      9  C   LIG    1       26.005 -26.942   5.030  0.00  0.00    -0.000 C 
BRANCH   9  10
ATOM     10  C   LIG    1       25.371 -28.337   5.193  0.00  0.00    -0.000 C 
BRANCH  10  11
ATOM     11  C   LIG    1       24.222 -28.406   6.208  0.00  0.00    -0.000 C 
BRANCH  11  13
ATOM     12  C   LIG    1       25.436 -29.265   8.265  0.00  0.00    +0.004 C 
ATOM     13  C   LIG    1       24.398 -29.571   7.191  0.00  0.00    -0.003 C 
ENDBRANCH  11  13
ENDBRANCH  10  11
ENDBRANCH   9  10
ENDBRANCH   8   9
ENDBRANCH   7   8
ENDBRANCH   6   7
ENDBRANCH   5   6
ENDBRANCH   4   5
ENDBRANCH   1   4
BRANCH   1  14
ATOM     14  C   LIG    1       25.617 -20.458   5.717  0.00  0.00    +0.132 C 
BRANCH  14  15
ATOM     15  C   LIG    1       26.635 -21.055   6.722  0.00  0.00    +0.051 C 
BRANCH  15  16
ATOM     16  C   LIG    1       27.870 -20.233   7.132  0.00  0.00    +0.005 C 
BRANCH  16  17
ATOM     17  C   LIG    1       28.532 -19.579   5.913  0.00  0.00    +0.000 C 
BRANCH  17  18
ATOM     18  C   LIG    1       29.809 -18.777   6.211  0.00  0.00    -0.000 C 
BRANCH  18  19
ATOM     19  C   LIG    1       29.972 -18.681   7.735  0.00  0.00    -0.000 C 
BRANCH  19  20
ATOM     20  C   LIG    1       31.296 -19.238   8.251  0.00  0.00    -0.003 C 
ATOM     21  C   LIG    1       31.117 -20.657   8.774  0.00  0.00    +0.004 C 
ENDBRANCH  19  20
ENDBRANCH  18  19
ENDBRANCH  17  18
ENDBRANCH  16  17
ENDBRANCH  15  16
ENDBRANCH  14  15
ENDBRANCH   1  14
TORSDOF 16
ENDMDL
