MODEL 1
REMARK VINA RESULT:      -8.5      0.000      0.000
REMARK  Name = *****
REMARK                            x       y       z     vdW  Elec       q    Type
REMARK                         _______ _______ _______ _____ _____    ______ ____
ROOT
ATOM      1  C   LIG    1       24.478 -25.073   5.384  0.00  0.00    +0.085 C 
ENDROOT
BRANCH   1   2
ATOM      2  N   LIG    1       25.631 -25.953   5.132  0.00  0.00    -0.299 NA
ATOM      3  C   LIG    1       26.335 -26.394   6.361  0.00  0.00    +0.103 C 
ATOM      4  C   LIG    1       25.533 -27.381   7.246  0.00  0.00    +0.120 C 
ATOM      5  N   LIG    1       25.200 -28.577   6.439  0.00  0.00    -0.326 N 
ATOM      6  C   LIG    1       24.439 -28.228   5.220  0.00  0.00    +0.120 C 
ATOM      7  C   LIG    1       25.213 -27.171   4.387  0.00  0.00    +0.103 C 
BRANCH   5   8
ATOM      8  C   LIG    1       24.938 -29.775   7.118  0.00  0.00    +0.050 A 
ATOM      9  C   LIG    1       25.248 -31.059   6.581  0.00  0.00    +0.080 A 
ATOM     10 CL   LIG    1       25.937 -31.210   4.985  0.00  0.00    -0.080 Cl
ATOM     11  C   LIG    1       24.923 -32.236   7.289  0.00  0.00    +0.061 A 
ATOM     12 CL   LIG    1       25.288 -33.825   6.698  0.00  0.00    -0.082 Cl
ATOM     13  C   LIG    1       24.268 -32.166   8.518  0.00  0.00    +0.021 A 
ATOM     14  C   LIG    1       23.940 -30.928   9.051  0.00  0.00    +0.003 A 
ATOM     15  C   LIG    1       24.276 -29.757   8.362  0.00  0.00    +0.025 A 
ENDBRANCH   5   8
ENDBRANCH   1   2
BRANCH   1  16
ATOM     16  C   LIG    1       24.874 -23.596   5.539  0.00  0.00    +0.019 C 
BRANCH  16  20
ATOM     17  C   LIG    1       26.488 -20.759   7.323  0.00  0.00    +0.074 C 
ATOM     18  C   LIG    1       26.942 -22.218   7.433  0.00  0.00    +0.022 C 
ATOM     19  C   LIG    1       25.801 -23.142   7.855  0.00  0.00    +0.005 C 
ATOM     20  C   LIG    1       24.571 -23.016   6.938  0.00  0.00    -0.010 C 
ATOM     21  C   LIG    1       24.113 -21.551   6.911  0.00  0.00    +0.005 C 
ATOM     22  C   LIG    1       25.225 -20.604   6.459  0.00  0.00    +0.022 C 
BRANCH  17  26
ATOM     23  C   LIG    1       31.116 -19.148   7.339  0.00  0.00    +0.133 C 
ATOM     24  N   LIG    1       29.771 -19.149   6.785  0.00  0.00    -0.292 N 
ATOM     25  C   LIG    1       28.812 -19.933   7.413  0.00  0.00    +0.302 C 
ATOM     26  N   LIG    1       27.583 -19.953   6.796  0.00  0.00    -0.296 N 
ATOM     27  H   LIG    1       27.318 -19.116   6.316  0.00  0.00    +0.150 HD
ATOM     28  O   LIG    1       29.038 -20.588   8.418  0.00  0.00    -0.253 OA
ATOM     29  C   LIG    1       29.627 -18.522   5.482  0.00  0.00    +0.133 C 
ENDBRANCH  17  26
ENDBRANCH  16  20
ENDBRANCH   1  16
TORSDOF 5
ENDMDL
MODEL 2
REMARK VINA RESULT:      -8.2      4.136      9.771
REMARK  Name = *****
REMARK                            x       y       z     vdW  Elec       q    Type
REMARK                         _______ _______ _______ _____ _____    ______ ____
ROOT
ATOM      1  C   LIG    1       23.959 -23.566   6.082  0.00  0.00    +0.085 C 
ENDROOT
BRANCH   1   2
ATOM      2  N   LIG    1       24.226 -22.723   7.259  0.00  0.00    -0.299 NA
ATOM      3  C   LIG    1       25.561 -22.941   7.868  0.00  0.00    +0.103 C 
ATOM      4  C   LIG    1       26.751 -22.449   7.009  0.00  0.00    +0.120 C 
ATOM      5  N   LIG    1       26.583 -21.001   6.751  0.00  0.00    -0.326 N 
ATOM      6  C   LIG    1       25.297 -20.703   6.085  0.00  0.00    +0.120 C 
ATOM      7  C   LIG    1       24.117 -21.280   6.913  0.00  0.00    +0.103 C 
BRANCH   5   8
ATOM      8  C   LIG    1       27.727 -20.250   6.447  0.00  0.00    +0.050 A 
ATOM      9  C   LIG    1       28.945 -20.352   7.183  0.00  0.00    +0.080 A 
ATOM     10 CL   LIG    1       29.056 -21.403   8.571  0.00  0.00    -0.080 Cl
ATOM     11  C   LIG    1       30.054 -19.541   6.859  0.00  0.00    +0.061 A 
ATOM     12 CL   LIG    1       31.566 -19.629   7.705  0.00  0.00    -0.082 Cl
ATOM     13  C   LIG    1       29.971 -18.604   5.830  0.00  0.00    +0.021 A 
ATOM     14  C   LIG    1       28.791 -18.476   5.113  0.00  0.00    +0.003 A 
ATOM     15  C   LIG    1       27.694 -19.289   5.416  0.00  0.00    +0.025 A 
ENDBRANCH   5   8
ENDBRANCH   1   2
BRANCH   1  16
ATOM     16  C   LIG    1       24.015 -25.069   6.396  0.00  0.00    +0.019 C 
BRANCH  16  20
ATOM     17  C   LIG    1       25.569 -28.412   6.890  0.00  0.00    +0.074 C 
ATOM     18  C   LIG    1       26.219 -27.088   7.306  0.00  0.00    +0.022 C 
ATOM     19  C   LIG    1       26.315 -26.106   6.140  0.00  0.00    +0.005 C 
ATOM     20  C   LIG    1       24.954 -25.863   5.462  0.00  0.00    -0.010 C 
ATOM     21  C   LIG    1       24.374 -27.208   5.004  0.00  0.00    +0.005 C 
ATOM     22  C   LIG    1       24.235 -28.202   6.157  0.00  0.00    +0.022 C 
BRANCH  17  26
ATOM     23  C   LIG    1       25.621 -32.722   9.222  0.00  0.00    +0.133 C 
ATOM     24  N   LIG    1       25.385 -31.286   9.206  0.00  0.00    -0.292 N 
ATOM     25  C   LIG    1       25.552 -30.616   8.001  0.00  0.00    +0.302 C 
ATOM     26  N   LIG    1       25.392 -29.251   8.069  0.00  0.00    -0.296 N 
ATOM     27  H   LIG    1       24.736 -28.919   8.748  0.00  0.00    +0.150 HD
ATOM     28  O   LIG    1       25.852 -31.177   6.960  0.00  0.00    -0.253 OA
ATOM     29  C   LIG    1       25.240 -30.659  10.509  0.00  0.00    +0.133 C 
ENDBRANCH  17  26
ENDBRANCH  16  20
ENDBRANCH   1  16
TORSDOF 5
ENDMDL
MODEL 3
REMARK VINA RESULT:      -8.2      1.192      1.369
REMARK  Name = *****
REMARK                            x       y       z     vdW  Elec       q    Type
REMARK                         _______ _______ _______ _____ _____    ______ ____
ROOT
ATOM      1  C   LIG    1       24.688 -25.187   5.369  0.00  0.00    +0.085 C 
ENDROOT
BRANCH   1   2
ATOM      2  N   LIG    1       25.923 -25.987   5.428  0.00  0.00    -0.299 NA
ATOM      3  C   LIG    1       26.241 -26.508   6.781  0.00  0.00    +0.103 C 
ATOM      4  C   LIG    1       25.278 -27.608   7.292  0.00  0.00    +0.120 C 
ATOM      5  N   LIG    1       25.299 -28.737   6.336  0.00  0.00    -0.326 N 
ATOM      6  C   LIG    1       24.929 -28.312   4.968  0.00  0.00    +0.120 C 
ATOM      7  C   LIG    1       25.845 -27.148   4.502  0.00  0.00    +0.103 C 
BRANCH   5   8
ATOM      8  C   LIG    1       24.926 -30.004   6.807  0.00  0.00    +0.050 A 
ATOM      9  C   LIG    1       25.405 -30.552   8.033  0.00  0.00    +0.080 A 
ATOM     10 CL   LIG    1       26.554 -29.672   9.008  0.00  0.00    -0.080 Cl
ATOM     11  C   LIG    1       25.029 -31.850   8.439  0.00  0.00    +0.061 A 
ATOM     12 CL   LIG    1       25.565 -32.566   9.926  0.00  0.00    -0.082 Cl
ATOM     13  C   LIG    1       24.203 -32.634   7.635  0.00  0.00    +0.021 A 
ATOM     14  C   LIG    1       23.740 -32.128   6.430  0.00  0.00    +0.003 A 
ATOM     15  C   LIG    1       24.093 -30.835   6.030  0.00  0.00    +0.025 A 
ENDBRANCH   5   8
ENDBRANCH   1   2
BRANCH   1  16
ATOM     16  C   LIG    1       24.946 -23.676   5.486  0.00  0.00    +0.019 C 
BRANCH  16  20
ATOM     17  C   LIG    1       26.451 -20.790   7.285  0.00  0.00    +0.074 C 
ATOM     18  C   LIG    1       26.935 -22.238   7.419  0.00  0.00    +0.022 C 
ATOM     19  C   LIG    1       25.804 -23.184   7.820  0.00  0.00    +0.005 C 
ATOM     20  C   LIG    1       24.595 -23.092   6.872  0.00  0.00    -0.010 C 
ATOM     21  C   LIG    1       24.106 -21.639   6.821  0.00  0.00    +0.005 C 
ATOM     22  C   LIG    1       25.207 -20.670   6.390  0.00  0.00    +0.022 C 
BRANCH  17  26
ATOM     23  C   LIG    1       31.017 -19.016   7.448  0.00  0.00    +0.133 C 
ATOM     24  N   LIG    1       29.698 -19.083   6.836  0.00  0.00    -0.292 N 
ATOM     25  C   LIG    1       28.739 -19.880   7.449  0.00  0.00    +0.302 C 
ATOM     26  N   LIG    1       27.541 -19.964   6.779  0.00  0.00    -0.296 N 
ATOM     27  H   LIG    1       27.269 -19.153   6.259  0.00  0.00    +0.150 HD
ATOM     28  O   LIG    1       28.942 -20.492   8.485  0.00  0.00    -0.253 OA
ATOM     29  C   LIG    1       29.592 -18.505   5.506  0.00  0.00    +0.133 C 
ENDBRANCH  17  26
ENDBRANCH  16  20
ENDBRANCH   1  16
TORSDOF 5
ENDMDL
MODEL 4
REMARK VINA RESULT:      -8.1      5.243     11.130
REMARK  Name = *****
REMARK                            x       y       z     vdW  Elec       q    Type
REMARK                         _______ _______ _______ _____ _____    ______ ____
ROOT
ATOM      1  C   LIG    1       28.339 -20.475   7.549  0.00  0.00    +0.085 C 
ENDROOT
BRANCH   1   2
ATOM      2  N   LIG    1       29.655 -20.177   6.959  0.00  0.00    -0.299 NA
ATOM      3  C   LIG    1       29.862 -18.744   6.635  0.00  0.00    +0.103 C 
ATOM      4  C   LIG    1       29.992 -17.816   7.868  0.00  0.00    +0.120 C 
ATOM      5  N   LIG    1       31.131 -18.281   8.692  0.00  0.00    -0.326 N 
ATOM      6  C   LIG    1       30.971 -19.690   9.112  0.00  0.00    +0.120 C 
ATOM      7  C   LIG    1       30.751 -20.599   7.872  0.00  0.00    +0.103 C 
BRANCH   5   8
ATOM      8  C   LIG    1       31.745 -17.355   9.546  0.00  0.00    +0.050 A 
ATOM      9  C   LIG    1       31.658 -17.428  10.968  0.00  0.00    +0.080 A 
ATOM     10 CL   LIG    1       30.710 -18.675  11.735  0.00  0.00    -0.080 Cl
ATOM     11  C   LIG    1       32.262 -16.443  11.779  0.00  0.00    +0.061 A 
ATOM     12 CL   LIG    1       32.205 -16.485  13.513  0.00  0.00    -0.082 Cl
ATOM     13  C   LIG    1       32.934 -15.365  11.206  0.00  0.00    +0.021 A 
ATOM     14  C   LIG    1       33.015 -15.264   9.825  0.00  0.00    +0.003 A 
ATOM     15  C   LIG    1       32.435 -16.246   9.014  0.00  0.00    +0.025 A 
ENDBRANCH   5   8
ENDBRANCH   1   2
BRANCH   1  16
ATOM     16  C   LIG    1       27.175 -20.221   6.578  0.00  0.00    +0.019 C 
BRANCH  16  20
ATOM     17  C   LIG    1       25.180 -23.351   6.819  0.00  0.00    +0.074 C 
ATOM     18  C   LIG    1       25.088 -22.356   5.657  0.00  0.00    +0.022 C 
ATOM     19  C   LIG    1       24.783 -20.939   6.140  0.00  0.00    +0.005 C 
ATOM     20  C   LIG    1       25.783 -20.452   7.204  0.00  0.00    -0.010 C 
ATOM     21  C   LIG    1       25.791 -21.443   8.376  0.00  0.00    +0.005 C 
ATOM     22  C   LIG    1       26.127 -22.866   7.929  0.00  0.00    +0.022 C 
BRANCH  17  26
ATOM     23  C   LIG    1       24.321 -27.977   5.447  0.00  0.00    +0.133 C 
ATOM     24  N   LIG    1       25.230 -26.862   5.665  0.00  0.00    -0.292 N 
ATOM     25  C   LIG    1       24.704 -25.692   6.199  0.00  0.00    +0.302 C 
ATOM     26  N   LIG    1       25.596 -24.651   6.307  0.00  0.00    -0.296 N 
ATOM     27  H   LIG    1       26.549 -24.904   6.480  0.00  0.00    +0.150 HD
ATOM     28  O   LIG    1       23.533 -25.572   6.521  0.00  0.00    -0.253 OA
ATOM     29  C   LIG    1       26.549 -27.000   5.070  0.00  0.00    +0.133 C 
ENDBRANCH  17  26
ENDBRANCH  16  20
ENDBRANCH   1  16
TORSDOF 5
ENDMDL
MODEL 5
REMARK VINA RESULT:      -8.0      1.749      2.198
REMARK  Name = *****
REMARK                            x       y       z     vdW  Elec       q    Type
REMARK                         _______ _______ _______ _____ _____    ______ ____
ROOT
ATOM      1  C   LIG    1       24.258 -23.822   5.851  0.00  0.00    +0.085 C 
ENDROOT
BRANCH   1   2
ATOM      2  N   LIG    1       25.455 -24.583   5.458  0.00  0.00    -0.299 NA
ATOM      3  C   LIG    1       26.181 -25.198   6.596  0.00  0.00    +0.103 C 
ATOM      4  C   LIG    1       25.432 -26.364   7.286  0.00  0.00    +0.120 C 
ATOM      5  N   LIG    1       25.162 -27.415   6.279  0.00  0.00    -0.326 N 
ATOM      6  C   LIG    1       24.383 -26.897   5.134  0.00  0.00    +0.120 C 
ATOM      7  C   LIG    1       25.101 -25.671   4.506  0.00  0.00    +0.103 C 
BRANCH   5   8
ATOM      8  C   LIG    1       24.963 -28.726   6.734  0.00  0.00    +0.050 A 
ATOM      9  C   LIG    1       25.501 -29.216   7.960  0.00  0.00    +0.080 A 
ATOM     10 CL   LIG    1       26.511 -28.198   8.954  0.00  0.00    -0.080 Cl
ATOM     11  C   LIG    1       25.304 -30.558   8.350  0.00  0.00    +0.061 A 
ATOM     12 CL   LIG    1       25.920 -31.210   9.835  0.00  0.00    -0.082 Cl
ATOM     13  C   LIG    1       24.600 -31.439   7.530  0.00  0.00    +0.021 A 
ATOM     14  C   LIG    1       24.083 -30.988   6.324  0.00  0.00    +0.003 A 
ATOM     15  C   LIG    1       24.259 -29.655   5.940  0.00  0.00    +0.025 A 
ENDBRANCH   5   8
ENDBRANCH   1   2
BRANCH   1  16
ATOM     16  C   LIG    1       24.475 -22.973   7.114  0.00  0.00    +0.019 C 
BRANCH  16  20
ATOM     17  C   LIG    1       27.071 -20.325   7.407  0.00  0.00    +0.074 C 
ATOM     18  C   LIG    1       26.145 -20.757   8.550  0.00  0.00    +0.022 C 
ATOM     19  C   LIG    1       24.672 -20.670   8.156  0.00  0.00    +0.005 C 
ATOM     20  C   LIG    1       24.359 -21.453   6.868  0.00  0.00    -0.010 C 
ATOM     21  C   LIG    1       25.263 -20.942   5.738  0.00  0.00    +0.005 C 
ATOM     22  C   LIG    1       26.747 -21.047   6.089  0.00  0.00    +0.022 C 
BRANCH  17  26
ATOM     23  C   LIG    1       31.777 -19.001   7.754  0.00  0.00    +0.133 C 
ATOM     24  N   LIG    1       30.707 -19.965   7.964  0.00  0.00    -0.292 N 
ATOM     25  C   LIG    1       29.439 -19.636   7.501  0.00  0.00    +0.302 C 
ATOM     26  N   LIG    1       28.456 -20.551   7.800  0.00  0.00    -0.296 N 
ATOM     27  H   LIG    1       28.747 -21.508   7.849  0.00  0.00    +0.150 HD
ATOM     28  O   LIG    1       29.193 -18.601   6.903  0.00  0.00    -0.253 OA
ATOM     29  C   LIG    1       31.020 -21.066   8.859  0.00  0.00    +0.133 C 
ENDBRANCH  17  26
ENDBRANCH  16  20
ENDBRANCH   1  16
TORSDOF 5
ENDMDL
MODEL 6
REMARK VINA RESULT:      -7.4      4.510      9.808
REMARK  Name = *****
REMARK                            x       y       z     vdW  Elec       q    Type
REMARK                         _______ _______ _______ _____ _____    ______ ____
ROOT
ATOM      1  C   LIG    1       23.642 -24.639   6.876  0.00  0.00    +0.085 C 
ENDROOT
BRANCH   1   2
ATOM      2  N   LIG    1       23.393 -23.242   6.482  0.00  0.00    -0.299 NA
ATOM      3  C   LIG    1       23.690 -22.253   7.547  0.00  0.00    +0.103 C 
ATOM      4  C   LIG    1       25.194 -22.091   7.878  0.00  0.00    +0.120 C 
ATOM      5  N   LIG    1       25.909 -21.685   6.647  0.00  0.00    -0.326 N 
ATOM      6  C   LIG    1       25.715 -22.657   5.549  0.00  0.00    +0.120 C 
ATOM      7  C   LIG    1       24.200 -22.877   5.287  0.00  0.00    +0.103 C 
BRANCH   5   8
ATOM      8  C   LIG    1       27.130 -21.012   6.787  0.00  0.00    +0.050 A 
ATOM      9  C   LIG    1       27.542 -19.956   5.922  0.00  0.00    +0.080 A 
ATOM     10 CL   LIG    1       26.545 -19.474   4.574  0.00  0.00    -0.080 Cl
ATOM     11  C   LIG    1       28.803 -19.341   6.084  0.00  0.00    +0.061 A 
ATOM     12 CL   LIG    1       29.355 -18.042   5.075  0.00  0.00    -0.082 Cl
ATOM     13  C   LIG    1       29.681 -19.772   7.077  0.00  0.00    +0.021 A 
ATOM     14  C   LIG    1       29.308 -20.810   7.918  0.00  0.00    +0.003 A 
ATOM     15  C   LIG    1       28.053 -21.412   7.776  0.00  0.00    +0.025 A 
ENDBRANCH   5   8
ENDBRANCH   1   2
BRANCH   1  16
ATOM     16  C   LIG    1       24.010 -25.540   5.686  0.00  0.00    +0.019 C 
BRANCH  16  20
ATOM     17  C   LIG    1       25.532 -28.909   6.095  0.00  0.00    +0.074 C 
ATOM     18  C   LIG    1       25.268 -27.936   7.249  0.00  0.00    +0.022 C 
ATOM     19  C   LIG    1       25.913 -26.573   7.006  0.00  0.00    +0.005 C 
ATOM     20  C   LIG    1       25.497 -25.956   5.659  0.00  0.00    -0.010 C 
ATOM     21  C   LIG    1       25.841 -26.936   4.530  0.00  0.00    +0.005 C 
ATOM     22  C   LIG    1       25.182 -28.302   4.727  0.00  0.00    +0.022 C 
BRANCH  17  26
ATOM     23  C   LIG    1       24.958 -33.770   5.840  0.00  0.00    +0.133 C 
ATOM     24  N   LIG    1       24.471 -32.448   6.203  0.00  0.00    -0.292 N 
ATOM     25  C   LIG    1       25.266 -31.354   5.885  0.00  0.00    +0.302 C 
ATOM     26  N   LIG    1       24.789 -30.142   6.326  0.00  0.00    -0.296 N 
ATOM     27  H   LIG    1       23.792 -30.050   6.366  0.00  0.00    +0.150 HD
ATOM     28  O   LIG    1       26.328 -31.450   5.292  0.00  0.00    -0.253 OA
ATOM     29  C   LIG    1       23.316 -32.425   7.085  0.00  0.00    +0.133 C 
ENDBRANCH  17  26
ENDBRANCH  16  20
ENDBRANCH   1  16
TORSDOF 5
ENDMDL
MODEL 7
REMARK VINA RESULT:      -7.3      2.475      4.584
REMARK  Name = *****
REMARK                            x       y       z     vdW  Elec       q    Type
REMARK                         _______ _______ _______ _____ _____    ______ ____
ROOT
ATOM      1  C   LIG    1       25.743 -21.262   6.435  0.00  0.00    +0.085 C 
ENDROOT
BRANCH   1   2
ATOM      2  N   LIG    1       25.188 -22.050   7.548  0.00  0.00    -0.299 NA
ATOM      3  C   LIG    1       23.902 -22.720   7.231  0.00  0.00    +0.103 C 
ATOM      4  C   LIG    1       24.012 -23.881   6.213  0.00  0.00    +0.120 C 
ATOM      5  N   LIG    1       24.950 -24.893   6.748  0.00  0.00    -0.326 N 
ATOM      6  C   LIG    1       26.282 -24.318   7.032  0.00  0.00    +0.120 C 
ATOM      7  C   LIG    1       26.149 -23.099   7.984  0.00  0.00    +0.103 C 
BRANCH   5   8
ATOM      8  C   LIG    1       24.834 -26.209   6.279  0.00  0.00    +0.050 A 
ATOM      9  C   LIG    1       25.343 -27.337   6.988  0.00  0.00    +0.080 A 
ATOM     10 CL   LIG    1       26.209 -27.124   8.488  0.00  0.00    -0.080 Cl
ATOM     11  C   LIG    1       25.236 -28.637   6.449  0.00  0.00    +0.061 A 
ATOM     12 CL   LIG    1       25.820 -30.050   7.269  0.00  0.00    -0.082 Cl
ATOM     13  C   LIG    1       24.653 -28.841   5.199  0.00  0.00    +0.021 A 
ATOM     14  C   LIG    1       24.167 -27.757   4.484  0.00  0.00    +0.003 A 
ATOM     15  C   LIG    1       24.253 -26.467   5.020  0.00  0.00    +0.025 A 
ENDBRANCH   5   8
ENDBRANCH   1   2
BRANCH   1  16
ATOM     16  C   LIG    1       26.877 -20.322   6.874  0.00  0.00    +0.019 C 
BRANCH  16  20
ATOM     17  C   LIG    1       30.346 -19.431   7.877  0.00  0.00    +0.074 C 
ATOM     18  C   LIG    1       29.426 -18.525   7.051  0.00  0.00    +0.022 C 
ATOM     19  C   LIG    1       28.900 -19.231   5.803  0.00  0.00    +0.005 C 
ATOM     20  C   LIG    1       28.208 -20.566   6.130  0.00  0.00    -0.010 C 
ATOM     21  C   LIG    1       29.187 -21.464   6.898  0.00  0.00    +0.005 C 
ATOM     22  C   LIG    1       29.707 -20.797   8.172  0.00  0.00    +0.022 C 
BRANCH  17  26
ATOM     23  C   LIG    1       32.894 -16.121  10.441  0.00  0.00    +0.133 C 
ATOM     24  N   LIG    1       31.919 -17.199  10.368  0.00  0.00    -0.292 N 
ATOM     25  C   LIG    1       31.699 -17.791   9.131  0.00  0.00    +0.302 C 
ATOM     26  N   LIG    1       30.711 -18.747   9.112  0.00  0.00    -0.296 N 
ATOM     27  H   LIG    1       30.592 -19.274   9.955  0.00  0.00    +0.150 HD
ATOM     28  O   LIG    1       32.306 -17.473   8.120  0.00  0.00    -0.253 OA
ATOM     29  C   LIG    1       31.093 -17.380  11.549  0.00  0.00    +0.133 C 
ENDBRANCH  17  26
ENDBRANCH  16  20
ENDBRANCH   1  16
TORSDOF 5
ENDMDL
MODEL 8
REMARK VINA RESULT:      -7.1      4.422      9.923
REMARK  Name = *****
REMARK                            x       y       z     vdW  Elec       q    Type
REMARK                         _______ _______ _______ _____ _____    ______ ____
ROOT
ATOM      1  C   LIG    1       24.097 -24.618   5.478  0.00  0.00    +0.085 C 
ENDROOT
BRANCH   1   2
ATOM      2  N   LIG    1       23.833 -23.540   6.447  0.00  0.00    -0.299 NA
ATOM      3  C   LIG    1       24.752 -23.537   7.612  0.00  0.00    +0.103 C 
ATOM      4  C   LIG    1       26.212 -23.141   7.281  0.00  0.00    +0.120 C 
ATOM      5  N   LIG    1       26.212 -21.789   6.679  0.00  0.00    -0.326 N 
ATOM      6  C   LIG    1       25.364 -21.723   5.468  0.00  0.00    +0.120 C 
ATOM      7  C   LIG    1       23.925 -22.207   5.793  0.00  0.00    +0.103 C 
BRANCH   5   8
ATOM      8  C   LIG    1       27.390 -21.033   6.759  0.00  0.00    +0.050 A 
ATOM      9  C   LIG    1       27.677 -19.942   5.887  0.00  0.00    +0.080 A 
ATOM     10 CL   LIG    1       26.572 -19.518   4.604  0.00  0.00    -0.080 Cl
ATOM     11  C   LIG    1       28.898 -19.242   5.984  0.00  0.00    +0.061 A 
ATOM     12 CL   LIG    1       29.299 -17.898   4.964  0.00  0.00    -0.082 Cl
ATOM     13  C   LIG    1       29.860 -19.620   6.920  0.00  0.00    +0.021 A 
ATOM     14  C   LIG    1       29.609 -20.689   7.767  0.00  0.00    +0.003 A 
ATOM     15  C   LIG    1       28.393 -21.377   7.688  0.00  0.00    +0.025 A 
ENDBRANCH   5   8
ENDBRANCH   1   2
BRANCH   1  16
ATOM     16  C   LIG    1       24.105 -26.013   6.121  0.00  0.00    +0.019 C 
BRANCH  16  20
ATOM     17  C   LIG    1       24.980 -29.486   7.127  0.00  0.00    +0.074 C 
ATOM     18  C   LIG    1       25.479 -28.227   7.845  0.00  0.00    +0.022 C 
ATOM     19  C   LIG    1       26.175 -27.261   6.889  0.00  0.00    +0.005 C 
ATOM     20  C   LIG    1       25.295 -26.893   5.680  0.00  0.00    -0.010 C 
ATOM     21  C   LIG    1       24.875 -28.179   4.955  0.00  0.00    +0.005 C 
ATOM     22  C   LIG    1       24.145 -29.154   5.880  0.00  0.00    +0.022 C 
BRANCH  17  26
ATOM     23  C   LIG    1       24.574 -32.999  10.521  0.00  0.00    +0.133 C 
ATOM     24  N   LIG    1       23.983 -31.982   9.664  0.00  0.00    -0.292 N 
ATOM     25  C   LIG    1       24.821 -31.306   8.787  0.00  0.00    +0.302 C 
ATOM     26  N   LIG    1       24.218 -30.303   8.064  0.00  0.00    -0.296 N 
ATOM     27  H   LIG    1       23.253 -30.444   7.837  0.00  0.00    +0.150 HD
ATOM     28  O   LIG    1       26.012 -31.549   8.680  0.00  0.00    -0.253 OA
ATOM     29  C   LIG    1       22.618 -31.602   9.990  0.00  0.00    +0.133 C 
ENDBRANCH  17  26
ENDBRANCH  16  20
ENDBRANCH   1  16
TORSDOF 5
ENDMDL
MODEL 9
REMARK VINA RESULT:      -7.1      4.374      8.727
REMARK  Name = *****
REMARK                            x       y       z     vdW  Elec       q    Type
REMARK                         _______ _______ _______ _____ _____    ______ ____
ROOT
ATOM      1  C   LIG    1       25.123 -28.689   5.205  0.00  0.00    +0.085 C 
ENDROOT
BRANCH   1   2
ATOM      2  N   LIG    1       26.175 -27.668   5.060  0.00  0.00    -0.299 NA
ATOM      3  C   LIG    1       25.789 -26.522   4.199  0.00  0.00    +0.103 C 
ATOM      4  C   LIG    1       24.707 -25.595   4.804  0.00  0.00    +0.120 C 
ATOM      5  N   LIG    1       25.203 -25.067   6.095  0.00  0.00    -0.326 N 
ATOM      6  C   LIG    1       25.551 -26.151   7.039  0.00  0.00    +0.120 C 
ATOM      7  C   LIG    1       26.570 -27.124   6.387  0.00  0.00    +0.103 C 
BRANCH   5   8
ATOM      8  C   LIG    1       24.655 -23.867   6.568  0.00  0.00    +0.050 A 
ATOM      9  C   LIG    1       25.448 -22.781   7.042  0.00  0.00    +0.080 A 
ATOM     10 CL   LIG    1       27.186 -22.918   7.113  0.00  0.00    -0.080 Cl
ATOM     11  C   LIG    1       24.843 -21.611   7.548  0.00  0.00    +0.061 A 
ATOM     12 CL   LIG    1       25.752 -20.251   8.124  0.00  0.00    -0.082 Cl
ATOM     13  C   LIG    1       23.454 -21.504   7.617  0.00  0.00    +0.021 A 
ATOM     14  C   LIG    1       22.663 -22.555   7.178  0.00  0.00    +0.003 A 
ATOM     15  C   LIG    1       23.256 -23.711   6.659  0.00  0.00    +0.025 A 
ENDBRANCH   5   8
ENDBRANCH   1   2
BRANCH   1  16
ATOM     16  C   LIG    1       25.683 -30.086   5.515  0.00  0.00    +0.019 C 
BRANCH  16  20
ATOM     17  C   LIG    1       25.735 -30.805   9.164  0.00  0.00    +0.074 C 
ATOM     18  C   LIG    1       26.453 -31.651   8.107  0.00  0.00    +0.022 C 
ATOM     19  C   LIG    1       25.501 -32.125   7.011  0.00  0.00    +0.005 C 
ATOM     20  C   LIG    1       24.731 -30.964   6.356  0.00  0.00    -0.010 C 
ATOM     21  C   LIG    1       23.977 -30.186   7.443  0.00  0.00    +0.005 C 
ATOM     22  C   LIG    1       24.908 -29.669   8.539  0.00  0.00    +0.022 C 
BRANCH  17  26
ATOM     23  C   LIG    1       27.130 -29.275  13.606  0.00  0.00    +0.133 C 
ATOM     24  N   LIG    1       27.409 -29.525  12.200  0.00  0.00    -0.292 N 
ATOM     25  C   LIG    1       26.368 -29.987  11.405  0.00  0.00    +0.302 C 
ATOM     26  N   LIG    1       26.715 -30.280  10.107  0.00  0.00    -0.296 N 
ATOM     27  H   LIG    1       27.448 -29.724   9.711  0.00  0.00    +0.150 HD
ATOM     28  O   LIG    1       25.234 -30.157  11.821  0.00  0.00    -0.253 OA
ATOM     29  C   LIG    1       28.813 -29.505  11.825  0.00  0.00    +0.133 C 
ENDBRANCH  17  26
ENDBRANCH  16  20
ENDBRANCH   1  16
TORSDOF 5
ENDMDL
