MODEL 1
REMARK VINA RESULT:      -7.6      0.000      0.000
REMARK  Name = *****
REMARK                            x       y       z     vdW  Elec       q    Type
REMARK                         _______ _______ _______ _____ _____    ______ ____
ROOT
ATOM      1  C   LIG    1       23.932 -21.836   7.360  0.00  0.00    +0.339 C 
ATOM      2  O   LIG    1       24.414 -21.140   8.222  0.00  0.00    -0.245 OA
ENDROOT
BRANCH   1   3
ATOM      3  C   LIG    1       24.324 -23.252   7.101  0.00  0.00    +0.059 A 
ATOM      4  C   LIG    1       23.343 -24.154   6.682  0.00  0.00    +0.017 A 
ATOM      5  C   LIG    1       23.715 -25.446   6.285  0.00  0.00    +0.024 A 
ATOM      6  C   LIG    1       25.057 -25.856   6.303  0.00  0.00    +0.029 A 
ATOM      7  C   LIG    1       26.009 -24.958   6.802  0.00  0.00    +0.024 A 
ATOM      8  C   LIG    1       25.650 -23.669   7.192  0.00  0.00    +0.017 A 
BRANCH   6   9
ATOM      9  N   LIG    1       25.496 -27.081   5.792  0.00  0.00    -0.336 N 
ATOM     10  C   LIG    1       24.419 -28.023   5.493  0.00  0.00    +0.129 C 
ATOM     11  C   LIG    1       26.613 -27.055   4.855  0.00  0.00    +0.129 C 
ENDBRANCH   6   9
ENDBRANCH   1   3
BRANCH   1  12
ATOM     12  O   LIG    1       22.907 -21.511   6.528  0.00  0.00    -0.461 OA
BRANCH  12  13
ATOM     13  C   LIG    1       22.945 -20.196   5.962  0.00  0.00    +0.236 C 
BRANCH  13  14
ATOM     14  C   LIG    1       23.353 -20.251   4.480  0.00  0.00    +0.026 C 
BRANCH  14  15
ATOM     15  C   LIG    1       23.222 -18.832   3.863  0.00  0.00    +0.003 C 
ATOM     16  C   LIG    1       22.169 -17.943   4.511  0.00  0.00    +0.004 C 
ENDBRANCH  14  15
BRANCH  14  17
ATOM     17  C   LIG    1       24.768 -20.837   4.275  0.00  0.00    +0.007 C 
BRANCH  17  18
ATOM     18  C   LIG    1       25.926 -19.878   4.594  0.00  0.00    +0.000 C 
BRANCH  18  20
ATOM     19  C   LIG    1       28.208 -19.820   5.775  0.00  0.00    +0.004 C 
ATOM     20  C   LIG    1       26.764 -20.297   5.812  0.00  0.00    -0.003 C 
ENDBRANCH  18  20
ENDBRANCH  17  18
ENDBRANCH  14  17
ENDBRANCH  13  14
ENDBRANCH  12  13
ENDBRANCH   1  12
TORSDOF 9
ENDMDL
MODEL 2
REMARK VINA RESULT:      -7.6      2.985      5.747
REMARK  Name = *****
REMARK                            x       y       z     vdW  Elec       q    Type
REMARK                         _______ _______ _______ _____ _____    ______ ____
ROOT
ATOM      1  C   LIG    1       26.418 -20.021   4.834  0.00  0.00    +0.339 C 
ATOM      2  O   LIG    1       26.114 -19.066   4.158  0.00  0.00    -0.245 OA
ENDROOT
BRANCH   1   3
ATOM      3  C   LIG    1       27.530 -20.031   5.829  0.00  0.00    +0.059 A 
ATOM      4  C   LIG    1       27.486 -20.955   6.876  0.00  0.00    +0.017 A 
ATOM      5  C   LIG    1       28.590 -21.088   7.729  0.00  0.00    +0.024 A 
ATOM      6  C   LIG    1       29.742 -20.306   7.556  0.00  0.00    +0.029 A 
ATOM      7  C   LIG    1       29.728 -19.332   6.549  0.00  0.00    +0.024 A 
ATOM      8  C   LIG    1       28.639 -19.198   5.690  0.00  0.00    +0.017 A 
BRANCH   6   9
ATOM      9  N   LIG    1       30.918 -20.490   8.291  0.00  0.00    -0.336 N 
ATOM     10  C   LIG    1       31.397 -19.284   8.963  0.00  0.00    +0.129 C 
ATOM     11  C   LIG    1       31.058 -21.741   9.027  0.00  0.00    +0.129 C 
ENDBRANCH   6   9
ENDBRANCH   1   3
BRANCH   1  12
ATOM     12  O   LIG    1       25.779 -21.220   4.887  0.00  0.00    -0.461 OA
BRANCH  12  13
ATOM     13  C   LIG    1       24.349 -21.178   4.816  0.00  0.00    +0.236 C 
BRANCH  13  14
ATOM     14  C   LIG    1       23.755 -20.624   6.122  0.00  0.00    +0.026 C 
BRANCH  14  15
ATOM     15  C   LIG    1       22.458 -19.834   5.796  0.00  0.00    +0.003 C 
ATOM     16  C   LIG    1       22.520 -18.990   4.531  0.00  0.00    +0.004 C 
ENDBRANCH  14  15
BRANCH  14  17
ATOM     17  C   LIG    1       23.504 -21.727   7.175  0.00  0.00    +0.007 C 
BRANCH  17  18
ATOM     18  C   LIG    1       22.781 -22.978   6.654  0.00  0.00    +0.000 C 
BRANCH  18  20
ATOM     19  C   LIG    1       25.119 -24.004   6.947  0.00  0.00    +0.004 C 
ATOM     20  C   LIG    1       23.642 -24.250   6.679  0.00  0.00    -0.003 C 
ENDBRANCH  18  20
ENDBRANCH  17  18
ENDBRANCH  14  17
ENDBRANCH  13  14
ENDBRANCH  12  13
ENDBRANCH   1  12
TORSDOF 9
ENDMDL
MODEL 3
REMARK VINA RESULT:      -7.2      1.718      3.202
REMARK  Name = *****
REMARK                            x       y       z     vdW  Elec       q    Type
REMARK                         _______ _______ _______ _____ _____    ______ ____
ROOT
ATOM      1  C   LIG    1       24.622 -21.768   7.776  0.00  0.00    +0.339 C 
ATOM      2  O   LIG    1       23.709 -21.005   7.563  0.00  0.00    -0.245 OA
ENDROOT
BRANCH   1   3
ATOM      3  C   LIG    1       24.679 -23.175   7.283  0.00  0.00    +0.059 A 
ATOM      4  C   LIG    1       23.505 -23.771   6.816  0.00  0.00    +0.017 A 
ATOM      5  C   LIG    1       23.563 -25.032   6.207  0.00  0.00    +0.024 A 
ATOM      6  C   LIG    1       24.781 -25.714   6.059  0.00  0.00    +0.029 A 
ATOM      7  C   LIG    1       25.929 -25.129   6.607  0.00  0.00    +0.024 A 
ATOM      8  C   LIG    1       25.883 -23.873   7.207  0.00  0.00    +0.017 A 
BRANCH   6   9
ATOM      9  N   LIG    1       24.914 -26.908   5.342  0.00  0.00    -0.336 N 
ATOM     10  C   LIG    1       26.235 -27.101   4.747  0.00  0.00    +0.129 C 
ATOM     11  C   LIG    1       24.271 -28.095   5.891  0.00  0.00    +0.129 C 
ENDBRANCH   6   9
ENDBRANCH   1   3
BRANCH   1  12
ATOM     12  O   LIG    1       25.788 -21.487   8.417  0.00  0.00    -0.461 OA
BRANCH  12  13
ATOM     13  C   LIG    1       26.496 -20.329   7.961  0.00  0.00    +0.236 C 
BRANCH  13  14
ATOM     14  C   LIG    1       27.662 -20.730   7.041  0.00  0.00    +0.026 C 
BRANCH  14  15
ATOM     15  C   LIG    1       27.516 -19.989   5.684  0.00  0.00    +0.003 C 
ATOM     16  C   LIG    1       26.152 -20.120   5.022  0.00  0.00    +0.004 C 
ENDBRANCH  14  15
BRANCH  14  17
ATOM     17  C   LIG    1       29.042 -20.475   7.688  0.00  0.00    +0.007 C 
BRANCH  17  18
ATOM     18  C   LIG    1       29.982 -19.560   6.887  0.00  0.00    +0.000 C 
BRANCH  18  20
ATOM     19  C   LIG    1       30.098 -18.132   9.021  0.00  0.00    +0.004 C 
ATOM     20  C   LIG    1       30.807 -18.601   7.759  0.00  0.00    -0.003 C 
ENDBRANCH  18  20
ENDBRANCH  17  18
ENDBRANCH  14  17
ENDBRANCH  13  14
ENDBRANCH  12  13
ENDBRANCH   1  12
TORSDOF 9
ENDMDL
MODEL 4
REMARK VINA RESULT:      -7.2      1.171      3.548
REMARK  Name = *****
REMARK                            x       y       z     vdW  Elec       q    Type
REMARK                         _______ _______ _______ _____ _____    ______ ____
ROOT
ATOM      1  C   LIG    1       24.588 -22.093   7.876  0.00  0.00    +0.339 C 
ATOM      2  O   LIG    1       23.566 -21.462   8.013  0.00  0.00    -0.245 OA
ENDROOT
BRANCH   1   3
ATOM      3  C   LIG    1       24.691 -23.380   7.129  0.00  0.00    +0.059 A 
ATOM      4  C   LIG    1       25.947 -23.974   6.984  0.00  0.00    +0.017 A 
ATOM      5  C   LIG    1       26.047 -25.255   6.424  0.00  0.00    +0.024 A 
ATOM      6  C   LIG    1       24.907 -25.956   6.000  0.00  0.00    +0.029 A 
ATOM      7  C   LIG    1       23.670 -25.305   6.084  0.00  0.00    +0.024 A 
ATOM      8  C   LIG    1       23.559 -24.035   6.646  0.00  0.00    +0.017 A 
BRANCH   6   9
ATOM      9  N   LIG    1       24.937 -27.284   5.561  0.00  0.00    -0.336 N 
ATOM     10  C   LIG    1       26.131 -27.631   4.794  0.00  0.00    +0.129 C 
ATOM     11  C   LIG    1       24.434 -28.302   6.475  0.00  0.00    +0.129 C 
ENDBRANCH   6   9
ENDBRANCH   1   3
BRANCH   1  12
ATOM     12  O   LIG    1       25.831 -21.731   8.289  0.00  0.00    -0.461 OA
BRANCH  12  13
ATOM     13  C   LIG    1       26.219 -20.379   8.019  0.00  0.00    +0.236 C 
BRANCH  13  14
ATOM     14  C   LIG    1       27.387 -20.335   7.020  0.00  0.00    +0.026 C 
BRANCH  14  15
ATOM     15  C   LIG    1       28.513 -21.285   7.511  0.00  0.00    +0.003 C 
ATOM     16  C   LIG    1       29.827 -20.599   7.859  0.00  0.00    +0.004 C 
ENDBRANCH  14  15
BRANCH  14  17
ATOM     17  C   LIG    1       26.946 -20.669   5.577  0.00  0.00    +0.007 C 
BRANCH  17  18
ATOM     18  C   LIG    1       25.684 -19.938   5.092  0.00  0.00    +0.000 C 
BRANCH  18  20
ATOM     19  C   LIG    1       23.231 -20.600   4.701  0.00  0.00    +0.004 C 
ATOM     20  C   LIG    1       24.691 -20.841   4.344  0.00  0.00    -0.003 C 
ENDBRANCH  18  20
ENDBRANCH  17  18
ENDBRANCH  14  17
ENDBRANCH  13  14
ENDBRANCH  12  13
ENDBRANCH   1  12
TORSDOF 9
ENDMDL
MODEL 5
REMARK VINA RESULT:      -7.1      2.291      4.354
REMARK  Name = *****
REMARK                            x       y       z     vdW  Elec       q    Type
REMARK                         _______ _______ _______ _____ _____    ______ ____
ROOT
ATOM      1  C   LIG    1       25.374 -24.913   5.980  0.00  0.00    +0.339 C 
ATOM      2  O   LIG    1       25.131 -24.375   4.926  0.00  0.00    -0.245 OA
ENDROOT
BRANCH   1   3
ATOM      3  C   LIG    1       25.247 -26.379   6.229  0.00  0.00    +0.059 A 
ATOM      4  C   LIG    1       25.941 -26.941   7.303  0.00  0.00    +0.017 A 
ATOM      5  C   LIG    1       25.715 -28.280   7.649  0.00  0.00    +0.024 A 
ATOM      6  C   LIG    1       24.805 -29.074   6.934  0.00  0.00    +0.029 A 
ATOM      7  C   LIG    1       24.183 -28.509   5.814  0.00  0.00    +0.024 A 
ATOM      8  C   LIG    1       24.395 -27.176   5.466  0.00  0.00    +0.017 A 
BRANCH   6   9
ATOM      9  N   LIG    1       24.444 -30.369   7.318  0.00  0.00    -0.336 N 
ATOM     10  C   LIG    1       25.132 -31.424   6.578  0.00  0.00    +0.129 C 
ATOM     11  C   LIG    1       24.226 -30.611   8.739  0.00  0.00    +0.129 C 
ENDBRANCH   6   9
ENDBRANCH   1   3
BRANCH   1  12
ATOM     12  O   LIG    1       25.877 -24.326   7.099  0.00  0.00    -0.461 OA
BRANCH  12  13
ATOM     13  C   LIG    1       26.130 -22.919   7.015  0.00  0.00    +0.236 C 
BRANCH  13  14
ATOM     14  C   LIG    1       25.181 -22.138   7.940  0.00  0.00    +0.026 C 
BRANCH  14  15
ATOM     15  C   LIG    1       25.777 -20.730   8.207  0.00  0.00    +0.003 C 
ATOM     16  C   LIG    1       27.196 -20.523   7.695  0.00  0.00    +0.004 C 
ENDBRANCH  14  15
BRANCH  14  17
ATOM     17  C   LIG    1       23.742 -22.056   7.382  0.00  0.00    +0.007 C 
BRANCH  17  18
ATOM     18  C   LIG    1       23.293 -20.657   6.933  0.00  0.00    +0.000 C 
BRANCH  18  20
ATOM     19  C   LIG    1       22.459 -19.233   4.963  0.00  0.00    +0.004 C 
ATOM     20  C   LIG    1       23.169 -20.502   5.410  0.00  0.00    -0.003 C 
ENDBRANCH  18  20
ENDBRANCH  17  18
ENDBRANCH  14  17
ENDBRANCH  13  14
ENDBRANCH  12  13
ENDBRANCH   1  12
TORSDOF 9
ENDMDL
MODEL 6
REMARK VINA RESULT:      -7.0      2.113      3.963
REMARK  Name = *****
REMARK                            x       y       z     vdW  Elec       q    Type
REMARK                         _______ _______ _______ _____ _____    ______ ____
ROOT
ATOM      1  C   LIG    1       25.317 -24.410   5.851  0.00  0.00    +0.339 C 
ATOM      2  O   LIG    1       24.915 -23.953   4.807  0.00  0.00    -0.245 OA
ENDROOT
BRANCH   1   3
ATOM      3  C   LIG    1       25.179 -25.840   6.255  0.00  0.00    +0.059 A 
ATOM      4  C   LIG    1       24.273 -26.649   5.565  0.00  0.00    +0.017 A 
ATOM      5  C   LIG    1       24.239 -28.026   5.822  0.00  0.00    +0.024 A 
ATOM      6  C   LIG    1       25.095 -28.612   6.766  0.00  0.00    +0.029 A 
ATOM      7  C   LIG    1       25.937 -27.767   7.501  0.00  0.00    +0.024 A 
ATOM      8  C   LIG    1       25.984 -26.398   7.246  0.00  0.00    +0.017 A 
BRANCH   6   9
ATOM      9  N   LIG    1       25.196 -29.994   6.964  0.00  0.00    -0.336 N 
ATOM     10  C   LIG    1       24.613 -30.460   8.220  0.00  0.00    +0.129 C 
ATOM     11  C   LIG    1       25.004 -30.853   5.803  0.00  0.00    +0.129 C 
ENDBRANCH   6   9
ENDBRANCH   1   3
BRANCH   1  12
ATOM     12  O   LIG    1       26.027 -23.757   6.808  0.00  0.00    -0.461 OA
BRANCH  12  13
ATOM     13  C   LIG    1       26.021 -22.327   6.734  0.00  0.00    +0.236 C 
BRANCH  13  14
ATOM     14  C   LIG    1       25.144 -21.726   7.846  0.00  0.00    +0.026 C 
BRANCH  14  15
ATOM     15  C   LIG    1       25.961 -20.652   8.613  0.00  0.00    +0.003 C 
ATOM     16  C   LIG    1       27.305 -20.299   7.991  0.00  0.00    +0.004 C 
ENDBRANCH  14  15
BRANCH  14  17
ATOM     17  C   LIG    1       23.812 -21.157   7.308  0.00  0.00    +0.007 C 
BRANCH  17  18
ATOM     18  C   LIG    1       23.884 -20.531   5.907  0.00  0.00    +0.000 C 
BRANCH  18  20
ATOM     19  C   LIG    1       22.367 -18.895   4.631  0.00  0.00    +0.004 C 
ATOM     20  C   LIG    1       22.511 -20.268   5.271  0.00  0.00    -0.003 C 
ENDBRANCH  18  20
ENDBRANCH  17  18
ENDBRANCH  14  17
ENDBRANCH  13  14
ENDBRANCH  12  13
ENDBRANCH   1  12
TORSDOF 9
ENDMDL
MODEL 7
REMARK VINA RESULT:      -7.0      2.941      6.330
REMARK  Name = *****
REMARK                            x       y       z     vdW  Elec       q    Type
REMARK                         _______ _______ _______ _____ _____    ______ ____
ROOT
ATOM      1  C   LIG    1       25.861 -20.459   5.473  0.00  0.00    +0.339 C 
ATOM      2  O   LIG    1       25.623 -19.751   4.523  0.00  0.00    -0.245 OA
ENDROOT
BRANCH   1   3
ATOM      3  C   LIG    1       27.168 -20.494   6.193  0.00  0.00    +0.059 A 
ATOM      4  C   LIG    1       28.198 -19.657   5.756  0.00  0.00    +0.017 A 
ATOM      5  C   LIG    1       29.376 -19.559   6.508  0.00  0.00    +0.024 A 
ATOM      6  C   LIG    1       29.547 -20.291   7.693  0.00  0.00    +0.029 A 
ATOM      7  C   LIG    1       28.532 -21.182   8.065  0.00  0.00    +0.024 A 
ATOM      8  C   LIG    1       27.353 -21.280   7.329  0.00  0.00    +0.017 A 
BRANCH   6   9
ATOM      9  N   LIG    1       30.642 -20.129   8.549  0.00  0.00    -0.336 N 
ATOM     10  C   LIG    1       31.281 -21.384   8.942  0.00  0.00    +0.129 C 
ATOM     11  C   LIG    1       31.530 -19.002   8.295  0.00  0.00    +0.129 C 
ENDBRANCH   6   9
ENDBRANCH   1   3
BRANCH   1  12
ATOM     12  O   LIG    1       24.992 -21.283   6.115  0.00  0.00    -0.461 OA
BRANCH  12  13
ATOM     13  C   LIG    1       24.727 -22.539   5.481  0.00  0.00    +0.236 C 
BRANCH  13  14
ATOM     14  C   LIG    1       24.797 -23.691   6.498  0.00  0.00    +0.026 C 
BRANCH  14  15
ATOM     15  C   LIG    1       23.372 -24.265   6.716  0.00  0.00    +0.003 C 
ATOM     16  C   LIG    1       22.256 -23.229   6.736  0.00  0.00    +0.004 C 
ENDBRANCH  14  15
BRANCH  14  17
ATOM     17  C   LIG    1       25.801 -24.790   6.081  0.00  0.00    +0.007 C 
BRANCH  17  18
ATOM     18  C   LIG    1       25.338 -25.697   4.931  0.00  0.00    +0.000 C 
BRANCH  18  20
ATOM     19  C   LIG    1       25.198 -27.675   6.565  0.00  0.00    +0.004 C 
ATOM     20  C   LIG    1       25.591 -27.192   5.177  0.00  0.00    -0.003 C 
ENDBRANCH  18  20
ENDBRANCH  17  18
ENDBRANCH  14  17
ENDBRANCH  13  14
ENDBRANCH  12  13
ENDBRANCH   1  12
TORSDOF 9
ENDMDL
MODEL 8
REMARK VINA RESULT:      -7.0      3.842      6.330
REMARK  Name = *****
REMARK                            x       y       z     vdW  Elec       q    Type
REMARK                         _______ _______ _______ _____ _____    ______ ____
ROOT
ATOM      1  C   LIG    1       27.144 -21.239   8.178  0.00  0.00    +0.339 C 
ATOM      2  O   LIG    1       27.111 -22.189   8.925  0.00  0.00    -0.245 OA
ENDROOT
BRANCH   1   3
ATOM      3  C   LIG    1       26.010 -20.811   7.308  0.00  0.00    +0.059 A 
ATOM      4  C   LIG    1       26.277 -20.451   5.985  0.00  0.00    +0.017 A 
ATOM      5  C   LIG    1       25.214 -20.196   5.109  0.00  0.00    +0.024 A 
ATOM      6  C   LIG    1       23.880 -20.290   5.534  0.00  0.00    +0.029 A 
ATOM      7  C   LIG    1       23.643 -20.574   6.885  0.00  0.00    +0.024 A 
ATOM      8  C   LIG    1       24.693 -20.837   7.763  0.00  0.00    +0.017 A 
BRANCH   6   9
ATOM      9  N   LIG    1       22.785 -20.178   4.671  0.00  0.00    -0.336 N 
ATOM     10  C   LIG    1       21.780 -21.225   4.845  0.00  0.00    +0.129 C 
ATOM     11  C   LIG    1       22.283 -18.838   4.396  0.00  0.00    +0.129 C 
ENDBRANCH   6   9
ENDBRANCH   1   3
BRANCH   1  12
ATOM     12  O   LIG    1       28.158 -20.344   8.041  0.00  0.00    -0.461 OA
BRANCH  12  13
ATOM     13  C   LIG    1       29.447 -20.890   7.739  0.00  0.00    +0.236 C 
BRANCH  13  14
ATOM     14  C   LIG    1       30.474 -19.769   7.509  0.00  0.00    +0.026 C 
BRANCH  14  15
ATOM     15  C   LIG    1       29.738 -18.500   7.002  0.00  0.00    +0.003 C 
ATOM     16  C   LIG    1       29.393 -18.506   5.519  0.00  0.00    +0.004 C 
ENDBRANCH  14  15
BRANCH  14  17
ATOM     17  C   LIG    1       31.322 -19.475   8.768  0.00  0.00    +0.007 C 
BRANCH  17  18
ATOM     18  C   LIG    1       31.886 -18.048   8.859  0.00  0.00    +0.000 C 
BRANCH  18  20
ATOM     19  C   LIG    1       30.393 -17.398  10.847  0.00  0.00    +0.004 C 
ATOM     20  C   LIG    1       31.798 -17.434  10.264  0.00  0.00    -0.003 C 
ENDBRANCH  18  20
ENDBRANCH  17  18
ENDBRANCH  14  17
ENDBRANCH  13  14
ENDBRANCH  12  13
ENDBRANCH   1  12
TORSDOF 9
ENDMDL
MODEL 9
REMARK VINA RESULT:      -7.0      3.141      5.881
REMARK  Name = *****
REMARK                            x       y       z     vdW  Elec       q    Type
REMARK                         _______ _______ _______ _____ _____    ______ ____
ROOT
ATOM      1  C   LIG    1       25.968 -20.152   4.778  0.00  0.00    +0.339 C 
ATOM      2  O   LIG    1       25.719 -19.362   3.898  0.00  0.00    -0.245 OA
ENDROOT
BRANCH   1   3
ATOM      3  C   LIG    1       27.060 -19.984   5.780  0.00  0.00    +0.059 A 
ATOM      4  C   LIG    1       26.896 -20.536   7.053  0.00  0.00    +0.017 A 
ATOM      5  C   LIG    1       27.967 -20.526   7.956  0.00  0.00    +0.024 A 
ATOM      6  C   LIG    1       29.206 -19.966   7.610  0.00  0.00    +0.029 A 
ATOM      7  C   LIG    1       29.319 -19.348   6.358  0.00  0.00    +0.024 A 
ATOM      8  C   LIG    1       28.262 -19.361   5.450  0.00  0.00    +0.017 A 
BRANCH   6   9
ATOM      9  N   LIG    1       30.344 -20.049   8.421  0.00  0.00    -0.336 N 
ATOM     10  C   LIG    1       30.790 -21.415   8.684  0.00  0.00    +0.129 C 
ATOM     11  C   LIG    1       31.389 -19.055   8.211  0.00  0.00    +0.129 C 
ENDBRANCH   6   9
ENDBRANCH   1   3
BRANCH   1  12
ATOM     12  O   LIG    1       25.274 -21.282   5.079  0.00  0.00    -0.461 OA
BRANCH  12  13
ATOM     13  C   LIG    1       23.992 -21.422   4.457  0.00  0.00    +0.236 C 
BRANCH  13  14
ATOM     14  C   LIG    1       22.863 -21.176   5.471  0.00  0.00    +0.026 C 
BRANCH  14  15
ATOM     15  C   LIG    1       23.217 -21.882   6.808  0.00  0.00    +0.003 C 
ATOM     16  C   LIG    1       23.012 -23.391   6.812  0.00  0.00    +0.004 C 
ENDBRANCH  14  15
BRANCH  14  17
ATOM     17  C   LIG    1       22.569 -19.672   5.678  0.00  0.00    +0.007 C 
BRANCH  17  18
ATOM     18  C   LIG    1       22.096 -18.919   4.425  0.00  0.00    +0.000 C 
BRANCH  18  20
ATOM     19  C   LIG    1       22.177 -16.397   4.915  0.00  0.00    +0.004 C 
ATOM     20  C   LIG    1       22.812 -17.579   4.197  0.00  0.00    -0.003 C 
ENDBRANCH  18  20
ENDBRANCH  17  18
ENDBRANCH  14  17
ENDBRANCH  13  14
ENDBRANCH  12  13
ENDBRANCH   1  12
TORSDOF 9
ENDMDL
