MODEL 1
REMARK VINA RESULT:      -7.7      0.000      0.000
REMARK  Name = *****
REMARK                            x       y       z     vdW  Elec       q    Type
REMARK                         _______ _______ _______ _____ _____    ______ ____
ROOT
ATOM      1  C   UNK    1       30.778 -18.872   9.285  0.00  0.00    +0.172 C 
ENDROOT
BRANCH   1   2
ATOM      2  C   UNK    1       29.947 -19.256   8.068  0.00  0.00    -0.013 A 
ATOM      3  C   UNK    1       29.930 -18.455   6.914  0.00  0.00    +0.055 A 
ATOM      4  C   UNK    1       29.111 -18.797   5.843  0.00  0.00    +0.159 A 
ATOM      5  C   UNK    1       28.332 -19.950   5.875  0.00  0.00    +0.158 A 
ATOM      6  C   UNK    1       28.363 -20.780   6.987  0.00  0.00    +0.049 A 
ATOM      7  C   UNK    1       29.165 -20.428   8.082  0.00  0.00    +0.010 A 
BRANCH   4   8
ATOM      8  O   UNK    1       29.063 -17.977   4.752  0.00  0.00    -0.503 OA
ATOM      9  H   UNK    1       29.516 -18.481   4.046  0.00  0.00    +0.292 HD
ENDBRANCH   4   8
BRANCH   5  10
ATOM     10  O   UNK    1       27.549 -20.220   4.786  0.00  0.00    -0.503 OA
ATOM     11  H   UNK    1       27.282 -19.376   4.384  0.00  0.00    +0.292 HD
ENDBRANCH   5  10
ENDBRANCH   1   2
BRANCH   1  12
ATOM     12  O   UNK    1       32.116 -19.379   9.100  0.00  0.00    -0.385 OA
ATOM     13  H   UNK    1       32.549 -19.341   9.976  0.00  0.00    +0.210 HD
ENDBRANCH   1  12
BRANCH   1  14
ATOM     14  C   UNK    1       30.851 -17.343   9.567  0.00  0.00    +0.194 C 
BRANCH  14  15
ATOM     15  N   UNK    1       30.098 -16.945  10.788  0.00  0.00    -0.316 NA
ATOM     16  H   UNK    1       30.744 -16.961  11.581  0.00  0.00    +0.119 HD
ATOM     17  H   UNK    1       29.886 -15.945  10.689  0.00  0.00    +0.119 HD
ENDBRANCH  14  15
BRANCH  14  18
ATOM     18  C   UNK    1       32.313 -16.861   9.722  0.00  0.00    +0.325 C 
ATOM     19  O   UNK    1       33.023 -17.169  10.674  0.00  0.00    -0.249 OA
BRANCH  18  20
ATOM     20  O   UNK    1       32.743 -16.014   8.766  0.00  0.00    -0.479 OA
ATOM     21  H   UNK    1       33.605 -16.295   8.381  0.00  0.00    +0.295 HD
ENDBRANCH  18  20
ENDBRANCH  14  18
ENDBRANCH   1  14
TORSDOF 8
ENDMDL
MODEL 2
REMARK VINA RESULT:      -7.2      2.382      3.133
REMARK  Name = *****
REMARK                            x       y       z     vdW  Elec       q    Type
REMARK                         _______ _______ _______ _____ _____    ______ ____
ROOT
ATOM      1  C   UNK    1       30.180 -19.541   7.250  0.00  0.00    +0.172 C 
ENDROOT
BRANCH   1   2
ATOM      2  C   UNK    1       28.697 -19.873   7.154  0.00  0.00    -0.013 A 
ATOM      3  C   UNK    1       27.928 -20.116   8.305  0.00  0.00    +0.055 A 
ATOM      4  C   UNK    1       26.591 -20.480   8.182  0.00  0.00    +0.159 A 
ATOM      5  C   UNK    1       25.982 -20.569   6.934  0.00  0.00    +0.158 A 
ATOM      6  C   UNK    1       26.710 -20.293   5.785  0.00  0.00    +0.049 A 
ATOM      7  C   UNK    1       28.065 -19.952   5.897  0.00  0.00    +0.010 A 
BRANCH   4   8
ATOM      8  O   UNK    1       25.874 -20.768   9.308  0.00  0.00    -0.503 OA
ATOM      9  H   UNK    1       25.212 -20.049   9.368  0.00  0.00    +0.292 HD
ENDBRANCH   4   8
BRANCH   5  10
ATOM     10  O   UNK    1       24.665 -20.935   6.892  0.00  0.00    -0.503 OA
ATOM     11  H   UNK    1       24.279 -20.794   7.774  0.00  0.00    +0.292 HD
ENDBRANCH   5  10
ENDBRANCH   1   2
BRANCH   1  12
ATOM     12  O   UNK    1       30.448 -18.408   6.399  0.00  0.00    -0.385 OA
ATOM     13  H   UNK    1       31.420 -18.305   6.375  0.00  0.00    +0.210 HD
ENDBRANCH   1  12
BRANCH   1  14
ATOM     14  C   UNK    1       30.685 -19.227   8.688  0.00  0.00    +0.194 C 
BRANCH  14  15
ATOM     15  N   UNK    1       31.927 -19.968   9.039  0.00  0.00    -0.316 NA
ATOM     16  H   UNK    1       31.752 -20.966   8.904  0.00  0.00    +0.119 HD
ATOM     17  H   UNK    1       32.612 -19.757   8.303  0.00  0.00    +0.119 HD
ENDBRANCH  14  15
BRANCH  14  18
ATOM     18  C   UNK    1       30.952 -17.714   8.880  0.00  0.00    +0.325 C 
ATOM     19  O   UNK    1       30.119 -16.940   9.339  0.00  0.00    -0.249 OA
BRANCH  18  20
ATOM     20  O   UNK    1       32.152 -17.283   8.443  0.00  0.00    -0.479 OA
ATOM     21  H   UNK    1       32.289 -16.324   8.620  0.00  0.00    +0.295 HD
ENDBRANCH  18  20
ENDBRANCH  14  18
ENDBRANCH   1  14
TORSDOF 8
ENDMDL
MODEL 3
REMARK VINA RESULT:      -7.2      1.983      2.610
REMARK  Name = *****
REMARK                            x       y       z     vdW  Elec       q    Type
REMARK                         _______ _______ _______ _____ _____    ______ ____
ROOT
ATOM      1  C   UNK    1       30.269 -19.484   7.236  0.00  0.00    +0.172 C 
ENDROOT
BRANCH   1   2
ATOM      2  C   UNK    1       28.807 -19.876   7.063  0.00  0.00    -0.013 A 
ATOM      3  C   UNK    1       28.213 -19.930   5.791  0.00  0.00    +0.055 A 
ATOM      4  C   UNK    1       26.860 -20.228   5.669  0.00  0.00    +0.159 A 
ATOM      5  C   UNK    1       26.084 -20.517   6.789  0.00  0.00    +0.158 A 
ATOM      6  C   UNK    1       26.658 -20.510   8.052  0.00  0.00    +0.049 A 
ATOM      7  C   UNK    1       28.015 -20.184   8.187  0.00  0.00    +0.010 A 
BRANCH   4   8
ATOM      8  O   UNK    1       26.285 -20.220   4.430  0.00  0.00    -0.503 OA
ATOM      9  H   UNK    1       26.727 -19.484   3.960  0.00  0.00    +0.292 HD
ENDBRANCH   4   8
BRANCH   5  10
ATOM     10  O   UNK    1       24.760 -20.797   6.591  0.00  0.00    -0.503 OA
ATOM     11  H   UNK    1       24.389 -20.122   5.998  0.00  0.00    +0.292 HD
ENDBRANCH   5  10
ENDBRANCH   1   2
BRANCH   1  12
ATOM     12  O   UNK    1       30.528 -18.324   6.419  0.00  0.00    -0.385 OA
ATOM     13  H   UNK    1       29.827 -17.676   6.630  0.00  0.00    +0.210 HD
ENDBRANCH   1  12
BRANCH   1  14
ATOM     14  C   UNK    1       30.692 -19.177   8.701  0.00  0.00    +0.194 C 
BRANCH  14  15
ATOM     15  N   UNK    1       31.910 -19.923   9.120  0.00  0.00    -0.316 NA
ATOM     16  H   UNK    1       31.745 -20.304  10.054  0.00  0.00    +0.119 HD
ATOM     17  H   UNK    1       31.952 -20.766   8.535  0.00  0.00    +0.119 HD
ENDBRANCH  14  15
BRANCH  14  18
ATOM     18  C   UNK    1       30.952 -17.666   8.915  0.00  0.00    +0.325 C 
ATOM     19  O   UNK    1       30.108 -16.899   9.367  0.00  0.00    -0.249 OA
BRANCH  18  20
ATOM     20  O   UNK    1       32.158 -17.227   8.504  0.00  0.00    -0.479 OA
ATOM     21  H   UNK    1       32.127 -16.293   8.193  0.00  0.00    +0.295 HD
ENDBRANCH  18  20
ENDBRANCH  14  18
ENDBRANCH   1  14
TORSDOF 8
ENDMDL
MODEL 4
REMARK VINA RESULT:      -7.1      2.816      3.584
REMARK  Name = *****
REMARK                            x       y       z     vdW  Elec       q    Type
REMARK                         _______ _______ _______ _____ _____    ______ ____
ROOT
ATOM      1  C   UNK    1       29.428 -19.332   7.710  0.00  0.00    +0.172 C 
ENDROOT
BRANCH   1   2
ATOM      2  C   UNK    1       28.076 -19.874   7.266  0.00  0.00    -0.013 A 
ATOM      3  C   UNK    1       27.718 -19.919   5.907  0.00  0.00    +0.055 A 
ATOM      4  C   UNK    1       26.452 -20.359   5.537  0.00  0.00    +0.159 A 
ATOM      5  C   UNK    1       25.538 -20.799   6.489  0.00  0.00    +0.158 A 
ATOM      6  C   UNK    1       25.882 -20.804   7.833  0.00  0.00    +0.049 A 
ATOM      7  C   UNK    1       27.146 -20.336   8.219  0.00  0.00    +0.010 A 
BRANCH   4   8
ATOM      8  O   UNK    1       26.101 -20.342   4.217  0.00  0.00    -0.503 OA
ATOM      9  H   UNK    1       25.540 -19.545   4.123  0.00  0.00    +0.292 HD
ENDBRANCH   4   8
BRANCH   5  10
ATOM     10  O   UNK    1       24.311 -21.215   6.050  0.00  0.00    -0.503 OA
ATOM     11  H   UNK    1       23.637 -20.606   6.399  0.00  0.00    +0.292 HD
ENDBRANCH   5  10
ENDBRANCH   1   2
BRANCH   1  12
ATOM     12  O   UNK    1       29.342 -18.986   9.108  0.00  0.00    -0.385 OA
ATOM     13  H   UNK    1       28.672 -19.582   9.498  0.00  0.00    +0.210 HD
ENDBRANCH   1  12
BRANCH   1  14
ATOM     14  C   UNK    1       30.621 -20.308   7.502  0.00  0.00    +0.194 C 
BRANCH  14  15
ATOM     15  N   UNK    1       31.830 -19.634   6.955  0.00  0.00    -0.316 NA
ATOM     16  H   UNK    1       31.892 -19.850   5.958  0.00  0.00    +0.119 HD
ATOM     17  H   UNK    1       31.630 -18.627   6.957  0.00  0.00    +0.119 HD
ENDBRANCH  14  15
BRANCH  14  18
ATOM     18  C   UNK    1       31.015 -21.016   8.821  0.00  0.00    +0.325 C 
ATOM     19  O   UNK    1       30.294 -21.833   9.384  0.00  0.00    -0.249 OA
BRANCH  18  20
ATOM     20  O   UNK    1       32.188 -20.622   9.355  0.00  0.00    -0.479 OA
ATOM     21  H   UNK    1       32.942 -20.757   8.737  0.00  0.00    +0.295 HD
ENDBRANCH  18  20
ENDBRANCH  14  18
ENDBRANCH   1  14
TORSDOF 8
ENDMDL
MODEL 5
REMARK VINA RESULT:      -7.0      2.114      3.140
REMARK  Name = *****
REMARK                            x       y       z     vdW  Elec       q    Type
REMARK                         _______ _______ _______ _____ _____    ______ ____
ROOT
ATOM      1  C   UNK    1       29.134 -20.513   8.236  0.00  0.00    +0.172 C 
ENDROOT
BRANCH   1   2
ATOM      2  C   UNK    1       27.778 -20.537   7.543  0.00  0.00    -0.013 A 
ATOM      3  C   UNK    1       27.666 -20.350   6.155  0.00  0.00    +0.055 A 
ATOM      4  C   UNK    1       26.409 -20.313   5.559  0.00  0.00    +0.159 A 
ATOM      5  C   UNK    1       25.253 -20.500   6.310  0.00  0.00    +0.158 A 
ATOM      6  C   UNK    1       25.340 -20.729   7.676  0.00  0.00    +0.049 A 
ATOM      7  C   UNK    1       26.601 -20.741   8.290  0.00  0.00    +0.010 A 
BRANCH   4   8
ATOM      8  O   UNK    1       26.315 -20.072   4.218  0.00  0.00    -0.503 OA
ATOM      9  H   UNK    1       26.157 -19.108   4.153  0.00  0.00    +0.292 HD
ENDBRANCH   4   8
BRANCH   5  10
ATOM     10  O   UNK    1       24.053 -20.447   5.656  0.00  0.00    -0.503 OA
ATOM     11  H   UNK    1       24.205 -20.660   4.719  0.00  0.00    +0.292 HD
ENDBRANCH   5  10
ENDBRANCH   1   2
BRANCH   1  12
ATOM     12  O   UNK    1       29.984 -21.494   7.607  0.00  0.00    -0.385 OA
ATOM     13  H   UNK    1       30.903 -21.190   7.742  0.00  0.00    +0.210 HD
ENDBRANCH   1  12
BRANCH   1  14
ATOM     14  C   UNK    1       29.852 -19.133   8.215  0.00  0.00    +0.194 C 
BRANCH  14  15
ATOM     15  N   UNK    1       29.655 -18.360   9.472  0.00  0.00    -0.316 NA
ATOM     16  H   UNK    1       30.497 -18.462  10.044  0.00  0.00    +0.119 HD
ATOM     17  H   UNK    1       29.677 -17.366   9.212  0.00  0.00    +0.119 HD
ENDBRANCH  14  15
BRANCH  14  18
ATOM     18  C   UNK    1       31.373 -19.284   7.973  0.00  0.00    +0.325 C 
ATOM     19  O   UNK    1       31.886 -19.193   6.863  0.00  0.00    -0.249 OA
BRANCH  18  20
ATOM     20  O   UNK    1       32.100 -19.594   9.064  0.00  0.00    -0.479 OA
ATOM     21  H   UNK    1       31.563 -20.049   9.752  0.00  0.00    +0.295 HD
ENDBRANCH  18  20
ENDBRANCH  14  18
ENDBRANCH   1  14
TORSDOF 8
ENDMDL
MODEL 6
REMARK VINA RESULT:      -6.8      3.111      5.884
REMARK  Name = *****
REMARK                            x       y       z     vdW  Elec       q    Type
REMARK                         _______ _______ _______ _____ _____    ______ ____
ROOT
ATOM      1  C   UNK    1       27.655 -21.240   6.885  0.00  0.00    +0.172 C 
ENDROOT
BRANCH   1   2
ATOM      2  C   UNK    1       28.905 -20.646   7.520  0.00  0.00    -0.013 A 
ATOM      3  C   UNK    1       29.880 -21.464   8.117  0.00  0.00    +0.055 A 
ATOM      4  C   UNK    1       30.979 -20.889   8.746  0.00  0.00    +0.159 A 
ATOM      5  C   UNK    1       31.156 -19.508   8.761  0.00  0.00    +0.158 A 
ATOM      6  C   UNK    1       30.229 -18.681   8.143  0.00  0.00    +0.049 A 
ATOM      7  C   UNK    1       29.104 -19.251   7.530  0.00  0.00    +0.010 A 
BRANCH   4   8
ATOM      8  O   UNK    1       31.886 -21.696   9.370  0.00  0.00    -0.503 OA
ATOM      9  H   UNK    1       32.461 -21.079   9.868  0.00  0.00    +0.292 HD
ENDBRANCH   4   8
BRANCH   5  10
ATOM     10  O   UNK    1       32.260 -19.015   9.402  0.00  0.00    -0.503 OA
ATOM     11  H   UNK    1       32.345 -19.468  10.258  0.00  0.00    +0.292 HD
ENDBRANCH   5  10
ENDBRANCH   1   2
BRANCH   1  12
ATOM     12  O   UNK    1       27.407 -22.527   7.488  0.00  0.00    -0.385 OA
ATOM     13  H   UNK    1       26.497 -22.780   7.233  0.00  0.00    +0.210 HD
ENDBRANCH   1  12
BRANCH   1  14
ATOM     14  C   UNK    1       26.377 -20.363   7.018  0.00  0.00    +0.194 C 
BRANCH  14  15
ATOM     15  N   UNK    1       25.477 -20.471   5.837  0.00  0.00    -0.316 NA
ATOM     16  H   UNK    1       25.769 -21.282   5.287  0.00  0.00    +0.119 HD
ATOM     17  H   UNK    1       24.558 -20.758   6.194  0.00  0.00    +0.119 HD
ENDBRANCH  14  15
BRANCH  14  18
ATOM     18  C   UNK    1       25.563 -20.729   8.282  0.00  0.00    +0.325 C 
ATOM     19  O   UNK    1       25.941 -20.471   9.420  0.00  0.00    -0.249 OA
BRANCH  18  20
ATOM     20  O   UNK    1       24.428 -21.419   8.055  0.00  0.00    -0.479 OA
ATOM     21  H   UNK    1       24.260 -21.552   7.094  0.00  0.00    +0.295 HD
ENDBRANCH  18  20
ENDBRANCH  14  18
ENDBRANCH   1  14
TORSDOF 8
ENDMDL
MODEL 7
REMARK VINA RESULT:      -6.8      4.245      5.826
REMARK  Name = *****
REMARK                            x       y       z     vdW  Elec       q    Type
REMARK                         _______ _______ _______ _____ _____    ______ ____
ROOT
ATOM      1  C   UNK    1       26.724 -20.326   7.368  0.00  0.00    +0.172 C 
ENDROOT
BRANCH   1   2
ATOM      2  C   UNK    1       25.600 -21.341   7.212  0.00  0.00    -0.013 A 
ATOM      3  C   UNK    1       25.871 -22.710   7.045  0.00  0.00    +0.055 A 
ATOM      4  C   UNK    1       24.825 -23.604   6.840  0.00  0.00    +0.159 A 
ATOM      5  C   UNK    1       23.502 -23.174   6.840  0.00  0.00    +0.158 A 
ATOM      6  C   UNK    1       23.206 -21.834   7.045  0.00  0.00    +0.049 A 
ATOM      7  C   UNK    1       24.255 -20.921   7.224  0.00  0.00    +0.010 A 
BRANCH   4   8
ATOM      8  O   UNK    1       25.110 -24.922   6.621  0.00  0.00    -0.503 OA
ATOM      9  H   UNK    1       24.456 -25.408   7.164  0.00  0.00    +0.292 HD
ENDBRANCH   4   8
BRANCH   5  10
ATOM     10  O   UNK    1       22.528 -24.111   6.629  0.00  0.00    -0.503 OA
ATOM     11  H   UNK    1       21.724 -23.830   7.100  0.00  0.00    +0.292 HD
ENDBRANCH   5  10
ENDBRANCH   1   2
BRANCH   1  12
ATOM     12  O   UNK    1       27.130 -20.306   8.752  0.00  0.00    -0.385 OA
ATOM     13  H   UNK    1       28.014 -19.889   8.774  0.00  0.00    +0.210 HD
ENDBRANCH   1  12
BRANCH   1  14
ATOM     14  C   UNK    1       27.972 -20.595   6.478  0.00  0.00    +0.194 C 
BRANCH  14  15
ATOM     15  N   UNK    1       27.873 -19.956   5.137  0.00  0.00    -0.316 NA
ATOM     16  H   UNK    1       28.659 -19.311   5.032  0.00  0.00    +0.119 HD
ATOM     17  H   UNK    1       28.087 -20.687   4.447  0.00  0.00    +0.119 HD
ENDBRANCH  14  15
BRANCH  14  18
ATOM     18  C   UNK    1       29.273 -20.100   7.155  0.00  0.00    +0.325 C 
ATOM     19  O   UNK    1       29.596 -18.918   7.199  0.00  0.00    -0.249 OA
BRANCH  18  20
ATOM     20  O   UNK    1       30.072 -21.071   7.640  0.00  0.00    -0.479 OA
ATOM     21  H   UNK    1       30.481 -20.819   8.500  0.00  0.00    +0.295 HD
ENDBRANCH  18  20
ENDBRANCH  14  18
ENDBRANCH   1  14
TORSDOF 8
ENDMDL
MODEL 8
REMARK VINA RESULT:      -6.7      4.693      6.374
REMARK  Name = *****
REMARK                            x       y       z     vdW  Elec       q    Type
REMARK                         _______ _______ _______ _____ _____    ______ ____
ROOT
ATOM      1  C   UNK    1       26.241 -21.315   7.528  0.00  0.00    +0.172 C 
ENDROOT
BRANCH   1   2
ATOM      2  C   UNK    1       25.526 -22.593   7.111  0.00  0.00    -0.013 A 
ATOM      3  C   UNK    1       24.126 -22.641   6.997  0.00  0.00    +0.055 A 
ATOM      4  C   UNK    1       23.497 -23.839   6.676  0.00  0.00    +0.159 A 
ATOM      5  C   UNK    1       24.234 -24.993   6.424  0.00  0.00    +0.158 A 
ATOM      6  C   UNK    1       25.619 -24.960   6.490  0.00  0.00    +0.049 A 
ATOM      7  C   UNK    1       26.261 -23.764   6.839  0.00  0.00    +0.010 A 
BRANCH   4   8
ATOM      8  O   UNK    1       22.132 -23.882   6.626  0.00  0.00    -0.503 OA
ATOM      9  H   UNK    1       21.927 -24.028   5.680  0.00  0.00    +0.292 HD
ENDBRANCH   4   8
BRANCH   5  10
ATOM     10  O   UNK    1       23.545 -26.134   6.118  0.00  0.00    -0.503 OA
ATOM     11  H   UNK    1       22.645 -26.056   6.481  0.00  0.00    +0.292 HD
ENDBRANCH   5  10
ENDBRANCH   1   2
BRANCH   1  12
ATOM     12  O   UNK    1       26.331 -21.294   8.968  0.00  0.00    -0.385 OA
ATOM     13  H   UNK    1       25.994 -22.159   9.277  0.00  0.00    +0.210 HD
ENDBRANCH   1  12
BRANCH   1  14
ATOM     14  C   UNK    1       27.666 -21.141   6.929  0.00  0.00    +0.194 C 
BRANCH  14  15
ATOM     15  N   UNK    1       27.693 -20.218   5.761  0.00  0.00    -0.316 NA
ATOM     16  H   UNK    1       27.192 -20.664   4.990  0.00  0.00    +0.119 HD
ATOM     17  H   UNK    1       27.083 -19.427   6.000  0.00  0.00    +0.119 HD
ENDBRANCH  14  15
BRANCH  14  18
ATOM     18  C   UNK    1       28.669 -20.616   7.984  0.00  0.00    +0.325 C 
ATOM     19  O   UNK    1       28.814 -19.424   8.235  0.00  0.00    -0.249 OA
BRANCH  18  20
ATOM     20  O   UNK    1       29.432 -21.559   8.571  0.00  0.00    -0.479 OA
ATOM     21  H   UNK    1       28.988 -22.437   8.591  0.00  0.00    +0.295 HD
ENDBRANCH  18  20
ENDBRANCH  14  18
ENDBRANCH   1  14
TORSDOF 8
ENDMDL
MODEL 9
REMARK VINA RESULT:      -6.7      2.773      4.285
REMARK  Name = *****
REMARK                            x       y       z     vdW  Elec       q    Type
REMARK                         _______ _______ _______ _____ _____    ______ ____
ROOT
ATOM      1  C   UNK    1       28.533 -20.578   7.725  0.00  0.00    +0.172 C 
ENDROOT
BRANCH   1   2
ATOM      2  C   UNK    1       27.138 -20.547   7.114  0.00  0.00    -0.013 A 
ATOM      3  C   UNK    1       25.998 -20.833   7.884  0.00  0.00    +0.055 A 
ATOM      4  C   UNK    1       24.743 -20.860   7.284  0.00  0.00    +0.159 A 
ATOM      5  C   UNK    1       24.587 -20.568   5.933  0.00  0.00    +0.158 A 
ATOM      6  C   UNK    1       25.693 -20.242   5.160  0.00  0.00    +0.049 A 
ATOM      7  C   UNK    1       26.965 -20.238   5.750  0.00  0.00    +0.010 A 
BRANCH   4   8
ATOM      8  O   UNK    1       23.653 -21.196   8.035  0.00  0.00    -0.503 OA
ATOM      9  H   UNK    1       23.901 -20.951   8.950  0.00  0.00    +0.292 HD
ENDBRANCH   4   8
BRANCH   5  10
ATOM     10  O   UNK    1       23.323 -20.618   5.412  0.00  0.00    -0.503 OA
ATOM     11  H   UNK    1       22.960 -21.506   5.572  0.00  0.00    +0.292 HD
ENDBRANCH   5  10
ENDBRANCH   1   2
BRANCH   1  12
ATOM     12  O   UNK    1       29.344 -21.493   6.959  0.00  0.00    -0.385 OA
ATOM     13  H   UNK    1       30.065 -21.784   7.552  0.00  0.00    +0.210 HD
ENDBRANCH   1  12
BRANCH   1  14
ATOM     14  C   UNK    1       29.247 -19.197   7.786  0.00  0.00    +0.194 C 
BRANCH  14  15
ATOM     15  N   UNK    1       29.804 -18.894   9.133  0.00  0.00    -0.316 NA
ATOM     16  H   UNK    1       30.804 -19.109   9.119  0.00  0.00    +0.119 HD
ATOM     17  H   UNK    1       29.793 -17.872   9.231  0.00  0.00    +0.119 HD
ENDBRANCH  14  15
BRANCH  14  18
ATOM     18  C   UNK    1       30.396 -19.104   6.754  0.00  0.00    +0.325 C 
ATOM     19  O   UNK    1       30.286 -18.524   5.679  0.00  0.00    -0.249 OA
BRANCH  18  20
ATOM     20  O   UNK    1       31.522 -19.767   7.086  0.00  0.00    -0.479 OA
ATOM     21  H   UNK    1       31.857 -20.323   6.346  0.00  0.00    +0.295 HD
ENDBRANCH  18  20
ENDBRANCH  14  18
ENDBRANCH   1  14
TORSDOF 8
ENDMDL
