MODEL 1
REMARK VINA RESULT:      -8.6      0.000      0.000
REMARK  Name = *****
REMARK                            x       y       z     vdW  Elec       q    Type
REMARK                         _______ _______ _______ _____ _____    ______ ____
ROOT
ATOM      1  C   LIG    1       24.757 -25.264   4.937  0.00  0.00    +0.185 C 
ATOM      2  O   LIG    1       25.542 -24.138   5.356  0.00  0.00    -0.334 OA
ATOM      3  C   LIG    1       24.827 -23.474   6.419  0.00  0.00    +0.217 C 
ATOM      4  O   LIG    1       23.755 -24.345   6.846  0.00  0.00    -0.341 OA
ATOM      5  C   LIG    1       23.838 -25.552   6.098  0.00  0.00    +0.198 C 
ENDROOT
BRANCH   3   6
ATOM      6  C   LIG    1       24.239 -22.171   5.856  0.00  0.00    +0.031 A 
ATOM      7  C   LIG    1       23.348 -21.333   6.559  0.00  0.00    +0.051 A 
ATOM      8 CL   LIG    1       22.676 -21.726   8.103  0.00  0.00    -0.083 Cl
ATOM      9  C   LIG    1       22.927 -20.105   6.024  0.00  0.00    +0.040 A 
ATOM     10  C   LIG    1       23.352 -19.708   4.764  0.00  0.00    +0.042 A 
ATOM     11 CL   LIG    1       22.829 -18.202   4.118  0.00  0.00    -0.084 Cl
ATOM     12  C   LIG    1       24.188 -20.528   4.023  0.00  0.00    +0.020 A 
ATOM     13  C   LIG    1       24.631 -21.739   4.566  0.00  0.00    +0.012 A 
ENDBRANCH   3   6
BRANCH   1  14
ATOM     14  C   LIG    1       25.692 -26.437   4.637  0.00  0.00    +0.263 C 
BRANCH  14  15
ATOM     15  O   LIG    1       26.493 -26.829   5.758  0.00  0.00    -0.489 OA
BRANCH  15  19
ATOM     16  C   LIG    1       24.699 -29.972   7.942  0.00  0.00    +0.030 A 
ATOM     17  C   LIG    1       24.624 -29.881   6.542  0.00  0.00    +0.027 A 
ATOM     18  C   LIG    1       25.222 -28.824   5.834  0.00  0.00    +0.047 A 
ATOM     19  C   LIG    1       25.927 -27.834   6.513  0.00  0.00    +0.121 A 
ATOM     20  C   LIG    1       25.989 -27.903   7.906  0.00  0.00    +0.047 A 
ATOM     21  C   LIG    1       25.396 -28.961   8.606  0.00  0.00    +0.027 A 
BRANCH  16  27
ATOM     22  C   LIG    1       19.964 -32.377  11.174  0.00  0.00    +0.109 C 
ATOM     23  C   LIG    1       20.706 -33.030  10.012  0.00  0.00    +0.213 C 
ATOM     24  N   LIG    1       22.018 -32.658   9.866  0.00  0.00    -0.299 N 
ATOM     25  C   LIG    1       22.821 -33.158   8.724  0.00  0.00    +0.126 C 
ATOM     26  C   LIG    1       23.392 -32.006   7.856  0.00  0.00    +0.124 C 
ATOM     27  N   LIG    1       24.084 -30.988   8.700  0.00  0.00    -0.327 N 
ATOM     28  C   LIG    1       23.260 -30.507   9.828  0.00  0.00    +0.124 C 
ATOM     29  C   LIG    1       22.746 -31.675  10.677  0.00  0.00    +0.126 C 
ATOM     30  O   LIG    1       20.150 -33.825   9.279  0.00  0.00    -0.276 OA
ENDBRANCH  16  27
ENDBRANCH  15  19
ENDBRANCH  14  15
ENDBRANCH   1  14
BRANCH   3  31
ATOM     31  C   LIG    1       25.811 -23.311   7.606  0.00  0.00    +0.193 C 
BRANCH  31  32
ATOM     32  N   LIG    1       26.481 -22.031   7.670  0.00  0.00    -0.331 N 
ATOM     33  C   LIG    1       26.246 -21.044   8.584  0.00  0.00    +0.199 A 
ATOM     34  N   LIG    1       27.002 -19.994   8.356  0.00  0.00    -0.244 NA
ATOM     35  C   LIG    1       27.778 -20.333   7.278  0.00  0.00    +0.130 A 
ATOM     36  C   LIG    1       27.508 -21.617   6.869  0.00  0.00    +0.107 A 
ENDBRANCH  31  32
ENDBRANCH   3  31
TORSDOF 7
ENDMDL
MODEL 2
REMARK VINA RESULT:      -8.6      3.481      9.930
REMARK  Name = *****
REMARK                            x       y       z     vdW  Elec       q    Type
REMARK                         _______ _______ _______ _____ _____    ______ ____
ROOT
ATOM      1  C   LIG    1       24.439 -29.992   8.150  0.00  0.00    +0.185 C 
ATOM      2  O   LIG    1       24.214 -29.752   9.547  0.00  0.00    -0.334 OA
ATOM      3  C   LIG    1       23.999 -31.030  10.183  0.00  0.00    +0.217 C 
ATOM      4  O   LIG    1       24.373 -32.063   9.244  0.00  0.00    -0.341 OA
ATOM      5  C   LIG    1       24.864 -31.435   8.065  0.00  0.00    +0.198 C 
ENDROOT
BRANCH   3   6
ATOM      6  C   LIG    1       22.504 -31.150  10.514  0.00  0.00    +0.031 A 
ATOM      7  C   LIG    1       21.791 -30.233  11.314  0.00  0.00    +0.051 A 
ATOM      8 CL   LIG    1       22.531 -28.917  12.158  0.00  0.00    -0.083 Cl
ATOM      9  C   LIG    1       20.404 -30.348  11.495  0.00  0.00    +0.040 A 
ATOM     10  C   LIG    1       19.707 -31.400  10.917  0.00  0.00    +0.042 A 
ATOM     11 CL   LIG    1       18.008 -31.532  11.146  0.00  0.00    -0.084 Cl
ATOM     12  C   LIG    1       20.382 -32.349  10.165  0.00  0.00    +0.020 A 
ATOM     13  C   LIG    1       21.759 -32.220   9.960  0.00  0.00    +0.012 A 
ENDBRANCH   3   6
BRANCH   1  14
ATOM     14  C   LIG    1       25.528 -29.040   7.652  0.00  0.00    +0.263 C 
BRANCH  14  15
ATOM     15  O   LIG    1       25.274 -28.517   6.343  0.00  0.00    -0.489 OA
BRANCH  15  19
ATOM     16  C   LIG    1       24.836 -24.313   6.369  0.00  0.00    +0.030 A 
ATOM     17  C   LIG    1       25.922 -24.967   6.976  0.00  0.00    +0.027 A 
ATOM     18  C   LIG    1       26.046 -26.368   6.962  0.00  0.00    +0.047 A 
ATOM     19  C   LIG    1       25.089 -27.151   6.324  0.00  0.00    +0.121 A 
ATOM     20  C   LIG    1       23.995 -26.512   5.737  0.00  0.00    +0.047 A 
ATOM     21  C   LIG    1       23.878 -25.117   5.749  0.00  0.00    +0.027 A 
BRANCH  16  27
ATOM     22  C   LIG    1       24.053 -18.788   3.628  0.00  0.00    +0.109 C 
ATOM     23  C   LIG    1       23.176 -19.405   4.712  0.00  0.00    +0.213 C 
ATOM     24  N   LIG    1       23.816 -20.259   5.574  0.00  0.00    -0.299 N 
ATOM     25  C   LIG    1       23.055 -20.988   6.618  0.00  0.00    +0.126 C 
ATOM     26  C   LIG    1       23.210 -22.527   6.494  0.00  0.00    +0.124 C 
ATOM     27  N   LIG    1       24.646 -22.917   6.390  0.00  0.00    -0.327 N 
ATOM     28  C   LIG    1       25.377 -22.176   5.341  0.00  0.00    +0.124 C 
ATOM     29  C   LIG    1       25.226 -20.661   5.523  0.00  0.00    +0.126 C 
ATOM     30  O   LIG    1       21.991 -19.143   4.787  0.00  0.00    -0.276 OA
ENDBRANCH  16  27
ENDBRANCH  15  19
ENDBRANCH  14  15
ENDBRANCH   1  14
BRANCH   3  31
ATOM     31  C   LIG    1       24.966 -31.112  11.393  0.00  0.00    +0.193 C 
BRANCH  31  32
ATOM     32  N   LIG    1       26.079 -30.189  11.347  0.00  0.00    -0.331 N 
ATOM     33  C   LIG    1       27.237 -30.359  10.644  0.00  0.00    +0.199 A 
ATOM     34  N   LIG    1       28.060 -29.353  10.832  0.00  0.00    -0.244 NA
ATOM     35  C   LIG    1       27.391 -28.486  11.657  0.00  0.00    +0.130 A 
ATOM     36  C   LIG    1       26.134 -28.962  11.946  0.00  0.00    +0.107 A 
ENDBRANCH  31  32
ENDBRANCH   3  31
TORSDOF 7
ENDMDL
MODEL 3
REMARK VINA RESULT:      -8.5      2.429      3.014
REMARK  Name = *****
REMARK                            x       y       z     vdW  Elec       q    Type
REMARK                         _______ _______ _______ _____ _____    ______ ____
ROOT
ATOM      1  C   LIG    1       24.808 -25.384   5.034  0.00  0.00    +0.185 C 
ATOM      2  O   LIG    1       25.580 -24.258   5.480  0.00  0.00    -0.334 OA
ATOM      3  C   LIG    1       24.797 -23.553   6.467  0.00  0.00    +0.217 C 
ATOM      4  O   LIG    1       23.681 -24.394   6.835  0.00  0.00    -0.341 OA
ATOM      5  C   LIG    1       23.799 -25.624   6.128  0.00  0.00    +0.198 C 
ENDROOT
BRANCH   3   6
ATOM      6  C   LIG    1       24.277 -22.258   5.824  0.00  0.00    +0.031 A 
ATOM      7  C   LIG    1       23.405 -21.350   6.461  0.00  0.00    +0.051 A 
ATOM      8 CL   LIG    1       22.680 -21.637   8.005  0.00  0.00    -0.083 Cl
ATOM      9  C   LIG    1       23.048 -20.135   5.855  0.00  0.00    +0.040 A 
ATOM     10  C   LIG    1       23.519 -19.819   4.588  0.00  0.00    +0.042 A 
ATOM     11 CL   LIG    1       23.075 -18.329   3.855  0.00  0.00    -0.084 Cl
ATOM     12  C   LIG    1       24.339 -20.709   3.911  0.00  0.00    +0.020 A 
ATOM     13  C   LIG    1       24.719 -21.907   4.525  0.00  0.00    +0.012 A 
ENDBRANCH   3   6
BRANCH   1  14
ATOM     14  C   LIG    1       25.742 -26.579   4.839  0.00  0.00    +0.263 C 
BRANCH  14  15
ATOM     15  O   LIG    1       25.115 -27.841   5.096  0.00  0.00    -0.489 OA
BRANCH  15  19
ATOM     16  C   LIG    1       25.502 -29.298   9.044  0.00  0.00    +0.030 A 
ATOM     17  C   LIG    1       24.577 -29.825   8.128  0.00  0.00    +0.027 A 
ATOM     18  C   LIG    1       24.459 -29.322   6.820  0.00  0.00    +0.047 A 
ATOM     19  C   LIG    1       25.279 -28.283   6.391  0.00  0.00    +0.121 A 
ATOM     20  C   LIG    1       26.187 -27.737   7.301  0.00  0.00    +0.047 A 
ATOM     21  C   LIG    1       26.304 -28.245   8.600  0.00  0.00    +0.027 A 
BRANCH  16  27
ATOM     22  C   LIG    1       26.293 -28.362  15.140  0.00  0.00    +0.109 C 
ATOM     23  C   LIG    1       25.186 -29.172  14.473  0.00  0.00    +0.213 C 
ATOM     24  N   LIG    1       25.518 -29.752  13.276  0.00  0.00    -0.299 N 
ATOM     25  C   LIG    1       24.503 -30.494  12.489  0.00  0.00    +0.126 C 
ATOM     26  C   LIG    1       24.318 -29.908  11.064  0.00  0.00    +0.124 C 
ATOM     27  N   LIG    1       25.631 -29.740  10.376  0.00  0.00    -0.327 N 
ATOM     28  C   LIG    1       26.621 -28.996  11.182  0.00  0.00    +0.124 C 
ATOM     29  C   LIG    1       26.798 -29.629  12.567  0.00  0.00    +0.126 C 
ATOM     30  O   LIG    1       24.090 -29.282  14.989  0.00  0.00    -0.276 OA
ENDBRANCH  16  27
ENDBRANCH  15  19
ENDBRANCH  14  15
ENDBRANCH   1  14
BRANCH   3  31
ATOM     31  C   LIG    1       25.691 -23.371   7.721  0.00  0.00    +0.193 C 
BRANCH  31  32
ATOM     32  N   LIG    1       26.409 -22.117   7.780  0.00  0.00    -0.331 N 
ATOM     33  C   LIG    1       26.149 -21.079   8.628  0.00  0.00    +0.199 A 
ATOM     34  N   LIG    1       26.964 -20.072   8.414  0.00  0.00    -0.244 NA
ATOM     35  C   LIG    1       27.804 -20.492   7.415  0.00  0.00    +0.130 A 
ATOM     36  C   LIG    1       27.511 -21.782   7.043  0.00  0.00    +0.107 A 
ENDBRANCH  31  32
ENDBRANCH   3  31
TORSDOF 7
ENDMDL
MODEL 4
REMARK VINA RESULT:      -8.5      3.893     10.061
REMARK  Name = *****
REMARK                            x       y       z     vdW  Elec       q    Type
REMARK                         _______ _______ _______ _____ _____    ______ ____
ROOT
ATOM      1  C   LIG    1       24.524 -29.414   8.097  0.00  0.00    +0.185 C 
ATOM      2  O   LIG    1       25.864 -29.723   8.508  0.00  0.00    -0.334 OA
ATOM      3  C   LIG    1       25.782 -30.595   9.655  0.00  0.00    +0.217 C 
ATOM      4  O   LIG    1       24.415 -31.050   9.772  0.00  0.00    -0.341 OA
ATOM      5  C   LIG    1       23.673 -30.512   8.683  0.00  0.00    +0.198 C 
ENDROOT
BRANCH   3   6
ATOM      6  C   LIG    1       26.162 -29.781  10.901  0.00  0.00    +0.031 A 
ATOM      7  C   LIG    1       26.116 -30.279  12.220  0.00  0.00    +0.051 A 
ATOM      8 CL   LIG    1       25.485 -31.833  12.638  0.00  0.00    -0.083 Cl
ATOM      9  C   LIG    1       26.573 -29.513  13.304  0.00  0.00    +0.040 A 
ATOM     10  C   LIG    1       27.047 -28.224  13.101  0.00  0.00    +0.042 A 
ATOM     11 CL   LIG    1       27.604 -27.295  14.437  0.00  0.00    -0.084 Cl
ATOM     12  C   LIG    1       27.062 -27.683  11.825  0.00  0.00    +0.020 A 
ATOM     13  C   LIG    1       26.633 -28.455  10.740  0.00  0.00    +0.012 A 
ENDBRANCH   3   6
BRANCH   1  14
ATOM     14  C   LIG    1       24.466 -29.393   6.569  0.00  0.00    +0.263 C 
BRANCH  14  15
ATOM     15  O   LIG    1       25.518 -28.627   5.969  0.00  0.00    -0.489 OA
BRANCH  15  19
ATOM     16  C   LIG    1       24.822 -24.470   6.278  0.00  0.00    +0.030 A 
ATOM     17  C   LIG    1       23.810 -25.386   5.945  0.00  0.00    +0.027 A 
ATOM     18  C   LIG    1       24.063 -26.765   5.841  0.00  0.00    +0.047 A 
ATOM     19  C   LIG    1       25.340 -27.265   6.084  0.00  0.00    +0.121 A 
ATOM     20  C   LIG    1       26.357 -26.360   6.393  0.00  0.00    +0.047 A 
ATOM     21  C   LIG    1       26.098 -24.988   6.501  0.00  0.00    +0.027 A 
BRANCH  16  27
ATOM     22  C   LIG    1       24.091 -18.829   3.767  0.00  0.00    +0.109 C 
ATOM     23  C   LIG    1       23.190 -19.495   4.802  0.00  0.00    +0.213 C 
ATOM     24  N   LIG    1       23.812 -20.385   5.640  0.00  0.00    -0.299 N 
ATOM     25  C   LIG    1       23.028 -21.160   6.633  0.00  0.00    +0.126 C 
ATOM     26  C   LIG    1       23.189 -22.692   6.444  0.00  0.00    +0.124 C 
ATOM     27  N   LIG    1       24.628 -23.076   6.356  0.00  0.00    -0.327 N 
ATOM     28  C   LIG    1       25.382 -22.289   5.359  0.00  0.00    +0.124 C 
ATOM     29  C   LIG    1       25.224 -20.784   5.604  0.00  0.00    +0.126 C 
ATOM     30  O   LIG    1       22.003 -19.237   4.861  0.00  0.00    -0.276 OA
ENDBRANCH  16  27
ENDBRANCH  15  19
ENDBRANCH  14  15
ENDBRANCH   1  14
BRANCH   3  31
ATOM     31  C   LIG    1       26.672 -31.831   9.361  0.00  0.00    +0.193 C 
BRANCH  31  32
ATOM     32  N   LIG    1       26.372 -32.516   8.123  0.00  0.00    -0.331 N 
ATOM     33  C   LIG    1       26.983 -32.308   6.919  0.00  0.00    +0.199 A 
ATOM     34  N   LIG    1       26.465 -33.071   5.984  0.00  0.00    -0.244 NA
ATOM     35  C   LIG    1       25.511 -33.825   6.618  0.00  0.00    +0.130 A 
ATOM     36  C   LIG    1       25.475 -33.534   7.961  0.00  0.00    +0.107 A 
ENDBRANCH  31  32
ENDBRANCH   3  31
TORSDOF 7
ENDMDL
MODEL 5
REMARK VINA RESULT:      -8.4      4.233      9.880
REMARK  Name = *****
REMARK                            x       y       z     vdW  Elec       q    Type
REMARK                         _______ _______ _______ _____ _____    ______ ____
ROOT
ATOM      1  C   LIG    1       24.120 -30.254   7.086  0.00  0.00    +0.185 C 
ATOM      2  O   LIG    1       24.698 -29.728   8.290  0.00  0.00    -0.334 OA
ATOM      3  C   LIG    1       25.230 -30.839   9.043  0.00  0.00    +0.217 C 
ATOM      4  O   LIG    1       25.237 -31.999   8.181  0.00  0.00    -0.341 OA
ATOM      5  C   LIG    1       24.768 -31.602   6.897  0.00  0.00    +0.198 C 
ENDROOT
BRANCH   3   6
ATOM      6  C   LIG    1       24.300 -31.091  10.240  0.00  0.00    +0.031 A 
ATOM      7  C   LIG    1       24.380 -32.219  11.083  0.00  0.00    +0.051 A 
ATOM      8 CL   LIG    1       25.443 -33.554  10.804  0.00  0.00    -0.083 Cl
ATOM      9  C   LIG    1       23.564 -32.338  12.219  0.00  0.00    +0.040 A 
ATOM     10  C   LIG    1       22.627 -31.357  12.514  0.00  0.00    +0.042 A 
ATOM     11 CL   LIG    1       21.632 -31.514  13.908  0.00  0.00    -0.084 Cl
ATOM     12  C   LIG    1       22.486 -30.258  11.682  0.00  0.00    +0.020 A 
ATOM     13  C   LIG    1       23.318 -30.124  10.565  0.00  0.00    +0.012 A 
ENDBRANCH   3   6
BRANCH   1  14
ATOM     14  C   LIG    1       24.426 -29.300   5.930  0.00  0.00    +0.263 C 
BRANCH  14  15
ATOM     15  O   LIG    1       25.634 -28.552   6.113  0.00  0.00    -0.489 OA
BRANCH  15  19
ATOM     16  C   LIG    1       24.860 -24.403   6.330  0.00  0.00    +0.030 A 
ATOM     17  C   LIG    1       23.851 -25.352   6.100  0.00  0.00    +0.027 A 
ATOM     18  C   LIG    1       24.130 -26.729   6.025  0.00  0.00    +0.047 A 
ATOM     19  C   LIG    1       25.432 -27.192   6.194  0.00  0.00    +0.121 A 
ATOM     20  C   LIG    1       26.445 -26.254   6.402  0.00  0.00    +0.047 A 
ATOM     21  C   LIG    1       26.162 -24.885   6.482  0.00  0.00    +0.027 A 
BRANCH  16  27
ATOM     22  C   LIG    1       24.044 -18.836   3.685  0.00  0.00    +0.109 C 
ATOM     23  C   LIG    1       23.146 -19.496   4.727  0.00  0.00    +0.213 C 
ATOM     24  N   LIG    1       23.777 -20.355   5.590  0.00  0.00    -0.299 N 
ATOM     25  C   LIG    1       22.999 -21.123   6.593  0.00  0.00    +0.126 C 
ATOM     26  C   LIG    1       23.191 -22.655   6.440  0.00  0.00    +0.124 C 
ATOM     27  N   LIG    1       24.639 -23.012   6.375  0.00  0.00    -0.327 N 
ATOM     28  C   LIG    1       25.387 -22.233   5.367  0.00  0.00    +0.124 C 
ATOM     29  C   LIG    1       25.197 -20.726   5.577  0.00  0.00    +0.126 C 
ATOM     30  O   LIG    1       21.954 -19.260   4.769  0.00  0.00    -0.276 OA
ENDBRANCH  16  27
ENDBRANCH  15  19
ENDBRANCH  14  15
ENDBRANCH   1  14
BRANCH   3  31
ATOM     31  C   LIG    1       26.701 -30.497   9.394  0.00  0.00    +0.193 C 
BRANCH  31  32
ATOM     32  N   LIG    1       26.865 -29.527  10.455  0.00  0.00    -0.331 N 
ATOM     33  C   LIG    1       26.708 -28.176  10.341  0.00  0.00    +0.199 A 
ATOM     34  N   LIG    1       26.952 -27.570  11.481  0.00  0.00    -0.244 NA
ATOM     35  C   LIG    1       27.241 -28.574  12.370  0.00  0.00    +0.130 A 
ATOM     36  C   LIG    1       27.139 -29.803  11.765  0.00  0.00    +0.107 A 
ENDBRANCH  31  32
ENDBRANCH   3  31
TORSDOF 7
ENDMDL
MODEL 6
REMARK VINA RESULT:      -8.2      1.698      2.520
REMARK  Name = *****
REMARK                            x       y       z     vdW  Elec       q    Type
REMARK                         _______ _______ _______ _____ _____    ______ ____
ROOT
ATOM      1  C   LIG    1       25.491 -23.112   6.895  0.00  0.00    +0.185 C 
ATOM      2  O   LIG    1       25.868 -22.381   5.718  0.00  0.00    -0.334 OA
ATOM      3  C   LIG    1       25.906 -20.981   6.064  0.00  0.00    +0.217 C 
ATOM      4  O   LIG    1       25.837 -20.875   7.504  0.00  0.00    -0.341 OA
ATOM      5  C   LIG    1       25.812 -22.191   8.045  0.00  0.00    +0.198 C 
ENDROOT
BRANCH   3   6
ATOM      6  C   LIG    1       24.679 -20.302   5.437  0.00  0.00    +0.031 A 
ATOM      7  C   LIG    1       23.378 -20.353   5.983  0.00  0.00    +0.051 A 
ATOM      8 CL   LIG    1       22.951 -21.309   7.359  0.00  0.00    -0.083 Cl
ATOM      9  C   LIG    1       22.321 -19.627   5.413  0.00  0.00    +0.040 A 
ATOM     10  C   LIG    1       22.527 -18.870   4.268  0.00  0.00    +0.042 A 
ATOM     11 CL   LIG    1       21.224 -17.985   3.578  0.00  0.00    -0.084 Cl
ATOM     12  C   LIG    1       23.780 -18.835   3.676  0.00  0.00    +0.020 A 
ATOM     13  C   LIG    1       24.842 -19.535   4.258  0.00  0.00    +0.012 A 
ENDBRANCH   3   6
BRANCH   1  14
ATOM     14  C   LIG    1       26.298 -24.409   6.953  0.00  0.00    +0.263 C 
BRANCH  14  15
ATOM     15  O   LIG    1       26.194 -25.200   5.764  0.00  0.00    -0.489 OA
BRANCH  15  19
ATOM     16  C   LIG    1       25.217 -29.214   6.658  0.00  0.00    +0.030 A 
ATOM     17  C   LIG    1       25.599 -28.288   7.643  0.00  0.00    +0.027 A 
ATOM     18  C   LIG    1       25.926 -26.958   7.324  0.00  0.00    +0.047 A 
ATOM     19  C   LIG    1       25.865 -26.516   6.006  0.00  0.00    +0.121 A 
ATOM     20  C   LIG    1       25.507 -27.435   5.017  0.00  0.00    +0.047 A 
ATOM     21  C   LIG    1       25.177 -28.756   5.340  0.00  0.00    +0.027 A 
BRANCH  16  27
ATOM     22  C   LIG    1       22.758 -33.778  10.090  0.00  0.00    +0.109 C 
ATOM     23  C   LIG    1       22.517 -33.515   8.607  0.00  0.00    +0.213 C 
ATOM     24  N   LIG    1       23.553 -32.916   7.938  0.00  0.00    -0.299 N 
ATOM     25  C   LIG    1       23.409 -32.531   6.512  0.00  0.00    +0.126 C 
ATOM     26  C   LIG    1       23.645 -31.014   6.285  0.00  0.00    +0.124 C 
ATOM     27  N   LIG    1       24.918 -30.565   6.921  0.00  0.00    -0.327 N 
ATOM     28  C   LIG    1       25.032 -30.961   8.340  0.00  0.00    +0.124 C 
ATOM     29  C   LIG    1       24.828 -32.471   8.514  0.00  0.00    +0.126 C 
ATOM     30  O   LIG    1       21.468 -33.825   8.076  0.00  0.00    -0.276 OA
ENDBRANCH  16  27
ENDBRANCH  15  19
ENDBRANCH  14  15
ENDBRANCH   1  14
BRANCH   3  31
ATOM     31  C   LIG    1       27.284 -20.431   5.611  0.00  0.00    +0.193 C 
BRANCH  31  32
ATOM     32  N   LIG    1       28.294 -20.391   6.645  0.00  0.00    -0.331 N 
ATOM     33  C   LIG    1       28.894 -21.471   7.227  0.00  0.00    +0.199 A 
ATOM     34  N   LIG    1       29.750 -21.100   8.152  0.00  0.00    -0.244 NA
ATOM     35  C   LIG    1       29.727 -19.729   8.138  0.00  0.00    +0.130 A 
ATOM     36  C   LIG    1       28.867 -19.267   7.170  0.00  0.00    +0.107 A 
ENDBRANCH  31  32
ENDBRANCH   3  31
TORSDOF 7
ENDMDL
MODEL 7
REMARK VINA RESULT:      -8.0      1.840      2.465
REMARK  Name = *****
REMARK                            x       y       z     vdW  Elec       q    Type
REMARK                         _______ _______ _______ _____ _____    ______ ____
ROOT
ATOM      1  C   LIG    1       25.447 -23.252   6.903  0.00  0.00    +0.185 C 
ATOM      2  O   LIG    1       25.867 -22.478   5.769  0.00  0.00    -0.334 OA
ATOM      3  C   LIG    1       25.887 -21.091   6.167  0.00  0.00    +0.217 C 
ATOM      4  O   LIG    1       25.762 -21.038   7.606  0.00  0.00    -0.341 OA
ATOM      5  C   LIG    1       25.719 -22.373   8.098  0.00  0.00    +0.198 C 
ENDROOT
BRANCH   3   6
ATOM      6  C   LIG    1       24.683 -20.392   5.518  0.00  0.00    +0.031 A 
ATOM      7  C   LIG    1       23.373 -20.418   6.041  0.00  0.00    +0.051 A 
ATOM      8 CL   LIG    1       22.905 -21.361   7.413  0.00  0.00    -0.083 Cl
ATOM      9  C   LIG    1       22.338 -19.674   5.452  0.00  0.00    +0.040 A 
ATOM     10  C   LIG    1       22.578 -18.925   4.309  0.00  0.00    +0.042 A 
ATOM     11 CL   LIG    1       21.303 -18.019   3.594  0.00  0.00    -0.084 Cl
ATOM     12  C   LIG    1       23.841 -18.915   3.738  0.00  0.00    +0.020 A 
ATOM     13  C   LIG    1       24.880 -19.632   4.340  0.00  0.00    +0.012 A 
ENDBRANCH   3   6
BRANCH   1  14
ATOM     14  C   LIG    1       26.255 -24.549   6.946  0.00  0.00    +0.263 C 
BRANCH  14  15
ATOM     15  O   LIG    1       25.779 -25.548   6.036  0.00  0.00    -0.489 OA
BRANCH  15  19
ATOM     16  C   LIG    1       24.969 -29.322   7.759  0.00  0.00    +0.030 A 
ATOM     17  C   LIG    1       24.258 -28.823   6.655  0.00  0.00    +0.027 A 
ATOM     18  C   LIG    1       24.538 -27.562   6.100  0.00  0.00    +0.047 A 
ATOM     19  C   LIG    1       25.554 -26.771   6.631  0.00  0.00    +0.121 A 
ATOM     20  C   LIG    1       26.251 -27.248   7.742  0.00  0.00    +0.047 A 
ATOM     21  C   LIG    1       25.973 -28.507   8.287  0.00  0.00    +0.027 A 
BRANCH  16  27
ATOM     22  C   LIG    1       25.240 -33.316  12.515  0.00  0.00    +0.109 C 
ATOM     23  C   LIG    1       23.992 -32.881  11.754  0.00  0.00    +0.213 C 
ATOM     24  N   LIG    1       24.193 -32.531  10.443  0.00  0.00    -0.299 N 
ATOM     25  C   LIG    1       23.073 -32.010   9.621  0.00  0.00    +0.126 C 
ATOM     26  C   LIG    1       23.370 -30.599   9.048  0.00  0.00    +0.124 C 
ATOM     27  N   LIG    1       24.701 -30.560   8.375  0.00  0.00    -0.327 N 
ATOM     28  C   LIG    1       25.796 -31.083   9.218  0.00  0.00    +0.124 C 
ATOM     29  C   LIG    1       25.476 -32.491   9.733  0.00  0.00    +0.126 C 
ATOM     30  O   LIG    1       22.903 -32.855  12.294  0.00  0.00    -0.276 OA
ENDBRANCH  16  27
ENDBRANCH  15  19
ENDBRANCH  14  15
ENDBRANCH   1  14
BRANCH   3  31
ATOM     31  C   LIG    1       27.280 -20.523   5.788  0.00  0.00    +0.193 C 
BRANCH  31  32
ATOM     32  N   LIG    1       28.265 -20.571   6.846  0.00  0.00    -0.331 N 
ATOM     33  C   LIG    1       28.606 -19.542   7.676  0.00  0.00    +0.199 A 
ATOM     34  N   LIG    1       29.553 -19.899   8.514  0.00  0.00    -0.244 NA
ATOM     35  C   LIG    1       29.804 -21.218   8.237  0.00  0.00    +0.130 A 
ATOM     36  C   LIG    1       28.975 -21.671   7.238  0.00  0.00    +0.107 A 
ENDBRANCH  31  32
ENDBRANCH   3  31
TORSDOF 7
ENDMDL
MODEL 8
REMARK VINA RESULT:      -7.9      3.597      9.710
REMARK  Name = *****
REMARK                            x       y       z     vdW  Elec       q    Type
REMARK                         _______ _______ _______ _____ _____    ______ ____
ROOT
ATOM      1  C   LIG    1       24.140 -29.753   8.649  0.00  0.00    +0.185 C 
ATOM      2  O   LIG    1       25.279 -29.941   9.502  0.00  0.00    -0.334 OA
ATOM      3  C   LIG    1       24.792 -30.292  10.814  0.00  0.00    +0.217 C 
ATOM      4  O   LIG    1       23.384 -30.600  10.699  0.00  0.00    -0.341 OA
ATOM      5  C   LIG    1       23.017 -30.494   9.328  0.00  0.00    +0.198 C 
ENDROOT
BRANCH   3   6
ATOM      6  C   LIG    1       24.980 -29.076  11.733  0.00  0.00    +0.031 A 
ATOM      7  C   LIG    1       26.189 -28.360  11.865  0.00  0.00    +0.051 A 
ATOM      8 CL   LIG    1       27.674 -28.837  11.120  0.00  0.00    -0.083 Cl
ATOM      9  C   LIG    1       26.265 -27.197  12.647  0.00  0.00    +0.040 A 
ATOM     10  C   LIG    1       25.152 -26.747  13.344  0.00  0.00    +0.042 A 
ATOM     11 CL   LIG    1       25.256 -25.322  14.300  0.00  0.00    -0.084 Cl
ATOM     12  C   LIG    1       23.960 -27.452  13.278  0.00  0.00    +0.020 A 
ATOM     13  C   LIG    1       23.875 -28.596  12.476  0.00  0.00    +0.012 A 
ENDBRANCH   3   6
BRANCH   1  14
ATOM     14  C   LIG    1       24.456 -30.326   7.266  0.00  0.00    +0.263 C 
BRANCH  14  15
ATOM     15  O   LIG    1       25.463 -29.590   6.561  0.00  0.00    -0.489 OA
BRANCH  15  19
ATOM     16  C   LIG    1       24.872 -25.405   6.578  0.00  0.00    +0.030 A 
ATOM     17  C   LIG    1       25.878 -26.033   7.330  0.00  0.00    +0.027 A 
ATOM     18  C   LIG    1       26.055 -27.428   7.316  0.00  0.00    +0.047 A 
ATOM     19  C   LIG    1       25.232 -28.232   6.532  0.00  0.00    +0.121 A 
ATOM     20  C   LIG    1       24.215 -27.620   5.797  0.00  0.00    +0.047 A 
ATOM     21  C   LIG    1       24.047 -26.230   5.810  0.00  0.00    +0.027 A 
BRANCH  16  27
ATOM     22  C   LIG    1       23.918 -19.927   3.797  0.00  0.00    +0.109 C 
ATOM     23  C   LIG    1       23.051 -20.571   4.873  0.00  0.00    +0.213 C 
ATOM     24  N   LIG    1       23.711 -21.396   5.748  0.00  0.00    -0.299 N 
ATOM     25  C   LIG    1       22.964 -22.148   6.786  0.00  0.00    +0.126 C 
ATOM     26  C   LIG    1       23.178 -23.681   6.671  0.00  0.00    +0.124 C 
ATOM     27  N   LIG    1       24.629 -24.017   6.588  0.00  0.00    -0.327 N 
ATOM     28  C   LIG    1       25.346 -23.255   5.545  0.00  0.00    +0.124 C 
ATOM     29  C   LIG    1       25.136 -21.746   5.717  0.00  0.00    +0.126 C 
ATOM     30  O   LIG    1       21.856 -20.353   4.931  0.00  0.00    -0.276 OA
ENDBRANCH  16  27
ENDBRANCH  15  19
ENDBRANCH  14  15
ENDBRANCH   1  14
BRANCH   3  31
ATOM     31  C   LIG    1       25.529 -31.586  11.249  0.00  0.00    +0.193 C 
BRANCH  31  32
ATOM     32  N   LIG    1       25.207 -32.051  12.580  0.00  0.00    -0.331 N 
ATOM     33  C   LIG    1       24.242 -32.962  12.903  0.00  0.00    +0.199 A 
ATOM     34  N   LIG    1       24.182 -33.153  14.201  0.00  0.00    -0.244 NA
ATOM     35  C   LIG    1       25.170 -32.363  14.730  0.00  0.00    +0.130 A 
ATOM     36  C   LIG    1       25.856 -31.710  13.734  0.00  0.00    +0.107 A 
ENDBRANCH  31  32
ENDBRANCH   3  31
TORSDOF 7
ENDMDL
MODEL 9
REMARK VINA RESULT:      -7.9      4.103     10.485
REMARK  Name = *****
REMARK                            x       y       z     vdW  Elec       q    Type
REMARK                         _______ _______ _______ _____ _____    ______ ____
ROOT
ATOM      1  C   LIG    1       24.310 -29.309   6.492  0.00  0.00    +0.185 C 
ATOM      2  O   LIG    1       24.647 -29.307   7.888  0.00  0.00    -0.334 OA
ATOM      3  C   LIG    1       25.144 -30.620   8.221  0.00  0.00    +0.217 C 
ATOM      4  O   LIG    1       25.383 -31.333   6.987  0.00  0.00    -0.341 OA
ATOM      5  C   LIG    1       25.090 -30.457   5.904  0.00  0.00    +0.198 C 
ENDROOT
BRANCH   3   6
ATOM      6  C   LIG    1       24.063 -31.346   9.036  0.00  0.00    +0.031 A 
ATOM      7  C   LIG    1       24.107 -32.715   9.373  0.00  0.00    +0.051 A 
ATOM      8 CL   LIG    1       25.316 -33.808   8.794  0.00  0.00    -0.083 Cl
ATOM      9  C   LIG    1       23.135 -33.292  10.205  0.00  0.00    +0.040 A 
ATOM     10  C   LIG    1       22.079 -32.528  10.683  0.00  0.00    +0.042 A 
ATOM     11 CL   LIG    1       20.894 -33.246  11.702  0.00  0.00    -0.084 Cl
ATOM     12  C   LIG    1       21.976 -31.191  10.333  0.00  0.00    +0.020 A 
ATOM     13  C   LIG    1       22.959 -30.607   9.528  0.00  0.00    +0.012 A 
ENDBRANCH   3   6
BRANCH   1  14
ATOM     14  C   LIG    1       24.714 -27.966   5.882  0.00  0.00    +0.263 C 
BRANCH  14  15
ATOM     15  O   LIG    1       23.787 -26.910   6.162  0.00  0.00    -0.489 OA
BRANCH  15  19
ATOM     16  C   LIG    1       25.490 -23.082   6.716  0.00  0.00    +0.030 A 
ATOM     17  C   LIG    1       24.105 -23.286   6.596  0.00  0.00    +0.027 A 
ATOM     18  C   LIG    1       23.558 -24.568   6.405  0.00  0.00    +0.047 A 
ATOM     19  C   LIG    1       24.388 -25.684   6.345  0.00  0.00    +0.121 A 
ATOM     20  C   LIG    1       25.767 -25.489   6.442  0.00  0.00    +0.047 A 
ATOM     21  C   LIG    1       26.307 -24.212   6.637  0.00  0.00    +0.027 A 
BRANCH  16  27
ATOM     22  C   LIG    1       30.399 -19.308   7.273  0.00  0.00    +0.109 C 
ATOM     23  C   LIG    1       29.250 -19.176   6.279  0.00  0.00    +0.213 C 
ATOM     24  N   LIG    1       28.046 -19.680   6.699  0.00  0.00    -0.299 N 
ATOM     25  C   LIG    1       26.873 -19.688   5.791  0.00  0.00    +0.126 C 
ATOM     26  C   LIG    1       26.309 -21.116   5.569  0.00  0.00    +0.124 C 
ATOM     27  N   LIG    1       26.089 -21.816   6.868  0.00  0.00    -0.327 N 
ATOM     28  C   LIG    1       27.274 -21.793   7.751  0.00  0.00    +0.124 C 
ATOM     29  C   LIG    1       27.776 -20.361   7.970  0.00  0.00    +0.126 C 
ATOM     30  O   LIG    1       29.415 -18.655   5.193  0.00  0.00    -0.276 OA
ENDBRANCH  16  27
ENDBRANCH  15  19
ENDBRANCH  14  15
ENDBRANCH   1  14
BRANCH   3  31
ATOM     31  C   LIG    1       26.509 -30.430   8.933  0.00  0.00    +0.193 C 
BRANCH  31  32
ATOM     32  N   LIG    1       26.441 -29.757  10.211  0.00  0.00    -0.331 N 
ATOM     33  C   LIG    1       26.252 -30.353  11.426  0.00  0.00    +0.199 A 
ATOM     34  N   LIG    1       26.212 -29.463  12.392  0.00  0.00    -0.244 NA
ATOM     35  C   LIG    1       26.420 -28.254  11.780  0.00  0.00    +0.130 A 
ATOM     36  C   LIG    1       26.618 -28.420  10.430  0.00  0.00    +0.107 A 
ENDBRANCH  31  32
ENDBRANCH   3  31
TORSDOF 7
ENDMDL
