MODEL 1
REMARK VINA RESULT:      -4.2      0.000      0.000
REMARK  Name = *****
REMARK                            x       y       z     vdW  Elec       q    Type
REMARK                         _______ _______ _______ _____ _____    ______ ____
ROOT
ATOM      1  C   LIG    1       24.689 -21.569   5.982  0.00  0.00    +0.155 C 
ATOM      2  N   LIG    1       25.754 -20.672   5.572  0.00  0.00    -0.280 N 
ATOM      3  C   LIG    1       27.009 -20.745   6.179  0.00  0.00    +0.333 C 
ATOM      4  O   LIG    1       27.258 -21.572   7.062  0.00  0.00    -0.246 OA
ATOM      5  N   LIG    1       27.984 -19.826   5.751  0.00  0.00    -0.262 N 
ATOM      6  C   LIG    1       29.298 -19.946   6.349  0.00  0.00    +0.157 C 
ATOM      7  C   LIG    1       27.755 -18.747   4.896  0.00  0.00    +0.282 C 
ATOM      8  O   LIG    1       28.576 -17.861   4.675  0.00  0.00    -0.265 OA
ATOM      9  C   LIG    1       26.460 -18.764   4.312  0.00  0.00    +0.151 A 
ATOM     10  N   LIG    1       25.860 -17.956   3.391  0.00  0.00    -0.321 N 
ATOM     11  C   LIG    1       24.586 -18.439   3.206  0.00  0.00    +0.202 A 
ATOM     12  N   LIG    1       24.351 -19.493   3.962  0.00  0.00    -0.218 NA
ATOM     13  C   LIG    1       25.515 -19.690   4.640  0.00  0.00    +0.168 A 
ENDROOT
BRANCH  10  14
ATOM     14  C   LIG    1       26.390 -16.752   2.783  0.00  0.00    +0.164 C 
BRANCH  14  15
ATOM     15  C   LIG    1       26.519 -15.557   3.730  0.00  0.00    +0.254 C 
BRANCH  15  16
ATOM     16  O   LIG    1       27.759 -14.841   3.608  0.00  0.00    -0.459 OA
BRANCH  16  17
ATOM     17  C   LIG    1       27.698 -13.507   3.827  0.00  0.00    +0.341 C 
ATOM     18  O   LIG    1       28.629 -12.787   4.138  0.00  0.00    -0.245 OA
BRANCH  17  19
ATOM     19  C   LIG    1       26.315 -13.037   3.651  0.00  0.00    +0.077 A 
ATOM     20  C   LIG    1       25.878 -12.737   2.368  0.00  0.00    +0.125 A 
ATOM     21  N   LIG    1       24.617 -12.337   2.080  0.00  0.00    -0.262 NA
ATOM     22  C   LIG    1       23.755 -12.245   3.118  0.00  0.00    +0.111 A 
ATOM     23  C   LIG    1       24.099 -12.523   4.432  0.00  0.00    +0.020 A 
ATOM     24  C   LIG    1       25.406 -12.920   4.706  0.00  0.00    +0.018 A 
ENDBRANCH  17  19
ENDBRANCH  16  17
ENDBRANCH  15  16
ENDBRANCH  14  15
ENDBRANCH  10  14
TORSDOF 5
ENDMDL
MODEL 2
REMARK VINA RESULT:      -4.1      1.910      3.124
REMARK  Name = *****
REMARK                            x       y       z     vdW  Elec       q    Type
REMARK                         _______ _______ _______ _____ _____    ______ ____
ROOT
ATOM      1  C   LIG    1       23.544 -21.571   7.054  0.00  0.00    +0.155 C 
ATOM      2  N   LIG    1       23.987 -20.624   6.048  0.00  0.00    -0.280 N 
ATOM      3  C   LIG    1       23.096 -20.154   5.083  0.00  0.00    +0.333 C 
ATOM      4  O   LIG    1       21.913 -20.509   5.060  0.00  0.00    -0.246 OA
ATOM      5  N   LIG    1       23.602 -19.261   4.122  0.00  0.00    -0.262 N 
ATOM      6  C   LIG    1       22.655 -18.737   3.157  0.00  0.00    +0.157 C 
ATOM      7  C   LIG    1       24.949 -18.937   3.952  0.00  0.00    +0.282 C 
ATOM      8  O   LIG    1       25.385 -18.294   3.001  0.00  0.00    -0.265 OA
ATOM      9  C   LIG    1       25.778 -19.442   4.988  0.00  0.00    +0.151 A 
ATOM     10  N   LIG    1       27.112 -19.307   5.243  0.00  0.00    -0.321 N 
ATOM     11  C   LIG    1       27.376 -20.028   6.383  0.00  0.00    +0.202 A 
ATOM     12  N   LIG    1       26.291 -20.613   6.850  0.00  0.00    -0.218 NA
ATOM     13  C   LIG    1       25.307 -20.244   5.986  0.00  0.00    +0.168 A 
ENDROOT
BRANCH  10  14
ATOM     14  C   LIG    1       28.108 -18.631   4.436  0.00  0.00    +0.164 C 
BRANCH  14  15
ATOM     15  C   LIG    1       28.167 -17.114   4.625  0.00  0.00    +0.254 C 
BRANCH  15  16
ATOM     16  O   LIG    1       27.405 -16.370   3.660  0.00  0.00    -0.459 OA
BRANCH  16  17
ATOM     17  C   LIG    1       27.485 -15.023   3.750  0.00  0.00    +0.341 C 
ATOM     18  O   LIG    1       28.487 -14.379   4.006  0.00  0.00    -0.245 OA
BRANCH  17  19
ATOM     19  C   LIG    1       26.162 -14.428   3.510  0.00  0.00    +0.077 A 
ATOM     20  C   LIG    1       26.029 -13.507   2.481  0.00  0.00    +0.125 A 
ATOM     21  N   LIG    1       24.854 -12.926   2.140  0.00  0.00    -0.262 NA
ATOM     22  C   LIG    1       23.765 -13.294   2.852  0.00  0.00    +0.111 A 
ATOM     23  C   LIG    1       23.797 -14.205   3.897  0.00  0.00    +0.020 A 
ATOM     24  C   LIG    1       25.020 -14.780   4.237  0.00  0.00    +0.018 A 
ENDBRANCH  17  19
ENDBRANCH  16  17
ENDBRANCH  15  16
ENDBRANCH  14  15
ENDBRANCH  10  14
TORSDOF 5
ENDMDL
MODEL 3
REMARK VINA RESULT:      -3.2      2.157      7.202
REMARK  Name = *****
REMARK                            x       y       z     vdW  Elec       q    Type
REMARK                         _______ _______ _______ _____ _____    ______ ____
ROOT
ATOM      1  C   LIG    1       23.905 -11.914   3.369  0.00  0.00    +0.155 C 
ATOM      2  N   LIG    1       24.740 -13.097   3.462  0.00  0.00    -0.280 N 
ATOM      3  C   LIG    1       26.115 -13.008   3.240  0.00  0.00    +0.333 C 
ATOM      4  O   LIG    1       26.664 -11.933   2.977  0.00  0.00    -0.246 OA
ATOM      5  N   LIG    1       26.858 -14.199   3.318  0.00  0.00    -0.262 N 
ATOM      6  C   LIG    1       28.291 -14.086   3.140  0.00  0.00    +0.157 C 
ATOM      7  C   LIG    1       26.316 -15.481   3.433  0.00  0.00    +0.282 C 
ATOM      8  O   LIG    1       26.971 -16.514   3.324  0.00  0.00    -0.265 OA
ATOM      9  C   LIG    1       24.917 -15.474   3.673  0.00  0.00    +0.151 A 
ATOM     10  N   LIG    1       24.023 -16.478   3.908  0.00  0.00    -0.321 N 
ATOM     11  C   LIG    1       22.790 -15.889   4.059  0.00  0.00    +0.202 A 
ATOM     12  N   LIG    1       22.858 -14.580   3.923  0.00  0.00    -0.218 NA
ATOM     13  C   LIG    1       24.175 -14.330   3.688  0.00  0.00    +0.168 A 
ENDROOT
BRANCH  10  14
ATOM     14  C   LIG    1       24.267 -17.907   3.903  0.00  0.00    +0.164 C 
BRANCH  14  15
ATOM     15  C   LIG    1       23.150 -18.752   4.519  0.00  0.00    +0.254 C 
BRANCH  15  16
ATOM     16  O   LIG    1       23.613 -19.783   5.406  0.00  0.00    -0.459 OA
BRANCH  16  17
ATOM     17  C   LIG    1       24.376 -20.749   4.847  0.00  0.00    +0.341 C 
ATOM     18  O   LIG    1       24.025 -21.533   3.983  0.00  0.00    -0.245 OA
BRANCH  17  19
ATOM     19  C   LIG    1       25.717 -20.738   5.453  0.00  0.00    +0.077 A 
ATOM     20  C   LIG    1       26.647 -19.823   4.979  0.00  0.00    +0.125 A 
ATOM     21  N   LIG    1       27.896 -19.692   5.486  0.00  0.00    -0.262 NA
ATOM     22  C   LIG    1       28.221 -20.502   6.519  0.00  0.00    +0.111 A 
ATOM     23  C   LIG    1       27.361 -21.445   7.061  0.00  0.00    +0.020 A 
ATOM     24  C   LIG    1       26.086 -21.570   6.513  0.00  0.00    +0.018 A 
ENDBRANCH  17  19
ENDBRANCH  16  17
ENDBRANCH  15  16
ENDBRANCH  14  15
ENDBRANCH  10  14
TORSDOF 5
ENDMDL
MODEL 4
REMARK VINA RESULT:      -2.1      1.743      2.248
REMARK  Name = *****
REMARK                            x       y       z     vdW  Elec       q    Type
REMARK                         _______ _______ _______ _____ _____    ______ ____
ROOT
ATOM      1  C   LIG    1       24.071 -21.552   6.614  0.00  0.00    +0.155 C 
ATOM      2  N   LIG    1       25.019 -20.686   5.939  0.00  0.00    -0.280 N 
ATOM      3  C   LIG    1       26.381 -20.764   6.237  0.00  0.00    +0.333 C 
ATOM      4  O   LIG    1       26.821 -21.571   7.062  0.00  0.00    -0.246 OA
ATOM      5  N   LIG    1       27.237 -19.874   5.565  0.00  0.00    -0.262 N 
ATOM      6  C   LIG    1       28.654 -20.001   5.843  0.00  0.00    +0.157 C 
ATOM      7  C   LIG    1       26.826 -18.814   4.755  0.00  0.00    +0.282 C 
ATOM      8  O   LIG    1       27.581 -17.949   4.322  0.00  0.00    -0.265 OA
ATOM      9  C   LIG    1       25.430 -18.825   4.492  0.00  0.00    +0.151 A 
ATOM     10  N   LIG    1       24.639 -18.032   3.712  0.00  0.00    -0.321 N 
ATOM     11  C   LIG    1       23.353 -18.497   3.846  0.00  0.00    +0.202 A 
ATOM     12  N   LIG    1       23.290 -19.526   4.667  0.00  0.00    -0.218 NA
ATOM     13  C   LIG    1       24.578 -19.725   5.059  0.00  0.00    +0.168 A 
ENDROOT
BRANCH  10  14
ATOM     14  C   LIG    1       25.025 -16.854   2.961  0.00  0.00    +0.164 C 
BRANCH  14  15
ATOM     15  C   LIG    1       25.173 -15.580   3.795  0.00  0.00    +0.254 C 
BRANCH  15  16
ATOM     16  O   LIG    1       24.139 -14.607   3.571  0.00  0.00    -0.459 OA
BRANCH  16  17
ATOM     17  C   LIG    1       24.553 -13.332   3.389  0.00  0.00    +0.341 C 
ATOM     18  O   LIG    1       23.868 -12.403   2.997  0.00  0.00    -0.245 OA
BRANCH  17  19
ATOM     19  C   LIG    1       25.982 -13.221   3.719  0.00  0.00    +0.077 A 
ATOM     20  C   LIG    1       26.905 -13.300   2.686  0.00  0.00    +0.125 A 
ATOM     21  N   LIG    1       28.242 -13.169   2.863  0.00  0.00    -0.262 NA
ATOM     22  C   LIG    1       28.669 -12.937   4.125  0.00  0.00    +0.111 A 
ATOM     23  C   LIG    1       27.823 -12.842   5.220  0.00  0.00    +0.020 A 
ATOM     24  C   LIG    1       26.453 -12.993   5.015  0.00  0.00    +0.018 A 
ENDBRANCH  17  19
ENDBRANCH  16  17
ENDBRANCH  15  16
ENDBRANCH  14  15
ENDBRANCH  10  14
TORSDOF 5
ENDMDL
MODEL 5
REMARK VINA RESULT:      -1.5      2.196      3.406
REMARK  Name = *****
REMARK                            x       y       z     vdW  Elec       q    Type
REMARK                         _______ _______ _______ _____ _____    ______ ____
ROOT
ATOM      1  C   LIG    1       24.129 -21.571   4.745  0.00  0.00    +0.155 C 
ATOM      2  N   LIG    1       23.928 -20.146   4.557  0.00  0.00    -0.280 N 
ATOM      3  C   LIG    1       22.643 -19.604   4.601  0.00  0.00    +0.333 C 
ATOM      4  O   LIG    1       21.648 -20.304   4.814  0.00  0.00    -0.246 OA
ATOM      5  N   LIG    1       22.521 -18.221   4.381  0.00  0.00    -0.262 N 
ATOM      6  C   LIG    1       21.189 -17.660   4.483  0.00  0.00    +0.157 C 
ATOM      7  C   LIG    1       23.551 -17.377   3.960  0.00  0.00    +0.282 C 
ATOM      8  O   LIG    1       23.382 -16.213   3.609  0.00  0.00    -0.265 OA
ATOM      9  C   LIG    1       24.823 -18.008   3.962  0.00  0.00    +0.151 A 
ATOM     10  N   LIG    1       26.077 -17.542   3.693  0.00  0.00    -0.321 N 
ATOM     11  C   LIG    1       26.937 -18.604   3.839  0.00  0.00    +0.202 A 
ATOM     12  N   LIG    1       26.297 -19.706   4.174  0.00  0.00    -0.218 NA
ATOM     13  C   LIG    1       24.992 -19.330   4.252  0.00  0.00    +0.168 A 
ENDROOT
BRANCH  10  14
ATOM     14  C   LIG    1       26.456 -16.220   3.235  0.00  0.00    +0.164 C 
BRANCH  14  15
ATOM     15  C   LIG    1       27.643 -15.600   3.975  0.00  0.00    +0.254 C 
BRANCH  15  16
ATOM     16  O   LIG    1       27.656 -14.163   3.968  0.00  0.00    -0.459 OA
BRANCH  16  17
ATOM     17  C   LIG    1       26.734 -13.557   4.749  0.00  0.00    +0.341 C 
ATOM     18  O   LIG    1       26.706 -13.566   5.967  0.00  0.00    -0.245 OA
BRANCH  17  19
ATOM     19  C   LIG    1       25.733 -12.883   3.907  0.00  0.00    +0.077 A 
ATOM     20  C   LIG    1       24.593 -12.377   4.515  0.00  0.00    +0.125 A 
ATOM     21  N   LIG    1       23.625 -11.702   3.849  0.00  0.00    -0.262 NA
ATOM     22  C   LIG    1       23.814 -11.516   2.524  0.00  0.00    +0.111 A 
ATOM     23  C   LIG    1       24.920 -11.984   1.829  0.00  0.00    +0.020 A 
ATOM     24  C   LIG    1       25.896 -12.687   2.533  0.00  0.00    +0.018 A 
ENDBRANCH  17  19
ENDBRANCH  16  17
ENDBRANCH  15  16
ENDBRANCH  14  15
ENDBRANCH  10  14
TORSDOF 5
ENDMDL
MODEL 6
REMARK VINA RESULT:      -1.4      2.543      3.397
REMARK  Name = *****
REMARK                            x       y       z     vdW  Elec       q    Type
REMARK                         _______ _______ _______ _____ _____    ______ ____
ROOT
ATOM      1  C   LIG    1       22.500 -21.249   5.399  0.00  0.00    +0.155 C 
ATOM      2  N   LIG    1       23.337 -20.224   4.802  0.00  0.00    -0.280 N 
ATOM      3  C   LIG    1       24.684 -20.478   4.542  0.00  0.00    +0.333 C 
ATOM      4  O   LIG    1       25.201 -21.571   4.793  0.00  0.00    -0.246 OA
ATOM      5  N   LIG    1       25.441 -19.429   3.991  0.00  0.00    -0.262 N 
ATOM      6  C   LIG    1       26.825 -19.721   3.675  0.00  0.00    +0.157 C 
ATOM      7  C   LIG    1       25.002 -18.113   3.836  0.00  0.00    +0.282 C 
ATOM      8  O   LIG    1       25.734 -17.180   3.516  0.00  0.00    -0.265 OA
ATOM      9  C   LIG    1       23.617 -17.952   4.105  0.00  0.00    +0.151 A 
ATOM     10  N   LIG    1       22.785 -16.874   4.014  0.00  0.00    -0.321 N 
ATOM     11  C   LIG    1       21.540 -17.296   4.415  0.00  0.00    +0.202 A 
ATOM     12  N   LIG    1       21.545 -18.568   4.760  0.00  0.00    -0.218 NA
ATOM     13  C   LIG    1       22.831 -18.968   4.562  0.00  0.00    +0.168 A 
ENDROOT
BRANCH  10  14
ATOM     14  C   LIG    1       23.131 -15.510   3.669  0.00  0.00    +0.164 C 
BRANCH  14  15
ATOM     15  C   LIG    1       23.663 -14.668   4.831  0.00  0.00    +0.254 C 
BRANCH  15  16
ATOM     16  O   LIG    1       23.500 -13.251   4.653  0.00  0.00    -0.459 OA
BRANCH  16  17
ATOM     17  C   LIG    1       24.169 -12.702   3.614  0.00  0.00    +0.341 C 
ATOM     18  O   LIG    1       23.700 -11.964   2.766  0.00  0.00    -0.245 OA
BRANCH  17  19
ATOM     19  C   LIG    1       25.572 -13.144   3.636  0.00  0.00    +0.077 A 
ATOM     20  C   LIG    1       26.276 -13.046   4.828  0.00  0.00    +0.125 A 
ATOM     21  N   LIG    1       27.557 -13.460   4.979  0.00  0.00    -0.262 NA
ATOM     22  C   LIG    1       28.153 -14.004   3.894  0.00  0.00    +0.111 A 
ATOM     23  C   LIG    1       27.532 -14.144   2.662  0.00  0.00    +0.020 A 
ATOM     24  C   LIG    1       26.218 -13.700   2.528  0.00  0.00    +0.018 A 
ENDBRANCH  17  19
ENDBRANCH  16  17
ENDBRANCH  15  16
ENDBRANCH  14  15
ENDBRANCH  10  14
TORSDOF 5
ENDMDL
