MODEL 1
REMARK VINA RESULT:      -8.5      0.000      0.000
REMARK  Name = *****
REMARK                            x       y       z     vdW  Elec       q    Type
REMARK                         _______ _______ _______ _____ _____    ______ ____
ROOT
ATOM      1  C   LIG    1       26.251 -21.182   8.520  0.00  0.00    +0.341 C 
ATOM      2  O   LIG    1       25.891 -20.416   9.406  0.00  0.00    -0.247 OA
ENDROOT
BRANCH   1   3
ATOM      3  O   LIG    1       27.544 -21.431   8.170  0.00  0.00    -0.459 OA
BRANCH   3  11
ATOM      4  C   LIG    1       29.015 -18.174   5.367  0.00  0.00    +0.007 C 
ATOM      5  C   LIG    1       29.746 -19.446   5.796  0.00  0.00    -0.010 C 
ATOM      6  C   LIG    1       30.889 -19.200   6.794  0.00  0.00    +0.010 C 
ATOM      7  C   LIG    1       30.490 -19.031   8.280  0.00  0.00    -0.031 C 
ATOM      8  C   LIG    1       31.765 -19.167   9.140  0.00  0.00    +0.011 C 
ATOM      9  C   LIG    1       29.908 -17.633   8.558  0.00  0.00    +0.011 C 
ATOM     10  C   LIG    1       29.492 -20.133   8.697  0.00  0.00    +0.051 C 
ATOM     11  C   LIG    1       28.301 -20.277   7.745  0.00  0.00    +0.177 C 
ATOM     12  C   LIG    1       28.780 -20.514   6.309  0.00  0.00    +0.048 C 
ENDBRANCH   3  11
ENDBRANCH   1   3
BRANCH   1  13
ATOM     13  C   LIG    1       25.268 -21.940   7.623  0.00  0.00    +0.253 C 
BRANCH  13  14
ATOM     14  C   LIG    1       24.647 -21.099   6.531  0.00  0.00    -0.008 A 
ATOM     15  C   LIG    1       25.359 -20.756   5.371  0.00  0.00    +0.007 A 
ATOM     16  C   LIG    1       24.758 -20.005   4.360  0.00  0.00    +0.000 A 
ATOM     17  C   LIG    1       23.433 -19.600   4.485  0.00  0.00    +0.000 A 
ATOM     18  C   LIG    1       22.703 -19.947   5.620  0.00  0.00    +0.000 A 
ATOM     19  C   LIG    1       23.305 -20.695   6.635  0.00  0.00    +0.007 A 
ENDBRANCH  13  14
BRANCH  13  20
ATOM     20  O   LIG    1       25.924 -23.046   6.994  0.00  0.00    -0.376 OA
ATOM     21  H   LIG    1       26.881 -22.905   7.136  0.00  0.00    +0.211 HD
ENDBRANCH  13  20
ENDBRANCH   1  13
TORSDOF 5
ENDMDL
MODEL 2
REMARK VINA RESULT:      -8.3      1.663      6.655
REMARK  Name = *****
REMARK                            x       y       z     vdW  Elec       q    Type
REMARK                         _______ _______ _______ _____ _____    ______ ____
ROOT
ATOM      1  C   LIG    1       28.344 -20.356   6.994  0.00  0.00    +0.341 C 
ATOM      2  O   LIG    1       28.157 -19.720   5.964  0.00  0.00    -0.247 OA
ENDROOT
BRANCH   1   3
ATOM      3  O   LIG    1       27.370 -20.938   7.749  0.00  0.00    -0.459 OA
BRANCH   3  11
ATOM      4  C   LIG    1       23.215 -20.320   6.023  0.00  0.00    +0.007 C 
ATOM      5  C   LIG    1       23.607 -21.111   7.272  0.00  0.00    -0.010 C 
ATOM      6  C   LIG    1       23.530 -22.635   7.093  0.00  0.00    +0.010 C 
ATOM      7  C   LIG    1       24.732 -23.313   6.391  0.00  0.00    -0.031 C 
ATOM      8  C   LIG    1       24.639 -24.835   6.639  0.00  0.00    +0.011 C 
ATOM      9  C   LIG    1       24.695 -23.104   4.866  0.00  0.00    +0.011 C 
ATOM     10  C   LIG    1       26.061 -22.797   6.983  0.00  0.00    +0.051 C 
ATOM     11  C   LIG    1       26.156 -21.269   7.042  0.00  0.00    +0.177 C 
ATOM     12  C   LIG    1       24.970 -20.682   7.815  0.00  0.00    +0.048 C 
ENDBRANCH   3  11
ENDBRANCH   1   3
BRANCH   1  13
ATOM     13  C   LIG    1       29.729 -20.539   7.621  0.00  0.00    +0.253 C 
BRANCH  13  14
ATOM     14  C   LIG    1       30.307 -19.281   8.229  0.00  0.00    -0.008 A 
ATOM     15  C   LIG    1       29.581 -18.508   9.149  0.00  0.00    +0.007 A 
ATOM     16  C   LIG    1       30.143 -17.368   9.723  0.00  0.00    +0.000 A 
ATOM     17  C   LIG    1       31.444 -16.992   9.401  0.00  0.00    +0.000 A 
ATOM     18  C   LIG    1       32.187 -17.758   8.506  0.00  0.00    +0.000 A 
ATOM     19  C   LIG    1       31.625 -18.898   7.926  0.00  0.00    +0.007 A 
ENDBRANCH  13  14
BRANCH  13  20
ATOM     20  O   LIG    1       29.679 -21.532   8.651  0.00  0.00    -0.376 OA
ATOM     21  H   LIG    1       30.040 -21.105   9.452  0.00  0.00    +0.211 HD
ENDBRANCH  13  20
ENDBRANCH   1  13
TORSDOF 5
ENDMDL
MODEL 3
REMARK VINA RESULT:      -8.2      4.440      6.955
REMARK  Name = *****
REMARK                            x       y       z     vdW  Elec       q    Type
REMARK                         _______ _______ _______ _____ _____    ______ ____
ROOT
ATOM      1  C   LIG    1       25.363 -25.490   5.473  0.00  0.00    +0.341 C 
ATOM      2  O   LIG    1       25.160 -25.369   4.270  0.00  0.00    -0.247 OA
ENDROOT
BRANCH   1   3
ATOM      3  O   LIG    1       24.828 -24.702   6.447  0.00  0.00    -0.459 OA
BRANCH   3  11
ATOM      4  C   LIG    1       27.480 -21.151   7.435  0.00  0.00    +0.007 C 
ATOM      5  C   LIG    1       26.120 -21.505   8.037  0.00  0.00    -0.010 C 
ATOM      6  C   LIG    1       24.973 -20.603   7.556  0.00  0.00    +0.010 C 
ATOM      7  C   LIG    1       24.355 -20.940   6.177  0.00  0.00    -0.031 C 
ATOM      8  C   LIG    1       23.016 -20.181   6.050  0.00  0.00    +0.011 C 
ATOM      9  C   LIG    1       25.251 -20.466   5.019  0.00  0.00    +0.011 C 
ATOM     10  C   LIG    1       24.076 -22.455   6.070  0.00  0.00    +0.051 C 
ATOM     11  C   LIG    1       25.276 -23.330   6.445  0.00  0.00    +0.177 C 
ATOM     12  C   LIG    1       25.782 -22.984   7.850  0.00  0.00    +0.048 C 
ENDBRANCH   3  11
ENDBRANCH   1   3
BRANCH   1  13
ATOM     13  C   LIG    1       26.319 -26.537   6.054  0.00  0.00    +0.253 C 
BRANCH  13  14
ATOM     14  C   LIG    1       25.630 -27.738   6.662  0.00  0.00    -0.008 A 
ATOM     15  C   LIG    1       24.710 -28.506   5.931  0.00  0.00    +0.007 A 
ATOM     16  C   LIG    1       24.108 -29.630   6.499  0.00  0.00    +0.000 A 
ATOM     17  C   LIG    1       24.430 -30.013   7.798  0.00  0.00    +0.000 A 
ATOM     18  C   LIG    1       25.356 -29.275   8.531  0.00  0.00    +0.000 A 
ATOM     19  C   LIG    1       25.956 -28.147   7.966  0.00  0.00    +0.007 A 
ENDBRANCH  13  14
BRANCH  13  20
ATOM     20  O   LIG    1       27.205 -27.016   5.037  0.00  0.00    -0.376 OA
ATOM     21  H   LIG    1       26.939 -26.561   4.214  0.00  0.00    +0.211 HD
ENDBRANCH  13  20
ENDBRANCH   1  13
TORSDOF 5
ENDMDL
MODEL 4
REMARK VINA RESULT:      -8.1      1.637      2.645
REMARK  Name = *****
REMARK                            x       y       z     vdW  Elec       q    Type
REMARK                         _______ _______ _______ _____ _____    ______ ____
ROOT
ATOM      1  C   LIG    1       26.122 -20.977   8.445  0.00  0.00    +0.341 C 
ATOM      2  O   LIG    1       25.858 -20.509   9.547  0.00  0.00    -0.247 OA
ENDROOT
BRANCH   1   3
ATOM      3  O   LIG    1       27.370 -21.303   8.006  0.00  0.00    -0.459 OA
BRANCH   3  11
ATOM      4  C   LIG    1       29.046 -18.048   5.319  0.00  0.00    +0.007 C 
ATOM      5  C   LIG    1       29.694 -19.380   5.699  0.00  0.00    -0.010 C 
ATOM      6  C   LIG    1       30.851 -19.246   6.701  0.00  0.00    +0.010 C 
ATOM      7  C   LIG    1       30.465 -19.106   8.194  0.00  0.00    -0.031 C 
ATOM      8  C   LIG    1       31.730 -19.356   9.044  0.00  0.00    +0.011 C 
ATOM      9  C   LIG    1       29.976 -17.684   8.525  0.00  0.00    +0.011 C 
ATOM     10  C   LIG    1       29.398 -20.155   8.573  0.00  0.00    +0.051 C 
ATOM     11  C   LIG    1       28.199 -20.187   7.621  0.00  0.00    +0.177 C 
ATOM     12  C   LIG    1       28.660 -20.401   6.175  0.00  0.00    +0.048 C 
ENDBRANCH   3  11
ENDBRANCH   1   3
BRANCH   1  13
ATOM     13  C   LIG    1       25.063 -21.211   7.363  0.00  0.00    +0.253 C 
BRANCH  13  14
ATOM     14  C   LIG    1       24.806 -22.667   7.049  0.00  0.00    -0.008 A 
ATOM     15  C   LIG    1       23.505 -23.160   6.857  0.00  0.00    +0.007 A 
ATOM     16  C   LIG    1       23.290 -24.501   6.537  0.00  0.00    +0.000 A 
ATOM     17  C   LIG    1       24.371 -25.365   6.386  0.00  0.00    +0.000 A 
ATOM     18  C   LIG    1       25.670 -24.889   6.552  0.00  0.00    +0.000 A 
ATOM     19  C   LIG    1       25.887 -23.548   6.877  0.00  0.00    +0.007 A 
ENDBRANCH  13  14
BRANCH  13  20
ATOM     20  O   LIG    1       23.816 -20.628   7.758  0.00  0.00    -0.376 OA
ATOM     21  H   LIG    1       24.006 -20.113   8.567  0.00  0.00    +0.211 HD
ENDBRANCH  13  20
ENDBRANCH   1  13
TORSDOF 5
ENDMDL
MODEL 5
REMARK VINA RESULT:      -7.9      2.000      6.676
REMARK  Name = *****
REMARK                            x       y       z     vdW  Elec       q    Type
REMARK                         _______ _______ _______ _____ _____    ______ ____
ROOT
ATOM      1  C   LIG    1       27.238 -20.920   8.006  0.00  0.00    +0.341 C 
ATOM      2  O   LIG    1       26.695 -20.230   8.861  0.00  0.00    -0.247 OA
ENDROOT
BRANCH   1   3
ATOM      3  O   LIG    1       27.024 -22.252   7.815  0.00  0.00    -0.459 OA
BRANCH   3  11
ATOM      4  C   LIG    1       23.020 -21.666   5.754  0.00  0.00    +0.007 C 
ATOM      5  C   LIG    1       23.325 -22.503   6.997  0.00  0.00    -0.010 C 
ATOM      6  C   LIG    1       23.311 -24.019   6.745  0.00  0.00    +0.010 C 
ATOM      7  C   LIG    1       24.590 -24.632   6.124  0.00  0.00    -0.031 C 
ATOM      8  C   LIG    1       24.522 -26.165   6.296  0.00  0.00    +0.011 C 
ATOM      9  C   LIG    1       24.681 -24.353   4.613  0.00  0.00    +0.011 C 
ATOM     10  C   LIG    1       25.845 -24.108   6.855  0.00  0.00    +0.051 C 
ATOM     11  C   LIG    1       25.888 -22.582   6.989  0.00  0.00    +0.177 C 
ATOM     12  C   LIG    1       24.621 -22.063   7.677  0.00  0.00    +0.048 C 
ENDBRANCH   3  11
ENDBRANCH   1   3
BRANCH   1  13
ATOM     13  C   LIG    1       28.302 -20.375   7.048  0.00  0.00    +0.253 C 
BRANCH  13  14
ATOM     14  C   LIG    1       29.500 -19.760   7.736  0.00  0.00    -0.008 A 
ATOM     15  C   LIG    1       29.641 -18.368   7.862  0.00  0.00    +0.007 A 
ATOM     16  C   LIG    1       30.738 -17.820   8.527  0.00  0.00    +0.000 A 
ATOM     17  C   LIG    1       31.701 -18.653   9.091  0.00  0.00    +0.000 A 
ATOM     18  C   LIG    1       31.567 -20.036   8.994  0.00  0.00    +0.000 A 
ATOM     19  C   LIG    1       30.472 -20.587   8.324  0.00  0.00    +0.007 A 
ENDBRANCH  13  14
BRANCH  13  20
ATOM     20  O   LIG    1       28.783 -21.422   6.198  0.00  0.00    -0.376 OA
ATOM     21  H   LIG    1       28.974 -22.178   6.786  0.00  0.00    +0.211 HD
ENDBRANCH  13  20
ENDBRANCH   1  13
TORSDOF 5
ENDMDL
MODEL 6
REMARK VINA RESULT:      -7.8      2.060      6.107
REMARK  Name = *****
REMARK                            x       y       z     vdW  Elec       q    Type
REMARK                         _______ _______ _______ _____ _____    ______ ____
ROOT
ATOM      1  C   LIG    1       27.064 -21.344   8.541  0.00  0.00    +0.341 C 
ATOM      2  O   LIG    1       26.692 -20.305   9.074  0.00  0.00    -0.247 OA
ENDROOT
BRANCH   1   3
ATOM      3  O   LIG    1       26.389 -22.528   8.565  0.00  0.00    -0.459 OA
BRANCH   3  11
ATOM      4  C   LIG    1       23.106 -21.622   5.561  0.00  0.00    +0.007 C 
ATOM      5  C   LIG    1       23.034 -22.534   6.786  0.00  0.00    -0.010 C 
ATOM      6  C   LIG    1       23.028 -24.033   6.446  0.00  0.00    +0.010 C 
ATOM      7  C   LIG    1       24.400 -24.684   6.147  0.00  0.00    -0.031 C 
ATOM      8  C   LIG    1       24.228 -26.218   6.200  0.00  0.00    +0.011 C 
ATOM      9  C   LIG    1       24.901 -24.336   4.734  0.00  0.00    +0.011 C 
ATOM     10  C   LIG    1       25.435 -24.266   7.214  0.00  0.00    +0.051 C 
ATOM     11  C   LIG    1       25.502 -22.754   7.449  0.00  0.00    +0.177 C 
ATOM     12  C   LIG    1       24.119 -22.200   7.810  0.00  0.00    +0.048 C 
ENDBRANCH   3  11
ENDBRANCH   1   3
BRANCH   1  13
ATOM     13  C   LIG    1       28.403 -21.472   7.808  0.00  0.00    +0.253 C 
BRANCH  13  14
ATOM     14  C   LIG    1       28.704 -20.331   6.862  0.00  0.00    -0.008 A 
ATOM     15  C   LIG    1       27.803 -19.954   5.853  0.00  0.00    +0.007 A 
ATOM     16  C   LIG    1       28.085 -18.878   5.010  0.00  0.00    +0.000 A 
ATOM     17  C   LIG    1       29.262 -18.153   5.173  0.00  0.00    +0.000 A 
ATOM     18  C   LIG    1       30.159 -18.500   6.181  0.00  0.00    +0.000 A 
ATOM     19  C   LIG    1       29.880 -19.580   7.023  0.00  0.00    +0.007 A 
ENDBRANCH  13  14
BRANCH  13  20
ATOM     20  O   LIG    1       29.478 -21.546   8.750  0.00  0.00    -0.376 OA
ATOM     21  H   LIG    1       30.247 -21.886   8.253  0.00  0.00    +0.211 HD
ENDBRANCH  13  20
ENDBRANCH   1  13
TORSDOF 5
ENDMDL
MODEL 7
REMARK VINA RESULT:      -7.8      4.655      6.636
REMARK  Name = *****
REMARK                            x       y       z     vdW  Elec       q    Type
REMARK                         _______ _______ _______ _____ _____    ______ ____
ROOT
ATOM      1  C   LIG    1       24.897 -25.565   6.214  0.00  0.00    +0.341 C 
ATOM      2  O   LIG    1       23.689 -25.714   6.353  0.00  0.00    -0.247 OA
ENDROOT
BRANCH   1   3
ATOM      3  O   LIG    1       25.498 -24.489   5.633  0.00  0.00    -0.459 OA
BRANCH   3  11
ATOM      4  C   LIG    1       23.254 -20.634   6.487  0.00  0.00    +0.007 C 
ATOM      5  C   LIG    1       24.534 -20.816   5.670  0.00  0.00    -0.010 C 
ATOM      6  C   LIG    1       25.801 -20.317   6.381  0.00  0.00    +0.010 C 
ATOM      7  C   LIG    1       26.434 -21.269   7.425  0.00  0.00    -0.031 C 
ATOM      8  C   LIG    1       27.859 -20.764   7.738  0.00  0.00    +0.011 C 
ATOM      9  C   LIG    1       25.653 -21.261   8.751  0.00  0.00    +0.011 C 
ATOM     10  C   LIG    1       26.532 -22.701   6.855  0.00  0.00    +0.051 C 
ATOM     11  C   LIG    1       25.220 -23.217   6.256  0.00  0.00    +0.177 C 
ATOM     12  C   LIG    1       24.699 -22.256   5.182  0.00  0.00    +0.048 C 
ENDBRANCH   3  11
ENDBRANCH   1   3
BRANCH   1  13
ATOM     13  C   LIG    1       25.921 -26.625   6.633  0.00  0.00    +0.253 C 
BRANCH  13  14
ATOM     14  C   LIG    1       25.382 -28.038   6.647  0.00  0.00    -0.008 A 
ATOM     15  C   LIG    1       25.181 -28.761   5.459  0.00  0.00    +0.007 A 
ATOM     16  C   LIG    1       24.713 -30.074   5.494  0.00  0.00    +0.000 A 
ATOM     17  C   LIG    1       24.455 -30.692   6.715  0.00  0.00    +0.000 A 
ATOM     18  C   LIG    1       24.668 -29.998   7.904  0.00  0.00    +0.000 A 
ATOM     19  C   LIG    1       25.132 -28.681   7.871  0.00  0.00    +0.007 A 
ENDBRANCH  13  14
BRANCH  13  20
ATOM     20  O   LIG    1       27.046 -26.602   5.748  0.00  0.00    -0.376 OA
ATOM     21  H   LIG    1       27.358 -27.526   5.687  0.00  0.00    +0.211 HD
ENDBRANCH  13  20
ENDBRANCH   1  13
TORSDOF 5
ENDMDL
MODEL 8
REMARK VINA RESULT:      -7.7      1.511      6.440
REMARK  Name = *****
REMARK                            x       y       z     vdW  Elec       q    Type
REMARK                         _______ _______ _______ _____ _____    ______ ____
ROOT
ATOM      1  C   LIG    1       27.440 -20.927   8.161  0.00  0.00    +0.341 C 
ATOM      2  O   LIG    1       28.018 -21.848   8.726  0.00  0.00    -0.247 OA
ENDROOT
BRANCH   1   3
ATOM      3  O   LIG    1       26.117 -20.629   8.292  0.00  0.00    -0.459 OA
BRANCH   3  11
ATOM      4  C   LIG    1       22.906 -20.449   5.085  0.00  0.00    +0.007 C 
ATOM      5  C   LIG    1       22.819 -21.095   6.468  0.00  0.00    -0.010 C 
ATOM      6  C   LIG    1       22.859 -22.631   6.440  0.00  0.00    +0.010 C 
ATOM      7  C   LIG    1       24.255 -23.288   6.315  0.00  0.00    -0.031 C 
ATOM      8  C   LIG    1       24.117 -24.784   6.674  0.00  0.00    +0.011 C 
ATOM      9  C   LIG    1       24.790 -23.220   4.873  0.00  0.00    +0.011 C 
ATOM     10  C   LIG    1       25.246 -22.632   7.300  0.00  0.00    +0.051 C 
ATOM     11  C   LIG    1       25.270 -21.103   7.224  0.00  0.00    +0.177 C 
ATOM     12  C   LIG    1       23.864 -20.528   7.429  0.00  0.00    +0.048 C 
ENDBRANCH   3  11
ENDBRANCH   1   3
BRANCH   1  13
ATOM     13  C   LIG    1       28.132 -19.997   7.160  0.00  0.00    +0.253 C 
BRANCH  13  14
ATOM     14  C   LIG    1       29.415 -19.379   7.669  0.00  0.00    -0.008 A 
ATOM     15  C   LIG    1       30.638 -19.571   7.007  0.00  0.00    +0.007 A 
ATOM     16  C   LIG    1       31.805 -18.967   7.475  0.00  0.00    +0.000 A 
ATOM     17  C   LIG    1       31.766 -18.149   8.600  0.00  0.00    +0.000 A 
ATOM     18  C   LIG    1       30.558 -17.930   9.258  0.00  0.00    +0.000 A 
ATOM     19  C   LIG    1       29.389 -18.538   8.794  0.00  0.00    +0.007 A 
ENDBRANCH  13  14
BRANCH  13  20
ATOM     20  O   LIG    1       28.444 -20.710   5.958  0.00  0.00    -0.376 OA
ATOM     21  H   LIG    1       27.934 -20.274   5.248  0.00  0.00    +0.211 HD
ENDBRANCH  13  20
ENDBRANCH   1  13
TORSDOF 5
ENDMDL
MODEL 9
REMARK VINA RESULT:      -7.5      1.384      6.326
REMARK  Name = *****
REMARK                            x       y       z     vdW  Elec       q    Type
REMARK                         _______ _______ _______ _____ _____    ______ ____
ROOT
ATOM      1  C   LIG    1       27.436 -20.807   8.019  0.00  0.00    +0.341 C 
ATOM      2  O   LIG    1       27.778 -21.780   8.681  0.00  0.00    -0.247 OA
ENDROOT
BRANCH   1   3
ATOM      3  O   LIG    1       26.194 -20.247   8.025  0.00  0.00    -0.459 OA
BRANCH   3  11
ATOM      4  C   LIG    1       23.476 -23.675   6.808  0.00  0.00    +0.007 C 
ATOM      5  C   LIG    1       24.772 -23.218   6.137  0.00  0.00    -0.010 C 
ATOM      6  C   LIG    1       24.557 -22.483   4.804  0.00  0.00    +0.010 C 
ATOM      7  C   LIG    1       24.175 -20.986   4.891  0.00  0.00    -0.031 C 
ATOM      8  C   LIG    1       24.369 -20.358   3.493  0.00  0.00    +0.011 C 
ATOM      9  C   LIG    1       22.694 -20.796   5.267  0.00  0.00    +0.011 C 
ATOM     10  C   LIG    1       25.093 -20.254   5.893  0.00  0.00    +0.051 C 
ATOM     11  C   LIG    1       25.197 -20.949   7.254  0.00  0.00    +0.177 C 
ATOM     12  C   LIG    1       25.650 -22.404   7.087  0.00  0.00    +0.048 C 
ENDBRANCH   3  11
ENDBRANCH   1   3
BRANCH   1  13
ATOM     13  C   LIG    1       28.367 -20.108   7.024  0.00  0.00    +0.253 C 
BRANCH  13  14
ATOM     14  C   LIG    1       29.530 -19.384   7.664  0.00  0.00    -0.008 A 
ATOM     15  C   LIG    1       30.823 -19.445   7.121  0.00  0.00    +0.007 A 
ATOM     16  C   LIG    1       31.878 -18.745   7.708  0.00  0.00    +0.000 A 
ATOM     17  C   LIG    1       31.653 -17.959   8.835  0.00  0.00    +0.000 A 
ATOM     18  C   LIG    1       30.372 -17.870   9.375  0.00  0.00    +0.000 A 
ATOM     19  C   LIG    1       29.316 -18.574   8.792  0.00  0.00    +0.007 A 
ENDBRANCH  13  14
BRANCH  13  20
ATOM     20  O   LIG    1       28.907 -21.059   6.100  0.00  0.00    -0.376 OA
ATOM     21  H   LIG    1       29.711 -21.418   6.524  0.00  0.00    +0.211 HD
ENDBRANCH  13  20
ENDBRANCH   1  13
TORSDOF 5
ENDMDL
