MODEL 1
REMARK VINA RESULT:      -5.4      0.000      0.000
REMARK  Name = *****
REMARK                            x       y       z     vdW  Elec       q    Type
REMARK                         _______ _______ _______ _____ _____    ______ ____
ROOT
ATOM      1  C   LIG    1       26.100 -17.313   3.308  0.00  0.00    +0.178 C 
ENDROOT
BRANCH   1   2
ATOM      2  C   LIG    1       24.949 -18.324   3.520  0.00  0.00    -0.014 A 
ATOM      3  C   LIG    1       23.690 -17.984   4.073  0.00  0.00    +0.007 A 
ATOM      4  C   LIG    1       22.800 -18.942   4.557  0.00  0.00    +0.015 A 
ATOM      5  C   LIG    1       23.109 -20.282   4.444  0.00  0.00    +0.018 A 
ATOM      6 BR   LIG    1       21.966 -21.572   5.215  0.00  0.00    -0.050 Br
ATOM      7  C   LIG    1       24.279 -20.673   3.786  0.00  0.00    +0.015 A 
ATOM      8  C   LIG    1       25.183 -19.694   3.333  0.00  0.00    +0.007 A 
ENDBRANCH   1   2
BRANCH   1   9
ATOM      9  C   LIG    1       25.858 -15.799   3.357  0.00  0.00    -0.015 A 
ATOM     10  C   LIG    1       26.852 -14.902   2.941  0.00  0.00    +0.006 A 
ATOM     11  C   LIG    1       26.604 -13.524   2.855  0.00  0.00    +0.000 A 
ATOM     12  C   LIG    1       25.343 -13.020   3.177  0.00  0.00    +0.000 A 
ATOM     13  C   LIG    1       24.390 -13.864   3.702  0.00  0.00    +0.000 A 
ATOM     14  C   LIG    1       24.681 -15.218   3.867  0.00  0.00    +0.006 A 
ENDBRANCH   1   9
BRANCH   1  15
ATOM     15  O   LIG    1       27.277 -17.687   4.077  0.00  0.00    -0.366 OA
BRANCH  15  16
ATOM     16  C   LIG    1       27.113 -18.909   4.790  0.00  0.00    +0.176 C 
BRANCH  16  17
ATOM     17  C   LIG    1       28.339 -19.271   5.641  0.00  0.00    +0.112 C 
BRANCH  17  19
ATOM     18  C   LIG    1       28.860 -21.199   7.009  0.00  0.00    +0.104 C 
ATOM     19  N   LIG    1       27.979 -20.042   6.853  0.00  0.00    -0.306 NA
ATOM     20  C   LIG    1       26.585 -20.493   6.854  0.00  0.00    +0.104 C 
ENDBRANCH  17  19
ENDBRANCH  16  17
ENDBRANCH  15  16
ENDBRANCH   1  15
TORSDOF 6
ENDMDL
MODEL 2
REMARK VINA RESULT:      -5.2      2.365      3.700
REMARK  Name = *****
REMARK                            x       y       z     vdW  Elec       q    Type
REMARK                         _______ _______ _______ _____ _____    ______ ____
ROOT
ATOM      1  C   LIG    1       25.753 -16.554   3.016  0.00  0.00    +0.178 C 
ENDROOT
BRANCH   1   2
ATOM      2  C   LIG    1       25.054 -17.858   3.469  0.00  0.00    -0.014 A 
ATOM      3  C   LIG    1       23.664 -17.965   3.716  0.00  0.00    +0.007 A 
ATOM      4  C   LIG    1       23.108 -19.027   4.428  0.00  0.00    +0.015 A 
ATOM      5  C   LIG    1       23.916 -20.058   4.860  0.00  0.00    +0.018 A 
ATOM      6 BR   LIG    1       23.187 -21.429   5.933  0.00  0.00    -0.050 Br
ATOM      7  C   LIG    1       25.274 -20.065   4.525  0.00  0.00    +0.015 A 
ATOM      8  C   LIG    1       25.827 -18.970   3.836  0.00  0.00    +0.007 A 
ENDBRANCH   1   2
BRANCH   1   9
ATOM      9  C   LIG    1       25.089 -15.184   3.195  0.00  0.00    -0.015 A 
ATOM     10  C   LIG    1       24.249 -14.933   4.289  0.00  0.00    +0.006 A 
ATOM     11  C   LIG    1       23.739 -13.651   4.541  0.00  0.00    +0.000 A 
ATOM     12  C   LIG    1       24.072 -12.589   3.699  0.00  0.00    +0.000 A 
ATOM     13  C   LIG    1       24.794 -12.835   2.552  0.00  0.00    +0.000 A 
ATOM     14  C   LIG    1       25.220 -14.132   2.268  0.00  0.00    +0.006 A 
ENDBRANCH   1   9
BRANCH   1  15
ATOM     15  O   LIG    1       27.145 -16.530   3.438  0.00  0.00    -0.366 OA
BRANCH  15  16
ATOM     16  C   LIG    1       27.420 -15.511   4.395  0.00  0.00    +0.176 C 
BRANCH  16  17
ATOM     17  C   LIG    1       28.117 -14.288   3.779  0.00  0.00    +0.112 C 
BRANCH  17  19
ATOM     18  C   LIG    1       28.962 -12.199   4.662  0.00  0.00    +0.104 C 
ATOM     19  N   LIG    1       27.772 -13.028   4.478  0.00  0.00    -0.306 NA
ATOM     20  C   LIG    1       27.130 -13.250   5.776  0.00  0.00    +0.104 C 
ENDBRANCH  17  19
ENDBRANCH  16  17
ENDBRANCH  15  16
ENDBRANCH   1  15
TORSDOF 6
ENDMDL
MODEL 3
REMARK VINA RESULT:      -4.6      2.735      5.471
REMARK  Name = *****
REMARK                            x       y       z     vdW  Elec       q    Type
REMARK                         _______ _______ _______ _____ _____    ______ ____
ROOT
ATOM      1  C   LIG    1       26.604 -18.212   3.555  0.00  0.00    +0.178 C 
ENDROOT
BRANCH   1   2
ATOM      2  C   LIG    1       26.109 -16.747   3.533  0.00  0.00    -0.014 A 
ATOM      3  C   LIG    1       26.967 -15.621   3.575  0.00  0.00    +0.007 A 
ATOM      4  C   LIG    1       26.511 -14.340   3.884  0.00  0.00    +0.015 A 
ATOM      5  C   LIG    1       25.165 -14.127   4.096  0.00  0.00    +0.018 A 
ATOM      6 BR   LIG    1       24.565 -12.422   4.641  0.00  0.00    -0.050 Br
ATOM      7  C   LIG    1       24.260 -15.180   3.936  0.00  0.00    +0.015 A 
ATOM      8  C   LIG    1       24.738 -16.474   3.657  0.00  0.00    +0.007 A 
ENDBRANCH   1   2
BRANCH   1   9
ATOM      9  C   LIG    1       27.487 -18.744   4.691  0.00  0.00    -0.015 A 
ATOM     10  C   LIG    1       28.716 -18.136   4.987  0.00  0.00    +0.006 A 
ATOM     11  C   LIG    1       29.473 -18.524   6.101  0.00  0.00    +0.000 A 
ATOM     12  C   LIG    1       29.005 -19.529   6.949  0.00  0.00    +0.000 A 
ATOM     13  C   LIG    1       27.863 -20.222   6.611  0.00  0.00    +0.000 A 
ATOM     14  C   LIG    1       27.167 -19.885   5.452  0.00  0.00    +0.006 A 
ENDBRANCH   1   9
BRANCH   1  15
ATOM     15  O   LIG    1       25.526 -19.136   3.243  0.00  0.00    -0.366 OA
BRANCH  15  16
ATOM     16  C   LIG    1       25.112 -19.911   4.365  0.00  0.00    +0.176 C 
BRANCH  16  17
ATOM     17  C   LIG    1       23.888 -20.789   4.063  0.00  0.00    +0.112 C 
BRANCH  17  19
ATOM     18  C   LIG    1       22.249 -19.173   4.810  0.00  0.00    +0.104 C 
ATOM     19  N   LIG    1       22.763 -20.530   4.991  0.00  0.00    -0.306 NA
ATOM     20  C   LIG    1       23.122 -20.728   6.397  0.00  0.00    +0.104 C 
ENDBRANCH  17  19
ENDBRANCH  16  17
ENDBRANCH  15  16
ENDBRANCH   1  15
TORSDOF 6
ENDMDL
MODEL 4
REMARK VINA RESULT:      -4.4      2.630      5.082
REMARK  Name = *****
REMARK                            x       y       z     vdW  Elec       q    Type
REMARK                         _______ _______ _______ _____ _____    ______ ____
ROOT
ATOM      1  C   LIG    1       25.359 -17.219   4.031  0.00  0.00    +0.178 C 
ENDROOT
BRANCH   1   2
ATOM      2  C   LIG    1       25.248 -15.704   3.743  0.00  0.00    -0.014 A 
ATOM      3  C   LIG    1       24.103 -14.924   4.037  0.00  0.00    +0.007 A 
ATOM      4  C   LIG    1       23.891 -13.662   3.483  0.00  0.00    +0.015 A 
ATOM      5  C   LIG    1       24.852 -13.105   2.666  0.00  0.00    +0.018 A 
ATOM      6 BR   LIG    1       24.509 -11.456   1.813  0.00  0.00    -0.050 Br
ATOM      7  C   LIG    1       26.059 -13.777   2.451  0.00  0.00    +0.015 A 
ATOM      8  C   LIG    1       26.244 -15.064   2.989  0.00  0.00    +0.007 A 
ENDBRANCH   1   2
BRANCH   1   9
ATOM      9  C   LIG    1       24.122 -18.126   4.047  0.00  0.00    -0.015 A 
ATOM     10  C   LIG    1       24.254 -19.518   3.941  0.00  0.00    +0.006 A 
ATOM     11  C   LIG    1       23.149 -20.370   4.086  0.00  0.00    +0.000 A 
ATOM     12  C   LIG    1       21.887 -19.838   4.349  0.00  0.00    +0.000 A 
ATOM     13  C   LIG    1       21.711 -18.472   4.336  0.00  0.00    +0.000 A 
ATOM     14  C   LIG    1       22.803 -17.637   4.103  0.00  0.00    +0.006 A 
ENDBRANCH   1   9
BRANCH   1  15
ATOM     15  O   LIG    1       26.448 -17.820   3.277  0.00  0.00    -0.366 OA
BRANCH  15  16
ATOM     16  C   LIG    1       27.600 -18.082   4.072  0.00  0.00    +0.176 C 
BRANCH  16  17
ATOM     17  C   LIG    1       27.396 -19.251   5.047  0.00  0.00    +0.112 C 
BRANCH  17  19
ATOM     18  C   LIG    1       28.392 -20.591   6.801  0.00  0.00    +0.104 C 
ATOM     19  N   LIG    1       28.661 -19.682   5.686  0.00  0.00    -0.306 NA
ATOM     20  C   LIG    1       29.475 -18.561   6.162  0.00  0.00    +0.104 C 
ENDBRANCH  17  19
ENDBRANCH  16  17
ENDBRANCH  15  16
ENDBRANCH   1  15
TORSDOF 6
ENDMDL
MODEL 5
REMARK VINA RESULT:      -4.0      2.569      4.957
REMARK  Name = *****
REMARK                            x       y       z     vdW  Elec       q    Type
REMARK                         _______ _______ _______ _____ _____    ______ ____
ROOT
ATOM      1  C   LIG    1       26.185 -16.896   4.169  0.00  0.00    +0.178 C 
ENDROOT
BRANCH   1   2
ATOM      2  C   LIG    1       25.876 -15.427   3.798  0.00  0.00    -0.014 A 
ATOM      3  C   LIG    1       24.800 -14.683   4.343  0.00  0.00    +0.007 A 
ATOM      4  C   LIG    1       24.340 -13.499   3.769  0.00  0.00    +0.015 A 
ATOM      5  C   LIG    1       24.984 -12.978   2.666  0.00  0.00    +0.018 A 
ATOM      6 BR   LIG    1       24.283 -11.447   1.812  0.00  0.00    -0.050 Br
ATOM      7  C   LIG    1       26.132 -13.604   2.171  0.00  0.00    +0.015 A 
ATOM      8  C   LIG    1       26.565 -14.816   2.739  0.00  0.00    +0.007 A 
ENDBRANCH   1   2
BRANCH   1   9
ATOM      9  C   LIG    1       25.196 -18.027   3.862  0.00  0.00    -0.015 A 
ATOM     10  C   LIG    1       25.635 -19.220   3.271  0.00  0.00    +0.006 A 
ATOM     11  C   LIG    1       24.772 -20.313   3.103  0.00  0.00    +0.000 A 
ATOM     12  C   LIG    1       23.448 -20.231   3.536  0.00  0.00    +0.000 A 
ATOM     13  C   LIG    1       22.963 -19.031   4.007  0.00  0.00    +0.000 A 
ATOM     14  C   LIG    1       23.809 -17.926   4.085  0.00  0.00    +0.006 A 
ENDBRANCH   1   9
BRANCH   1  15
ATOM     15  O   LIG    1       27.541 -17.259   3.789  0.00  0.00    -0.366 OA
BRANCH  15  16
ATOM     16  C   LIG    1       28.399 -17.462   4.908  0.00  0.00    +0.176 C 
BRANCH  16  17
ATOM     17  C   LIG    1       28.813 -18.931   5.084  0.00  0.00    +0.112 C 
BRANCH  17  19
ATOM     18  C   LIG    1       29.221 -20.488   6.892  0.00  0.00    +0.104 C 
ATOM     19  N   LIG    1       28.274 -19.526   6.328  0.00  0.00    -0.306 NA
ATOM     20  C   LIG    1       26.977 -20.179   6.137  0.00  0.00    +0.104 C 
ENDBRANCH  17  19
ENDBRANCH  16  17
ENDBRANCH  15  16
ENDBRANCH   1  15
TORSDOF 6
ENDMDL
MODEL 6
REMARK VINA RESULT:      -3.5      2.536      5.295
REMARK  Name = *****
REMARK                            x       y       z     vdW  Elec       q    Type
REMARK                         _______ _______ _______ _____ _____    ______ ____
ROOT
ATOM      1  C   LIG    1       24.587 -18.405   4.344  0.00  0.00    +0.178 C 
ENDROOT
BRANCH   1   2
ATOM      2  C   LIG    1       24.412 -16.917   3.961  0.00  0.00    -0.014 A 
ATOM      3  C   LIG    1       25.442 -16.115   3.410  0.00  0.00    +0.007 A 
ATOM      4  C   LIG    1       25.374 -14.723   3.379  0.00  0.00    +0.015 A 
ATOM      5  C   LIG    1       24.241 -14.084   3.837  0.00  0.00    +0.018 A 
ATOM      6 BR   LIG    1       24.201 -12.198   3.916  0.00  0.00    -0.050 Br
ATOM      7  C   LIG    1       23.143 -14.835   4.268  0.00  0.00    +0.015 A 
ATOM      8  C   LIG    1       23.239 -16.238   4.325  0.00  0.00    +0.007 A 
ENDBRANCH   1   2
BRANCH   1   9
ATOM      9  C   LIG    1       23.380 -19.322   4.575  0.00  0.00    -0.015 A 
ATOM     10  C   LIG    1       22.148 -19.052   3.961  0.00  0.00    +0.006 A 
ATOM     11  C   LIG    1       21.074 -19.948   4.055  0.00  0.00    +0.000 A 
ATOM     12  C   LIG    1       21.218 -21.141   4.763  0.00  0.00    +0.000 A 
ATOM     13  C   LIG    1       22.375 -21.370   5.475  0.00  0.00    +0.000 A 
ATOM     14  C   LIG    1       23.403 -20.429   5.445  0.00  0.00    +0.006 A 
ENDBRANCH   1   9
BRANCH   1  15
ATOM     15  O   LIG    1       25.590 -19.048   3.509  0.00  0.00    -0.366 OA
BRANCH  15  16
ATOM     16  C   LIG    1       26.363 -20.017   4.212  0.00  0.00    +0.176 C 
BRANCH  16  17
ATOM     17  C   LIG    1       27.475 -19.387   5.065  0.00  0.00    +0.112 C 
BRANCH  17  19
ATOM     18  C   LIG    1       26.783 -20.590   7.048  0.00  0.00    +0.104 C 
ATOM     19  N   LIG    1       27.909 -20.271   6.171  0.00  0.00    -0.306 NA
ATOM     20  C   LIG    1       28.997 -19.701   6.969  0.00  0.00    +0.104 C 
ENDBRANCH  17  19
ENDBRANCH  16  17
ENDBRANCH  15  16
ENDBRANCH   1  15
TORSDOF 6
ENDMDL
MODEL 7
REMARK VINA RESULT:      -3.5      1.962      4.877
REMARK  Name = *****
REMARK                            x       y       z     vdW  Elec       q    Type
REMARK                         _______ _______ _______ _____ _____    ______ ____
ROOT
ATOM      1  C   LIG    1       25.906 -18.026   4.180  0.00  0.00    +0.178 C 
ENDROOT
BRANCH   1   2
ATOM      2  C   LIG    1       24.599 -18.842   4.051  0.00  0.00    -0.014 A 
ATOM      3  C   LIG    1       23.307 -18.306   4.275  0.00  0.00    +0.007 A 
ATOM      4  C   LIG    1       22.186 -19.109   4.478  0.00  0.00    +0.015 A 
ATOM      5  C   LIG    1       22.304 -20.481   4.396  0.00  0.00    +0.018 A 
ATOM      6 BR   LIG    1       20.816 -21.571   4.798  0.00  0.00    -0.050 Br
ATOM      7  C   LIG    1       23.530 -21.054   4.046  0.00  0.00    +0.015 A 
ATOM      8  C   LIG    1       24.660 -20.233   3.877  0.00  0.00    +0.007 A 
ENDBRANCH   1   2
BRANCH   1   9
ATOM      9  C   LIG    1       27.162 -18.620   4.831  0.00  0.00    -0.015 A 
ATOM     10  C   LIG    1       28.358 -17.888   4.877  0.00  0.00    +0.006 A 
ATOM     11  C   LIG    1       29.475 -18.359   5.581  0.00  0.00    +0.000 A 
ATOM     12  C   LIG    1       29.410 -19.574   6.263  0.00  0.00    +0.000 A 
ATOM     13  C   LIG    1       28.291 -20.366   6.131  0.00  0.00    +0.000 A 
ATOM     14  C   LIG    1       27.220 -19.925   5.355  0.00  0.00    +0.006 A 
ENDBRANCH   1   9
BRANCH   1  15
ATOM     15  O   LIG    1       26.225 -17.345   2.935  0.00  0.00    -0.366 OA
BRANCH  15  16
ATOM     16  C   LIG    1       26.502 -15.959   3.112  0.00  0.00    +0.176 C 
BRANCH  16  17
ATOM     17  C   LIG    1       25.290 -15.171   3.633  0.00  0.00    +0.112 C 
BRANCH  17  19
ATOM     18  C   LIG    1       26.075 -13.051   2.769  0.00  0.00    +0.104 C 
ATOM     19  N   LIG    1       25.626 -13.767   3.963  0.00  0.00    -0.306 NA
ATOM     20  C   LIG    1       26.646 -13.652   5.009  0.00  0.00    +0.104 C 
ENDBRANCH  17  19
ENDBRANCH  16  17
ENDBRANCH  15  16
ENDBRANCH   1  15
TORSDOF 6
ENDMDL
MODEL 8
REMARK VINA RESULT:      -3.3      4.042      7.006
REMARK  Name = *****
REMARK                            x       y       z     vdW  Elec       q    Type
REMARK                         _______ _______ _______ _____ _____    ______ ____
ROOT
ATOM      1  C   LIG    1       24.556 -16.021   3.671  0.00  0.00    +0.178 C 
ENDROOT
BRANCH   1   2
ATOM      2  C   LIG    1       25.855 -15.230   3.952  0.00  0.00    -0.014 A 
ATOM      3  C   LIG    1       26.091 -14.491   5.137  0.00  0.00    +0.007 A 
ATOM      4  C   LIG    1       27.100 -13.533   5.236  0.00  0.00    +0.015 A 
ATOM      5  C   LIG    1       27.955 -13.329   4.173  0.00  0.00    +0.018 A 
ATOM      6 BR   LIG    1       29.237 -11.945   4.259  0.00  0.00    -0.050 Br
ATOM      7  C   LIG    1       27.848 -14.127   3.030  0.00  0.00    +0.015 A 
ATOM      8  C   LIG    1       26.804 -15.066   2.931  0.00  0.00    +0.007 A 
ENDBRANCH   1   2
BRANCH   1   9
ATOM      9  C   LIG    1       24.522 -17.553   3.718  0.00  0.00    -0.015 A 
ATOM     10  C   LIG    1       25.662 -18.304   3.394  0.00  0.00    +0.006 A 
ATOM     11  C   LIG    1       25.690 -19.696   3.557  0.00  0.00    +0.000 A 
ATOM     12  C   LIG    1       24.573 -20.364   4.059  0.00  0.00    +0.000 A 
ATOM     13  C   LIG    1       23.404 -19.665   4.269  0.00  0.00    +0.000 A 
ATOM     14  C   LIG    1       23.364 -18.295   4.018  0.00  0.00    +0.006 A 
ENDBRANCH   1   9
BRANCH   1  15
ATOM     15  O   LIG    1       23.426 -15.443   4.381  0.00  0.00    -0.366 OA
BRANCH  15  16
ATOM     16  C   LIG    1       23.401 -14.020   4.329  0.00  0.00    +0.176 C 
BRANCH  16  17
ATOM     17  C   LIG    1       23.473 -13.475   2.894  0.00  0.00    +0.112 C 
BRANCH  17  19
ATOM     18  C   LIG    1       25.061 -11.839   2.081  0.00  0.00    +0.104 C 
ATOM     19  N   LIG    1       23.833 -12.039   2.851  0.00  0.00    -0.306 NA
ATOM     20  C   LIG    1       23.994 -11.448   4.181  0.00  0.00    +0.104 C 
ENDBRANCH  17  19
ENDBRANCH  16  17
ENDBRANCH  15  16
ENDBRANCH   1  15
TORSDOF 6
ENDMDL
MODEL 9
REMARK VINA RESULT:      -3.1      3.022      5.259
REMARK  Name = *****
REMARK                            x       y       z     vdW  Elec       q    Type
REMARK                         _______ _______ _______ _____ _____    ______ ____
ROOT
ATOM      1  C   LIG    1       26.185 -15.248   3.401  0.00  0.00    +0.178 C 
ENDROOT
BRANCH   1   2
ATOM      2  C   LIG    1       26.343 -16.770   3.624  0.00  0.00    -0.014 A 
ATOM      3  C   LIG    1       25.341 -17.722   3.316  0.00  0.00    +0.007 A 
ATOM      4  C   LIG    1       25.362 -19.023   3.818  0.00  0.00    +0.015 A 
ATOM      5  C   LIG    1       26.425 -19.439   4.592  0.00  0.00    +0.018 A 
ATOM      6 BR   LIG    1       26.391 -21.156   5.378  0.00  0.00    -0.050 Br
ATOM      7  C   LIG    1       27.503 -18.578   4.815  0.00  0.00    +0.015 A 
ATOM      8  C   LIG    1       27.452 -17.258   4.330  0.00  0.00    +0.007 A 
ENDBRANCH   1   2
BRANCH   1   9
ATOM      9  C   LIG    1       27.154 -14.239   4.030  0.00  0.00    -0.015 A 
ATOM     10  C   LIG    1       28.292 -13.809   3.331  0.00  0.00    +0.006 A 
ATOM     11  C   LIG    1       29.117 -12.793   3.834  0.00  0.00    +0.000 A 
ATOM     12  C   LIG    1       28.809 -12.180   5.048  0.00  0.00    +0.000 A 
ATOM     13  C   LIG    1       27.769 -12.667   5.809  0.00  0.00    +0.000 A 
ATOM     14  C   LIG    1       27.011 -13.738   5.338  0.00  0.00    +0.006 A 
ENDBRANCH   1   9
BRANCH   1  15
ATOM     15  O   LIG    1       25.939 -14.945   2.000  0.00  0.00    -0.366 OA
BRANCH  15  16
ATOM     16  C   LIG    1       24.964 -13.923   1.812  0.00  0.00    +0.176 C 
BRANCH  16  17
ATOM     17  C   LIG    1       24.048 -13.742   3.032  0.00  0.00    +0.112 C 
BRANCH  17  19
ATOM     18  C   LIG    1       24.622 -11.447   2.521  0.00  0.00    +0.104 C 
ATOM     19  N   LIG    1       23.753 -12.318   3.313  0.00  0.00    -0.306 NA
ATOM     20  C   LIG    1       23.885 -11.974   4.730  0.00  0.00    +0.104 C 
ENDBRANCH  17  19
ENDBRANCH  16  17
ENDBRANCH  15  16
ENDBRANCH   1  15
TORSDOF 6
ENDMDL
