MODEL 1
REMARK VINA RESULT:      -4.5      0.000      0.000
REMARK  Name = *****
REMARK                            x       y       z     vdW  Elec       q    Type
REMARK                         _______ _______ _______ _____ _____    ______ ____
ROOT
ATOM      1  C   LIG    1       30.708 -19.491   8.289  0.00  0.00    +0.086 C 
ENDROOT
BRANCH   1   2
ATOM      2  N   LIG    1       29.294 -19.197   8.682  0.00  0.00    -0.319 NA
ATOM      3  H   LIG    1       29.322 -18.880   9.655  0.00  0.00    +0.119 HD
ATOM      4  H   LIG    1       29.013 -18.368   8.147  0.00  0.00    +0.119 HD
ENDBRANCH   1   2
BRANCH   1   5
ATOM      5  C   LIG    1       31.657 -18.521   9.032  0.00  0.00    +0.182 C 
BRANCH   5   6
ATOM      6  O   LIG    1       32.242 -17.585   8.121  0.00  0.00    -0.393 OA
ATOM      7  H   LIG    1       31.506 -17.120   7.692  0.00  0.00    +0.209 HD
ENDBRANCH   5   6
ENDBRANCH   1   5
BRANCH   1   8
ATOM      8  C   LIG    1       30.881 -19.321   6.761  0.00  0.00    +0.182 C 
BRANCH   8   9
ATOM      9  O   LIG    1       30.043 -18.268   6.275  0.00  0.00    -0.393 OA
ATOM     10  H   LIG    1       29.142 -18.625   6.230  0.00  0.00    +0.209 HD
ENDBRANCH   8   9
ENDBRANCH   1   8
BRANCH   1  11
ATOM     11  C   LIG    1       31.000 -20.949   8.704  0.00  0.00    +0.182 C 
BRANCH  11  12
ATOM     12  O   LIG    1       32.265 -21.025   9.367  0.00  0.00    -0.393 OA
ATOM     13  H   LIG    1       32.915 -20.989   8.633  0.00  0.00    +0.209 HD
ENDBRANCH  11  12
ENDBRANCH   1  11
TORSDOF 7
ENDMDL
MODEL 2
REMARK VINA RESULT:      -4.5      0.033      2.815
REMARK  Name = *****
REMARK                            x       y       z     vdW  Elec       q    Type
REMARK                         _______ _______ _______ _____ _____    ______ ____
ROOT
ATOM      1  C   LIG    1       30.718 -19.502   8.291  0.00  0.00    +0.086 C 
ENDROOT
BRANCH   1   2
ATOM      2  N   LIG    1       29.302 -19.176   8.649  0.00  0.00    -0.319 NA
ATOM      3  H   LIG    1       29.282 -19.042   9.664  0.00  0.00    +0.119 HD
ATOM      4  H   LIG    1       29.115 -18.246   8.260  0.00  0.00    +0.119 HD
ENDBRANCH   1   2
BRANCH   1   5
ATOM      5  C   LIG    1       31.026 -20.963   8.699  0.00  0.00    +0.182 C 
BRANCH   5   6
ATOM      6  O   LIG    1       32.284 -21.047   9.376  0.00  0.00    -0.393 OA
ATOM      7  H   LIG    1       32.577 -21.970   9.300  0.00  0.00    +0.209 HD
ENDBRANCH   5   6
ENDBRANCH   1   5
BRANCH   1   8
ATOM      8  C   LIG    1       31.686 -18.542   9.023  0.00  0.00    +0.182 C 
BRANCH   8   9
ATOM      9  O   LIG    1       32.219 -17.576   8.112  0.00  0.00    -0.393 OA
ATOM     10  H   LIG    1       31.492 -16.975   7.884  0.00  0.00    +0.209 HD
ENDBRANCH   8   9
ENDBRANCH   1   8
BRANCH   1  11
ATOM     11  C   LIG    1       30.850 -19.335   6.761  0.00  0.00    +0.182 C 
BRANCH  11  12
ATOM     12  O   LIG    1       30.015 -18.265   6.312  0.00  0.00    -0.393 OA
ATOM     13  H   LIG    1       30.652 -17.592   5.990  0.00  0.00    +0.209 HD
ENDBRANCH  11  12
ENDBRANCH   1  11
TORSDOF 7
ENDMDL
MODEL 3
REMARK VINA RESULT:      -4.5      2.028      2.808
REMARK  Name = *****
REMARK                            x       y       z     vdW  Elec       q    Type
REMARK                         _______ _______ _______ _____ _____    ______ ____
ROOT
ATOM      1  C   LIG    1       30.906 -19.754   8.200  0.00  0.00    +0.086 C 
ENDROOT
BRANCH   1   2
ATOM      2  N   LIG    1       31.804 -19.712   7.004  0.00  0.00    -0.319 NA
ATOM      3  H   LIG    1       32.545 -19.038   7.219  0.00  0.00    +0.119 HD
ATOM      4  H   LIG    1       32.280 -20.620   6.970  0.00  0.00    +0.119 HD
ENDBRANCH   1   2
BRANCH   1   5
ATOM      5  C   LIG    1       29.464 -19.392   7.770  0.00  0.00    +0.182 C 
BRANCH   5   6
ATOM      6  O   LIG    1       28.508 -20.188   8.479  0.00  0.00    -0.393 OA
ATOM      7  H   LIG    1       27.637 -19.959   8.118  0.00  0.00    +0.209 HD
ENDBRANCH   5   6
ENDBRANCH   1   5
BRANCH   1   8
ATOM      8  C   LIG    1       31.399 -18.750   9.269  0.00  0.00    +0.182 C 
BRANCH   8   9
ATOM      9  O   LIG    1       30.654 -18.902  10.482  0.00  0.00    -0.393 OA
ATOM     10  H   LIG    1       29.729 -19.046  10.226  0.00  0.00    +0.209 HD
ENDBRANCH   8   9
ENDBRANCH   1   8
BRANCH   1  11
ATOM     11  C   LIG    1       30.954 -21.195   8.753  0.00  0.00    +0.182 C 
BRANCH  11  12
ATOM     12  O   LIG    1       32.154 -21.391   9.505  0.00  0.00    -0.393 OA
ATOM     13  H   LIG    1       32.697 -21.971   8.929  0.00  0.00    +0.209 HD
ENDBRANCH  11  12
ENDBRANCH   1  11
TORSDOF 7
ENDMDL
MODEL 4
REMARK VINA RESULT:      -4.5      0.033      2.813
REMARK  Name = *****
REMARK                            x       y       z     vdW  Elec       q    Type
REMARK                         _______ _______ _______ _____ _____    ______ ____
ROOT
ATOM      1  C   LIG    1       30.690 -19.513   8.286  0.00  0.00    +0.086 C 
ENDROOT
BRANCH   1   2
ATOM      2  N   LIG    1       29.283 -19.178   8.673  0.00  0.00    -0.319 NA
ATOM      3  H   LIG    1       28.735 -19.179   7.808  0.00  0.00    +0.119 HD
ATOM      4  H   LIG    1       28.932 -19.983   9.203  0.00  0.00    +0.119 HD
ENDBRANCH   1   2
BRANCH   1   5
ATOM      5  C   LIG    1       30.853 -19.344   6.756  0.00  0.00    +0.182 C 
BRANCH   5   6
ATOM      6  O   LIG    1       30.051 -18.259   6.277  0.00  0.00    -0.393 OA
ATOM      7  H   LIG    1       29.400 -18.069   6.971  0.00  0.00    +0.209 HD
ENDBRANCH   5   6
ENDBRANCH   1   5
BRANCH   1   8
ATOM      8  C   LIG    1       31.019 -20.970   8.688  0.00  0.00    +0.182 C 
BRANCH   8   9
ATOM      9  O   LIG    1       32.271 -21.030   9.378  0.00  0.00    -0.393 OA
ATOM     10  H   LIG    1       32.633 -21.916   9.224  0.00  0.00    +0.209 HD
ENDBRANCH   8   9
ENDBRANCH   1   8
BRANCH   1  11
ATOM     11  C   LIG    1       31.613 -18.527   9.034  0.00  0.00    +0.182 C 
BRANCH  11  12
ATOM     12  O   LIG    1       32.230 -17.633   8.105  0.00  0.00    -0.393 OA
ATOM     13  H   LIG    1       31.512 -17.007   7.871  0.00  0.00    +0.209 HD
ENDBRANCH  11  12
ENDBRANCH   1  11
TORSDOF 7
ENDMDL
MODEL 5
REMARK VINA RESULT:      -4.5      2.049      2.796
REMARK  Name = *****
REMARK                            x       y       z     vdW  Elec       q    Type
REMARK                         _______ _______ _______ _____ _____    ______ ____
ROOT
ATOM      1  C   LIG    1       30.853 -19.856   8.239  0.00  0.00    +0.086 C 
ENDROOT
BRANCH   1   2
ATOM      2  N   LIG    1       31.641 -19.742   6.972  0.00  0.00    -0.319 NA
ATOM      3  H   LIG    1       32.242 -20.570   6.928  0.00  0.00    +0.119 HD
ATOM      4  H   LIG    1       30.971 -19.865   6.205  0.00  0.00    +0.119 HD
ENDBRANCH   1   2
BRANCH   1   5
ATOM      5  C   LIG    1       31.000 -21.288   8.806  0.00  0.00    +0.182 C 
BRANCH   5   6
ATOM      6  O   LIG    1       32.238 -21.431   9.510  0.00  0.00    -0.393 OA
ATOM      7  H   LIG    1       32.759 -22.089   9.021  0.00  0.00    +0.209 HD
ENDBRANCH   5   6
ENDBRANCH   1   5
BRANCH   1   8
ATOM      8  C   LIG    1       29.361 -19.554   7.966  0.00  0.00    +0.182 C 
BRANCH   8   9
ATOM      9  O   LIG    1       28.552 -20.692   8.282  0.00  0.00    -0.393 OA
ATOM     10  H   LIG    1       27.799 -20.365   8.800  0.00  0.00    +0.209 HD
ENDBRANCH   8   9
ENDBRANCH   1   8
BRANCH   1  11
ATOM     11  C   LIG    1       31.436 -18.826   9.232  0.00  0.00    +0.182 C 
BRANCH  11  12
ATOM     12  O   LIG    1       30.775 -18.935  10.495  0.00  0.00    -0.393 OA
ATOM     13  H   LIG    1       30.607 -18.003  10.751  0.00  0.00    +0.209 HD
ENDBRANCH  11  12
ENDBRANCH   1  11
TORSDOF 7
ENDMDL
MODEL 6
REMARK VINA RESULT:      -4.5      2.028      2.996
REMARK  Name = *****
REMARK                            x       y       z     vdW  Elec       q    Type
REMARK                         _______ _______ _______ _____ _____    ______ ____
ROOT
ATOM      1  C   LIG    1       30.871 -19.834   8.218  0.00  0.00    +0.086 C 
ENDROOT
BRANCH   1   2
ATOM      2  N   LIG    1       31.595 -19.728   6.913  0.00  0.00    -0.319 NA
ATOM      3  H   LIG    1       30.993 -19.182   6.290  0.00  0.00    +0.119 HD
ATOM      4  H   LIG    1       32.408 -19.125   7.083  0.00  0.00    +0.119 HD
ENDBRANCH   1   2
BRANCH   1   5
ATOM      5  C   LIG    1       31.480 -18.828   9.224  0.00  0.00    +0.182 C 
BRANCH   5   6
ATOM      6  O   LIG    1       30.818 -18.912  10.491  0.00  0.00    -0.393 OA
ATOM      7  H   LIG    1       31.126 -18.154  11.013  0.00  0.00    +0.209 HD
ENDBRANCH   5   6
ENDBRANCH   1   5
BRANCH   1   8
ATOM      8  C   LIG    1       30.995 -21.271   8.779  0.00  0.00    +0.182 C 
BRANCH   8   9
ATOM      9  O   LIG    1       32.215 -21.421   9.511  0.00  0.00    -0.393 OA
ATOM     10  H   LIG    1       31.976 -21.458  10.451  0.00  0.00    +0.209 HD
ENDBRANCH   8   9
ENDBRANCH   1   8
BRANCH   1  11
ATOM     11  C   LIG    1       29.391 -19.489   7.947  0.00  0.00    +0.182 C 
BRANCH  11  12
ATOM     12  O   LIG    1       28.555 -20.585   8.327  0.00  0.00    -0.393 OA
ATOM     13  H   LIG    1       28.652 -21.221   7.586  0.00  0.00    +0.209 HD
ENDBRANCH  11  12
ENDBRANCH   1  11
TORSDOF 7
ENDMDL
MODEL 7
REMARK VINA RESULT:      -4.1      2.160      2.858
REMARK  Name = *****
REMARK                            x       y       z     vdW  Elec       q    Type
REMARK                         _______ _______ _______ _____ _____    ______ ____
ROOT
ATOM      1  C   LIG    1       31.307 -18.243   8.959  0.00  0.00    +0.086 C 
ENDROOT
BRANCH   1   2
ATOM      2  N   LIG    1       31.990 -19.463   9.493  0.00  0.00    -0.319 NA
ATOM      3  H   LIG    1       31.665 -19.581  10.456  0.00  0.00    +0.119 HD
ATOM      4  H   LIG    1       31.592 -20.260   8.985  0.00  0.00    +0.119 HD
ENDBRANCH   1   2
BRANCH   1   5
ATOM      5  C   LIG    1       32.253 -17.026   9.095  0.00  0.00    +0.182 C 
BRANCH   5   6
ATOM      6  O   LIG    1       32.998 -17.097  10.316  0.00  0.00    -0.393 OA
ATOM      7  H   LIG    1       33.886 -16.756  10.117  0.00  0.00    +0.209 HD
ENDBRANCH   5   6
ENDBRANCH   1   5
BRANCH   1   8
ATOM      8  C   LIG    1       30.001 -17.978   9.746  0.00  0.00    +0.182 C 
BRANCH   8   9
ATOM      9  O   LIG    1       30.123 -16.792  10.537  0.00  0.00    -0.393 OA
ATOM     10  H   LIG    1       29.326 -16.740  11.088  0.00  0.00    +0.209 HD
ENDBRANCH   8   9
ENDBRANCH   1   8
BRANCH   1  11
ATOM     11  C   LIG    1       30.992 -18.512   7.472  0.00  0.00    +0.182 C 
BRANCH  11  12
ATOM     12  O   LIG    1       31.618 -19.726   7.051  0.00  0.00    -0.393 OA
ATOM     13  H   LIG    1       31.333 -20.381   7.724  0.00  0.00    +0.209 HD
ENDBRANCH  11  12
ENDBRANCH   1  11
TORSDOF 7
ENDMDL
MODEL 8
REMARK VINA RESULT:      -4.0      8.028      8.683
REMARK  Name = *****
REMARK                            x       y       z     vdW  Elec       q    Type
REMARK                         _______ _______ _______ _____ _____    ______ ____
ROOT
ATOM      1  C   LIG    1       23.526 -22.157   6.588  0.00  0.00    +0.086 C 
ENDROOT
BRANCH   1   2
ATOM      2  N   LIG    1       23.848 -21.614   7.945  0.00  0.00    -0.319 NA
ATOM      3  H   LIG    1       24.409 -22.328   8.419  0.00  0.00    +0.119 HD
ATOM      4  H   LIG    1       24.496 -20.833   7.795  0.00  0.00    +0.119 HD
ENDBRANCH   1   2
BRANCH   1   5
ATOM      5  C   LIG    1       24.831 -22.623   5.900  0.00  0.00    +0.182 C 
BRANCH   5   6
ATOM      6  O   LIG    1       24.622 -22.825   4.498  0.00  0.00    -0.393 OA
ATOM      7  H   LIG    1       25.122 -22.129   4.042  0.00  0.00    +0.209 HD
ENDBRANCH   5   6
ENDBRANCH   1   5
BRANCH   1   8
ATOM      8  C   LIG    1       22.844 -21.067   5.728  0.00  0.00    +0.182 C 
BRANCH   8   9
ATOM      9  O   LIG    1       21.819 -21.640   4.910  0.00  0.00    -0.393 OA
ATOM     10  H   LIG    1       21.665 -21.021   4.180  0.00  0.00    +0.209 HD
ENDBRANCH   8   9
ENDBRANCH   1   8
BRANCH   1  11
ATOM     11  C   LIG    1       22.572 -23.354   6.793  0.00  0.00    +0.182 C 
BRANCH  11  12
ATOM     12  O   LIG    1       23.205 -24.563   6.365  0.00  0.00    -0.393 OA
ATOM     13  H   LIG    1       24.162 -24.346   6.389  0.00  0.00    +0.209 HD
ENDBRANCH  11  12
ENDBRANCH   1  11
TORSDOF 7
ENDMDL
MODEL 9
REMARK VINA RESULT:      -3.9      7.364      8.173
REMARK  Name = *****
REMARK                            x       y       z     vdW  Elec       q    Type
REMARK                         _______ _______ _______ _____ _____    ______ ____
ROOT
ATOM      1  C   LIG    1       24.838 -23.082   6.004  0.00  0.00    +0.086 C 
ENDROOT
BRANCH   1   2
ATOM      2  N   LIG    1       24.621 -22.413   4.683  0.00  0.00    -0.319 NA
ATOM      3  H   LIG    1       24.405 -21.433   4.885  0.00  0.00    +0.119 HD
ATOM      4  H   LIG    1       25.536 -22.387   4.220  0.00  0.00    +0.119 HD
ENDBRANCH   1   2
BRANCH   1   5
ATOM      5  C   LIG    1       23.515 -23.071   6.807  0.00  0.00    +0.182 C 
BRANCH   5   6
ATOM      6  O   LIG    1       22.786 -24.286   6.599  0.00  0.00    -0.393 OA
ATOM      7  H   LIG    1       22.224 -24.407   7.382  0.00  0.00    +0.209 HD
ENDBRANCH   5   6
ENDBRANCH   1   5
BRANCH   1   8
ATOM      8  C   LIG    1       25.937 -22.340   6.801  0.00  0.00    +0.182 C 
BRANCH   8   9
ATOM      9  O   LIG    1       26.523 -21.305   6.005  0.00  0.00    -0.393 OA
ATOM     10  H   LIG    1       27.286 -21.697   5.553  0.00  0.00    +0.209 HD
ENDBRANCH   8   9
ENDBRANCH   1   8
BRANCH   1  11
ATOM     11  C   LIG    1       25.275 -24.534   5.712  0.00  0.00    +0.182 C 
BRANCH  11  12
ATOM     12  O   LIG    1       24.811 -24.934   4.420  0.00  0.00    -0.393 OA
ATOM     13  H   LIG    1       25.056 -25.883   4.368  0.00  0.00    +0.209 HD
ENDBRANCH  11  12
ENDBRANCH   1  11
TORSDOF 7
ENDMDL
