MODEL 1
REMARK VINA RESULT:      -5.6      0.000      0.000
REMARK  Name = *****
REMARK                            x       y       z     vdW  Elec       q    Type
REMARK                         _______ _______ _______ _____ _____    ______ ____
ROOT
ATOM      1  C   LIG    1       24.090 -20.323   4.200  0.00  0.00    +0.161 C 
ENDROOT
BRANCH   1   2
ATOM      2  C   LIG    1       25.311 -20.419   5.086  0.00  0.00    -0.014 A 
ATOM      3  C   LIG    1       26.476 -19.710   4.752  0.00  0.00    +0.051 A 
ATOM      4  C   LIG    1       27.602 -19.788   5.568  0.00  0.00    +0.117 A 
ATOM      5  C   LIG    1       27.597 -20.564   6.720  0.00  0.00    +0.045 A 
ATOM      6  C   LIG    1       26.448 -21.277   7.059  0.00  0.00    +0.004 A 
ATOM      7  C   LIG    1       25.313 -21.208   6.245  0.00  0.00    +0.006 A 
BRANCH   4   8
ATOM      8  O   LIG    1       28.703 -19.076   5.194  0.00  0.00    -0.507 OA
ATOM      9  H   LIG    1       29.295 -19.002   5.961  0.00  0.00    +0.292 HD
ENDBRANCH   4   8
ENDBRANCH   1   2
BRANCH   1  11
ATOM     10  C   LIG    1       22.061 -18.763   4.439  0.00  0.00    +0.027 C 
ATOM     11  C   LIG    1       22.763 -20.016   4.955  0.00  0.00    +0.081 C 
BRANCH  11  12
ATOM     12  N   LIG    1       21.860 -21.189   4.842  0.00  0.00    -0.325 NA
ATOM     13  H   LIG    1       22.420 -22.042   4.897  0.00  0.00    +0.118 HD
ATOM     14  H   LIG    1       21.246 -21.218   5.658  0.00  0.00    +0.118 HD
ENDBRANCH  11  12
ENDBRANCH   1  11
BRANCH   1  15
ATOM     15  O   LIG    1       23.934 -21.572   3.511  0.00  0.00    -0.386 OA
ATOM     16  H   LIG    1       23.078 -21.479   3.047  0.00  0.00    +0.210 HD
ENDBRANCH   1  15
TORSDOF 5
ENDMDL
MODEL 2
REMARK VINA RESULT:      -4.9      2.641      4.843
REMARK  Name = *****
REMARK                            x       y       z     vdW  Elec       q    Type
REMARK                         _______ _______ _______ _____ _____    ______ ____
ROOT
ATOM      1  C   LIG    1       27.745 -19.970   5.420  0.00  0.00    +0.161 C 
ENDROOT
BRANCH   1   2
ATOM      2  C   LIG    1       26.249 -20.164   5.519  0.00  0.00    -0.014 A 
ATOM      3  C   LIG    1       25.422 -19.791   4.447  0.00  0.00    +0.051 A 
ATOM      4  C   LIG    1       24.044 -19.974   4.529  0.00  0.00    +0.117 A 
ATOM      5  C   LIG    1       23.462 -20.523   5.664  0.00  0.00    +0.045 A 
ATOM      6  C   LIG    1       24.272 -20.893   6.737  0.00  0.00    +0.004 A 
ATOM      7  C   LIG    1       25.657 -20.710   6.667  0.00  0.00    +0.006 A 
BRANCH   4   8
ATOM      8  O   LIG    1       23.292 -19.594   3.456  0.00  0.00    -0.507 OA
ATOM      9  H   LIG    1       23.283 -18.623   3.416  0.00  0.00    +0.292 HD
ENDBRANCH   4   8
ENDBRANCH   1   2
BRANCH   1  11
ATOM     10  C   LIG    1       29.200 -21.310   7.062  0.00  0.00    +0.027 C 
ATOM     11  C   LIG    1       28.493 -19.986   6.786  0.00  0.00    +0.081 C 
BRANCH  11  12
ATOM     12  N   LIG    1       29.472 -18.871   6.814  0.00  0.00    -0.325 NA
ATOM     13  H   LIG    1       30.072 -18.981   7.633  0.00  0.00    +0.118 HD
ATOM     14  H   LIG    1       30.097 -18.954   6.010  0.00  0.00    +0.118 HD
ENDBRANCH  11  12
ENDBRANCH   1  11
BRANCH   1  15
ATOM     15  O   LIG    1       27.996 -18.708   4.787  0.00  0.00    -0.386 OA
ATOM     16  H   LIG    1       27.683 -18.050   5.441  0.00  0.00    +0.210 HD
ENDBRANCH   1  15
TORSDOF 5
ENDMDL
MODEL 3
REMARK VINA RESULT:      -4.9      2.665      4.938
REMARK  Name = *****
REMARK                            x       y       z     vdW  Elec       q    Type
REMARK                         _______ _______ _______ _____ _____    ______ ____
ROOT
ATOM      1  C   LIG    1       27.417 -19.953   5.229  0.00  0.00    +0.161 C 
ENDROOT
BRANCH   1   2
ATOM      2  C   LIG    1       25.916 -20.092   5.122  0.00  0.00    -0.014 A 
ATOM      3  C   LIG    1       25.198 -20.745   6.136  0.00  0.00    +0.051 A 
ATOM      4  C   LIG    1       23.814 -20.870   6.046  0.00  0.00    +0.117 A 
ATOM      5  C   LIG    1       23.120 -20.357   4.958  0.00  0.00    +0.045 A 
ATOM      6  C   LIG    1       23.822 -19.710   3.942  0.00  0.00    +0.004 A 
ATOM      7  C   LIG    1       25.212 -19.583   4.021  0.00  0.00    +0.006 A 
BRANCH   4   8
ATOM      8  O   LIG    1       23.170 -21.513   7.062  0.00  0.00    -0.507 OA
ATOM      9  H   LIG    1       23.802 -21.649   7.788  0.00  0.00    +0.292 HD
ENDBRANCH   4   8
ENDBRANCH   1   2
BRANCH   1  11
ATOM     10  C   LIG    1       28.262 -21.544   7.062  0.00  0.00    +0.027 C 
ATOM     11  C   LIG    1       27.981 -20.096   6.673  0.00  0.00    +0.081 C 
BRANCH  11  12
ATOM     12  N   LIG    1       29.220 -19.287   6.791  0.00  0.00    -0.325 NA
ATOM     13  H   LIG    1       29.430 -18.873   5.881  0.00  0.00    +0.118 HD
ATOM     14  H   LIG    1       29.045 -18.495   7.413  0.00  0.00    +0.118 HD
ENDBRANCH  11  12
ENDBRANCH   1  11
BRANCH   1  15
ATOM     15  O   LIG    1       27.786 -18.659   4.731  0.00  0.00    -0.386 OA
ATOM     16  H   LIG    1       28.676 -18.507   5.108  0.00  0.00    +0.210 HD
ENDBRANCH   1  15
TORSDOF 5
ENDMDL
MODEL 4
REMARK VINA RESULT:      -4.3      7.217      8.710
REMARK  Name = *****
REMARK                            x       y       z     vdW  Elec       q    Type
REMARK                         _______ _______ _______ _____ _____    ______ ____
ROOT
ATOM      1  C   LIG    1       26.661 -14.509   3.829  0.00  0.00    +0.161 C 
ENDROOT
BRANCH   1   2
ATOM      2  C   LIG    1       25.646 -13.443   3.486  0.00  0.00    -0.014 A 
ATOM      3  C   LIG    1       24.820 -12.913   4.489  0.00  0.00    +0.051 A 
ATOM      4  C   LIG    1       23.888 -11.925   4.180  0.00  0.00    +0.117 A 
ATOM      5  C   LIG    1       23.757 -11.448   2.883  0.00  0.00    +0.045 A 
ATOM      6  C   LIG    1       24.568 -11.969   1.876  0.00  0.00    +0.004 A 
ATOM      7  C   LIG    1       25.504 -12.964   2.175  0.00  0.00    +0.006 A 
BRANCH   4   8
ATOM      8  O   LIG    1       23.114 -11.447   5.196  0.00  0.00    -0.507 OA
ATOM      9  H   LIG    1       23.684 -11.291   5.968  0.00  0.00    +0.292 HD
ENDBRANCH   4   8
ENDBRANCH   1   2
BRANCH   1  11
ATOM     10  C   LIG    1       28.719 -12.978   3.671  0.00  0.00    +0.027 C 
ATOM     11  C   LIG    1       27.949 -13.980   4.526  0.00  0.00    +0.081 C 
BRANCH  11  12
ATOM     12  N   LIG    1       27.578 -13.363   5.824  0.00  0.00    -0.325 NA
ATOM     13  H   LIG    1       28.086 -13.839   6.572  0.00  0.00    +0.118 HD
ATOM     14  H   LIG    1       27.913 -12.398   5.844  0.00  0.00    +0.118 HD
ENDBRANCH  11  12
ENDBRANCH   1  11
BRANCH   1  15
ATOM     15  O   LIG    1       27.048 -15.170   2.616  0.00  0.00    -0.386 OA
ATOM     16  H   LIG    1       27.522 -14.479   2.112  0.00  0.00    +0.210 HD
ENDBRANCH   1  15
TORSDOF 5
ENDMDL
MODEL 5
REMARK VINA RESULT:      -4.1      7.176      7.483
REMARK  Name = *****
REMARK                            x       y       z     vdW  Elec       q    Type
REMARK                         _______ _______ _______ _____ _____    ______ ____
ROOT
ATOM      1  C   LIG    1       24.437 -13.703   3.207  0.00  0.00    +0.161 C 
ENDROOT
BRANCH   1   2
ATOM      2  C   LIG    1       25.751 -13.565   3.941  0.00  0.00    -0.014 A 
ATOM      3  C   LIG    1       26.947 -13.429   3.219  0.00  0.00    +0.051 A 
ATOM      4  C   LIG    1       28.160 -13.294   3.890  0.00  0.00    +0.117 A 
ATOM      5  C   LIG    1       28.212 -13.291   5.278  0.00  0.00    +0.045 A 
ATOM      6  C   LIG    1       27.031 -13.430   6.007  0.00  0.00    +0.004 A 
ATOM      7  C   LIG    1       25.809 -13.570   5.343  0.00  0.00    +0.006 A 
BRANCH   4   8
ATOM      8  O   LIG    1       29.288 -13.164   3.135  0.00  0.00    -0.507 OA
ATOM      9  H   LIG    1       29.218 -12.345   2.616  0.00  0.00    +0.292 HD
ENDBRANCH   4   8
ENDBRANCH   1   2
BRANCH   1  11
ATOM     10  C   LIG    1       23.715 -11.453   4.217  0.00  0.00    +0.027 C 
ATOM     11  C   LIG    1       23.667 -12.367   2.996  0.00  0.00    +0.081 C 
BRANCH  11  12
ATOM     12  N   LIG    1       24.229 -11.666   1.814  0.00  0.00    -0.325 NA
ATOM     13  H   LIG    1       25.134 -12.081   1.585  0.00  0.00    +0.118 HD
ATOM     14  H   LIG    1       23.636 -11.850   1.002  0.00  0.00    +0.118 HD
ENDBRANCH  11  12
ENDBRANCH   1  11
BRANCH   1  15
ATOM     15  O   LIG    1       23.595 -14.592   3.954  0.00  0.00    -0.386 OA
ATOM     16  H   LIG    1       24.040 -15.459   3.877  0.00  0.00    +0.210 HD
ENDBRANCH   1  15
TORSDOF 5
ENDMDL
MODEL 6
REMARK VINA RESULT:      -4.1      1.895      4.838
REMARK  Name = *****
REMARK                            x       y       z     vdW  Elec       q    Type
REMARK                         _______ _______ _______ _____ _____    ______ ____
ROOT
ATOM      1  C   LIG    1       25.991 -19.859   4.228  0.00  0.00    +0.161 C 
ENDROOT
BRANCH   1   2
ATOM      2  C   LIG    1       24.498 -19.634   4.293  0.00  0.00    -0.014 A 
ATOM      3  C   LIG    1       23.642 -20.701   4.611  0.00  0.00    +0.051 A 
ATOM      4  C   LIG    1       22.266 -20.499   4.680  0.00  0.00    +0.117 A 
ATOM      5  C   LIG    1       21.715 -19.247   4.437  0.00  0.00    +0.045 A 
ATOM      6  C   LIG    1       22.554 -18.181   4.117  0.00  0.00    +0.004 A 
ATOM      7  C   LIG    1       23.936 -18.374   4.041  0.00  0.00    +0.006 A 
BRANCH   4   8
ATOM      8  O   LIG    1       21.485 -21.572   4.994  0.00  0.00    -0.507 OA
ATOM      9  H   LIG    1       21.217 -22.008   4.167  0.00  0.00    +0.292 HD
ENDBRANCH   4   8
ENDBRANCH   1   2
BRANCH   1  11
ATOM     10  C   LIG    1       27.962 -19.923   5.877  0.00  0.00    +0.027 C 
ATOM     11  C   LIG    1       26.606 -20.514   5.499  0.00  0.00    +0.081 C 
BRANCH  11  12
ATOM     12  N   LIG    1       25.654 -20.366   6.628  0.00  0.00    -0.325 NA
ATOM     13  H   LIG    1       25.004 -21.154   6.615  0.00  0.00    +0.118 HD
ATOM     14  H   LIG    1       26.163 -20.452   7.510  0.00  0.00    +0.118 HD
ENDBRANCH  11  12
ENDBRANCH   1  11
BRANCH   1  15
ATOM     15  O   LIG    1       26.629 -18.590   4.025  0.00  0.00    -0.386 OA
ATOM     16  H   LIG    1       26.549 -18.145   4.893  0.00  0.00    +0.210 HD
ENDBRANCH   1  15
TORSDOF 5
ENDMDL
MODEL 7
REMARK VINA RESULT:      -4.0      6.244      7.756
REMARK  Name = *****
REMARK                            x       y       z     vdW  Elec       q    Type
REMARK                         _______ _______ _______ _____ _____    ______ ____
ROOT
ATOM      1  C   LIG    1       27.161 -14.942   3.263  0.00  0.00    +0.161 C 
ENDROOT
BRANCH   1   2
ATOM      2  C   LIG    1       26.035 -13.936   3.189  0.00  0.00    -0.014 A 
ATOM      3  C   LIG    1       25.488 -13.409   4.369  0.00  0.00    +0.051 A 
ATOM      4  C   LIG    1       24.456 -12.476   4.307  0.00  0.00    +0.117 A 
ATOM      5  C   LIG    1       23.948 -12.052   3.086  0.00  0.00    +0.045 A 
ATOM      6  C   LIG    1       24.480 -12.573   1.907  0.00  0.00    +0.004 A 
ATOM      7  C   LIG    1       25.514 -13.512   1.958  0.00  0.00    +0.006 A 
BRANCH   4   8
ATOM      8  O   LIG    1       23.965 -11.997   5.486  0.00  0.00    -0.507 OA
ATOM      9  H   LIG    1       22.998 -12.087   5.475  0.00  0.00    +0.292 HD
ENDBRANCH   4   8
ENDBRANCH   1   2
BRANCH   1  11
ATOM     10  C   LIG    1       25.752 -17.089   3.157  0.00  0.00    +0.027 C 
ATOM     11  C   LIG    1       26.784 -16.290   3.947  0.00  0.00    +0.081 C 
BRANCH  11  12
ATOM     12  N   LIG    1       28.016 -17.096   4.137  0.00  0.00    -0.325 NA
ATOM     13  H   LIG    1       27.749 -18.065   4.324  0.00  0.00    +0.118 HD
ATOM     14  H   LIG    1       28.536 -17.126   3.258  0.00  0.00    +0.118 HD
ENDBRANCH  11  12
ENDBRANCH   1  11
BRANCH   1  15
ATOM     15  O   LIG    1       28.243 -14.354   4.000  0.00  0.00    -0.386 OA
ATOM     16  H   LIG    1       28.379 -13.488   3.567  0.00  0.00    +0.210 HD
ENDBRANCH   1  15
TORSDOF 5
ENDMDL
MODEL 8
REMARK VINA RESULT:      -3.9      6.814      8.307
REMARK  Name = *****
REMARK                            x       y       z     vdW  Elec       q    Type
REMARK                         _______ _______ _______ _____ _____    ______ ____
ROOT
ATOM      1  C   LIG    1       27.505 -14.255   3.682  0.00  0.00    +0.161 C 
ENDROOT
BRANCH   1   2
ATOM      2  C   LIG    1       26.026 -13.989   3.519  0.00  0.00    -0.014 A 
ATOM      3  C   LIG    1       25.591 -12.895   2.756  0.00  0.00    +0.051 A 
ATOM      4  C   LIG    1       24.229 -12.649   2.595  0.00  0.00    +0.117 A 
ATOM      5  C   LIG    1       23.280 -13.476   3.183  0.00  0.00    +0.045 A 
ATOM      6  C   LIG    1       23.700 -14.564   3.947  0.00  0.00    +0.004 A 
ATOM      7  C   LIG    1       25.065 -14.817   4.118  0.00  0.00    +0.006 A 
BRANCH   4   8
ATOM      8  O   LIG    1       23.866 -11.572   1.842  0.00  0.00    -0.507 OA
ATOM      9  H   LIG    1       22.919 -11.646   1.637  0.00  0.00    +0.292 HD
ENDBRANCH   4   8
ENDBRANCH   1   2
BRANCH   1  11
ATOM     10  C   LIG    1       28.890 -12.225   4.437  0.00  0.00    +0.027 C 
ATOM     11  C   LIG    1       28.173 -13.501   4.870  0.00  0.00    +0.081 C 
BRANCH  11  12
ATOM     12  N   LIG    1       27.138 -13.184   5.885  0.00  0.00    -0.325 NA
ATOM     13  H   LIG    1       27.420 -13.589   6.780  0.00  0.00    +0.118 HD
ATOM     14  H   LIG    1       27.119 -12.175   6.041  0.00  0.00    +0.118 HD
ENDBRANCH  11  12
ENDBRANCH   1  11
BRANCH   1  15
ATOM     15  O   LIG    1       28.170 -13.863   2.473  0.00  0.00    -0.386 OA
ATOM     16  H   LIG    1       29.118 -13.864   2.714  0.00  0.00    +0.210 HD
ENDBRANCH   1  15
TORSDOF 5
ENDMDL
MODEL 9
REMARK VINA RESULT:      -3.9      6.590      7.389
REMARK  Name = *****
REMARK                            x       y       z     vdW  Elec       q    Type
REMARK                         _______ _______ _______ _____ _____    ______ ____
ROOT
ATOM      1  C   LIG    1       24.784 -13.612   4.875  0.00  0.00    +0.161 C 
ENDROOT
BRANCH   1   2
ATOM      2  C   LIG    1       26.227 -13.419   4.469  0.00  0.00    -0.014 A 
ATOM      3  C   LIG    1       27.097 -12.694   5.297  0.00  0.00    +0.051 A 
ATOM      4  C   LIG    1       28.430 -12.518   4.932  0.00  0.00    +0.117 A 
ATOM      5  C   LIG    1       28.922 -13.052   3.749  0.00  0.00    +0.045 A 
ATOM      6  C   LIG    1       28.067 -13.771   2.914  0.00  0.00    +0.004 A 
ATOM      7  C   LIG    1       26.726 -13.950   3.270  0.00  0.00    +0.006 A 
BRANCH   4   8
ATOM      8  O   LIG    1       29.228 -11.806   5.778  0.00  0.00    -0.507 OA
ATOM      9  H   LIG    1       30.067 -11.621   5.324  0.00  0.00    +0.292 HD
ENDBRANCH   4   8
ENDBRANCH   1   2
BRANCH   1  11
ATOM     10  C   LIG    1       22.927 -15.375   4.650  0.00  0.00    +0.027 C 
ATOM     11  C   LIG    1       23.956 -14.519   3.917  0.00  0.00    +0.081 C 
BRANCH  11  12
ATOM     12  N   LIG    1       23.282 -13.666   2.907  0.00  0.00    -0.325 NA
ATOM     13  H   LIG    1       22.320 -13.991   2.791  0.00  0.00    +0.118 HD
ATOM     14  H   LIG    1       23.202 -12.714   3.271  0.00  0.00    +0.118 HD
ENDBRANCH  11  12
ENDBRANCH   1  11
BRANCH   1  15
ATOM     15  O   LIG    1       24.154 -12.324   4.928  0.00  0.00    -0.386 OA
ATOM     16  H   LIG    1       24.262 -11.972   4.022  0.00  0.00    +0.210 HD
ENDBRANCH   1  15
TORSDOF 5
ENDMDL
