MODEL 1
REMARK VINA RESULT:      -7.5      0.000      0.000
REMARK  Name = *****
REMARK                            x       y       z     vdW  Elec       q    Type
REMARK                         _______ _______ _______ _____ _____    ______ ____
ROOT
ATOM      1  C   LIG    1       25.101 -22.093   7.514  0.00  0.00    -0.014 A 
ATOM      2  C   LIG    1       23.724 -22.280   7.290  0.00  0.00    +0.055 A 
ATOM      3  C   LIG    1       23.265 -23.487   6.769  0.00  0.00    +0.159 A 
ATOM      4  C   LIG    1       24.142 -24.528   6.471  0.00  0.00    +0.158 A 
ATOM      5  C   LIG    1       25.501 -24.373   6.697  0.00  0.00    +0.049 A 
ATOM      6  C   LIG    1       25.969 -23.165   7.228  0.00  0.00    +0.010 A 
ENDROOT
BRANCH   3   7
ATOM      7  O   LIG    1       21.928 -23.649   6.544  0.00  0.00    -0.503 OA
ATOM      8  H   LIG    1       21.878 -24.326   5.839  0.00  0.00    +0.292 HD
ENDBRANCH   3   7
BRANCH   4   9
ATOM      9  O   LIG    1       23.626 -25.686   5.961  0.00  0.00    -0.503 OA
ATOM     10  H   LIG    1       24.362 -26.226   5.633  0.00  0.00    +0.292 HD
ENDBRANCH   4   9
BRANCH   1  11
ATOM     11  C   LIG    1       25.624 -20.776   8.070  0.00  0.00    +0.158 C 
BRANCH  11  12
ATOM     12  O   LIG    1       25.819 -20.874   9.485  0.00  0.00    -0.386 OA
ATOM     13  H   LIG    1       25.009 -21.251   9.865  0.00  0.00    +0.210 HD
ENDBRANCH  11  12
BRANCH  11  14
ATOM     14  C   LIG    1       26.957 -20.299   7.421  0.00  0.00    +0.117 C 
BRANCH  14  15
ATOM     15  N   LIG    1       28.134 -20.219   8.310  0.00  0.00    -0.311 NA
ATOM     16  H   LIG    1       27.899 -19.553   9.053  0.00  0.00    +0.122 HD
BRANCH  15  18
ATOM     17  C   LIG    1       29.034 -19.390   6.200  0.00  0.00    +0.024 C 
ATOM     18  C   LIG    1       29.361 -19.770   7.646  0.00  0.00    +0.048 C 
ATOM     19  C   LIG    1       30.000 -18.574   8.353  0.00  0.00    +0.024 C 
ENDBRANCH  15  18
ENDBRANCH  14  15
ENDBRANCH  11  14
ENDBRANCH   1  11
TORSDOF 7
ENDMDL
MODEL 2
REMARK VINA RESULT:      -7.2      3.200      6.639
REMARK  Name = *****
REMARK                            x       y       z     vdW  Elec       q    Type
REMARK                         _______ _______ _______ _____ _____    ______ ____
ROOT
ATOM      1  C   LIG    1       28.702 -20.112   7.005  0.00  0.00    -0.014 A 
ATOM      2  C   LIG    1       29.677 -19.097   7.031  0.00  0.00    +0.055 A 
ATOM      3  C   LIG    1       30.830 -19.263   7.795  0.00  0.00    +0.159 A 
ATOM      4  C   LIG    1       31.049 -20.425   8.532  0.00  0.00    +0.158 A 
ATOM      5  C   LIG    1       30.110 -21.445   8.511  0.00  0.00    +0.049 A 
ATOM      6  C   LIG    1       28.953 -21.288   7.739  0.00  0.00    +0.010 A 
ENDROOT
BRANCH   3   7
ATOM      7  O   LIG    1       31.760 -18.265   7.822  0.00  0.00    -0.503 OA
ATOM      8  H   LIG    1       32.221 -18.382   8.677  0.00  0.00    +0.292 HD
ENDBRANCH   3   7
BRANCH   4   9
ATOM      9  O   LIG    1       32.199 -20.524   9.262  0.00  0.00    -0.503 OA
ATOM     10  H   LIG    1       32.906 -20.070   8.776  0.00  0.00    +0.292 HD
ENDBRANCH   4   9
BRANCH   1  11
ATOM     11  C   LIG    1       27.429 -19.944   6.187  0.00  0.00    +0.158 C 
BRANCH  11  12
ATOM     12  O   LIG    1       27.686 -20.212   4.804  0.00  0.00    -0.386 OA
ATOM     13  H   LIG    1       27.753 -19.356   4.349  0.00  0.00    +0.210 HD
ENDBRANCH  11  12
BRANCH  11  14
ATOM     14  C   LIG    1       26.251 -20.849   6.654  0.00  0.00    +0.117 C 
BRANCH  14  15
ATOM     15  N   LIG    1       25.578 -21.648   5.610  0.00  0.00    -0.311 NA
ATOM     16  H   LIG    1       24.814 -21.072   5.243  0.00  0.00    +0.122 HD
BRANCH  15  18
ATOM     17  C   LIG    1       25.990 -23.536   7.100  0.00  0.00    +0.024 C 
ATOM     18  C   LIG    1       25.022 -22.917   6.089  0.00  0.00    +0.048 C 
ATOM     19  C   LIG    1       23.651 -22.741   6.742  0.00  0.00    +0.024 C 
ENDBRANCH  15  18
ENDBRANCH  14  15
ENDBRANCH  11  14
ENDBRANCH   1  11
TORSDOF 7
ENDMDL
MODEL 3
REMARK VINA RESULT:      -7.2      2.988      6.452
REMARK  Name = *****
REMARK                            x       y       z     vdW  Elec       q    Type
REMARK                         _______ _______ _______ _____ _____    ______ ____
ROOT
ATOM      1  C   LIG    1       27.896 -20.182   6.381  0.00  0.00    -0.014 A 
ATOM      2  C   LIG    1       28.431 -20.931   7.446  0.00  0.00    +0.055 A 
ATOM      3  C   LIG    1       29.742 -20.708   7.859  0.00  0.00    +0.159 A 
ATOM      4  C   LIG    1       30.542 -19.747   7.244  0.00  0.00    +0.158 A 
ATOM      5  C   LIG    1       30.032 -18.986   6.203  0.00  0.00    +0.049 A 
ATOM      6  C   LIG    1       28.713 -19.199   5.788  0.00  0.00    +0.010 A 
ENDROOT
BRANCH   3   7
ATOM      7  O   LIG    1       30.253 -21.452   8.883  0.00  0.00    -0.503 OA
ATOM      8  H   LIG    1       29.468 -21.741   9.392  0.00  0.00    +0.292 HD
ENDBRANCH   3   7
BRANCH   4   9
ATOM      9  O   LIG    1       31.820 -19.580   7.696  0.00  0.00    -0.503 OA
ATOM     10  H   LIG    1       32.155 -20.443   7.986  0.00  0.00    +0.292 HD
ENDBRANCH   4   9
BRANCH   1  11
ATOM     11  C   LIG    1       26.469 -20.419   5.907  0.00  0.00    +0.158 C 
BRANCH  11  12
ATOM     12  O   LIG    1       26.412 -20.420   4.476  0.00  0.00    -0.386 OA
ATOM     13  H   LIG    1       27.259 -20.770   4.152  0.00  0.00    +0.210 HD
ENDBRANCH  11  12
BRANCH  11  14
ATOM     14  C   LIG    1       25.841 -21.746   6.426  0.00  0.00    +0.117 C 
BRANCH  14  15
ATOM     15  N   LIG    1       25.097 -22.556   5.439  0.00  0.00    -0.311 NA
ATOM     16  H   LIG    1       24.228 -22.052   5.237  0.00  0.00    +0.122 HD
BRANCH  15  18
ATOM     17  C   LIG    1       25.882 -24.417   6.807  0.00  0.00    +0.024 C 
ATOM     18  C   LIG    1       24.761 -23.907   5.899  0.00  0.00    +0.048 C 
ATOM     19  C   LIG    1       23.435 -23.949   6.657  0.00  0.00    +0.024 C 
ENDBRANCH  15  18
ENDBRANCH  14  15
ENDBRANCH  11  14
ENDBRANCH   1  11
TORSDOF 7
ENDMDL
MODEL 4
REMARK VINA RESULT:      -7.2      0.703      1.718
REMARK  Name = *****
REMARK                            x       y       z     vdW  Elec       q    Type
REMARK                         _______ _______ _______ _____ _____    ______ ____
ROOT
ATOM      1  C   LIG    1       25.124 -21.915   7.486  0.00  0.00    -0.014 A 
ATOM      2  C   LIG    1       25.930 -23.020   7.153  0.00  0.00    +0.055 A 
ATOM      3  C   LIG    1       25.339 -24.192   6.688  0.00  0.00    +0.159 A 
ATOM      4  C   LIG    1       23.959 -24.296   6.533  0.00  0.00    +0.158 A 
ATOM      5  C   LIG    1       23.145 -23.215   6.841  0.00  0.00    +0.049 A 
ATOM      6  C   LIG    1       23.732 -22.032   7.301  0.00  0.00    +0.010 A 
ENDROOT
BRANCH   3   7
ATOM      7  O   LIG    1       26.132 -25.260   6.382  0.00  0.00    -0.503 OA
ATOM      8  H   LIG    1       25.535 -25.886   5.922  0.00  0.00    +0.292 HD
ENDBRANCH   3   7
BRANCH   4   9
ATOM      9  O   LIG    1       23.443 -25.474   6.074  0.00  0.00    -0.503 OA
ATOM     10  H   LIG    1       23.920 -25.720   5.265  0.00  0.00    +0.292 HD
ENDBRANCH   4   9
BRANCH   1  11
ATOM     11  C   LIG    1       25.749 -20.629   8.009  0.00  0.00    +0.158 C 
BRANCH  11  12
ATOM     12  O   LIG    1       25.879 -20.681   9.434  0.00  0.00    -0.386 OA
ATOM     13  H   LIG    1       25.397 -21.466   9.742  0.00  0.00    +0.210 HD
ENDBRANCH  11  12
BRANCH  11  14
ATOM     14  C   LIG    1       27.146 -20.310   7.399  0.00  0.00    +0.117 C 
BRANCH  14  15
ATOM     15  N   LIG    1       28.264 -20.152   8.353  0.00  0.00    -0.311 NA
ATOM     16  H   LIG    1       27.948 -19.495   9.072  0.00  0.00    +0.122 HD
BRANCH  15  18
ATOM     17  C   LIG    1       29.210 -19.203   6.315  0.00  0.00    +0.024 C 
ATOM     18  C   LIG    1       29.498 -19.637   7.754  0.00  0.00    +0.048 C 
ATOM     19  C   LIG    1       30.073 -18.455   8.534  0.00  0.00    +0.024 C 
ENDBRANCH  15  18
ENDBRANCH  14  15
ENDBRANCH  11  14
ENDBRANCH   1  11
TORSDOF 7
ENDMDL
MODEL 5
REMARK VINA RESULT:      -7.2      2.911      6.688
REMARK  Name = *****
REMARK                            x       y       z     vdW  Elec       q    Type
REMARK                         _______ _______ _______ _____ _____    ______ ____
ROOT
ATOM      1  C   LIG    1       28.736 -20.785   7.547  0.00  0.00    -0.014 A 
ATOM      2  C   LIG    1       29.826 -21.190   8.340  0.00  0.00    +0.055 A 
ATOM      3  C   LIG    1       30.980 -20.412   8.381  0.00  0.00    +0.159 A 
ATOM      4  C   LIG    1       31.080 -19.226   7.656  0.00  0.00    +0.158 A 
ATOM      5  C   LIG    1       30.014 -18.798   6.879  0.00  0.00    +0.049 A 
ATOM      6  C   LIG    1       28.848 -19.571   6.840  0.00  0.00    +0.010 A 
ENDROOT
BRANCH   3   7
ATOM      7  O   LIG    1       32.035 -20.825   9.143  0.00  0.00    -0.503 OA
ATOM      8  H   LIG    1       32.025 -20.228   9.919  0.00  0.00    +0.292 HD
ENDBRANCH   3   7
BRANCH   4   9
ATOM      9  O   LIG    1       32.241 -18.511   7.738  0.00  0.00    -0.503 OA
ATOM     10  H   LIG    1       32.845 -18.834   7.051  0.00  0.00    +0.292 HD
ENDBRANCH   4   9
BRANCH   1  11
ATOM     11  C   LIG    1       27.470 -21.628   7.479  0.00  0.00    +0.158 C 
BRANCH  11  12
ATOM     12  O   LIG    1       26.893 -21.768   8.783  0.00  0.00    -0.386 OA
ATOM     13  H   LIG    1       26.854 -22.717   8.983  0.00  0.00    +0.210 HD
ENDBRANCH  11  12
BRANCH  11  14
ATOM     14  C   LIG    1       26.384 -21.065   6.517  0.00  0.00    +0.117 C 
BRANCH  14  15
ATOM     15  N   LIG    1       25.571 -22.058   5.785  0.00  0.00    -0.311 NA
ATOM     16  H   LIG    1       25.656 -21.833   4.789  0.00  0.00    +0.122 HD
BRANCH  15  18
ATOM     17  C   LIG    1       23.817 -23.368   6.863  0.00  0.00    +0.024 C 
ATOM     18  C   LIG    1       24.150 -22.057   6.147  0.00  0.00    +0.048 C 
ATOM     19  C   LIG    1       23.781 -20.879   7.049  0.00  0.00    +0.024 C 
ENDBRANCH  15  18
ENDBRANCH  14  15
ENDBRANCH  11  14
ENDBRANCH   1  11
TORSDOF 7
ENDMDL
MODEL 6
REMARK VINA RESULT:      -7.1      3.741      6.110
REMARK  Name = *****
REMARK                            x       y       z     vdW  Elec       q    Type
REMARK                         _______ _______ _______ _____ _____    ______ ____
ROOT
ATOM      1  C   LIG    1       23.512 -20.681   5.328  0.00  0.00    -0.014 A 
ATOM      2  C   LIG    1       24.910 -20.842   5.340  0.00  0.00    +0.055 A 
ATOM      3  C   LIG    1       25.708 -20.020   4.550  0.00  0.00    +0.159 A 
ATOM      4  C   LIG    1       25.153 -19.025   3.748  0.00  0.00    +0.158 A 
ATOM      5  C   LIG    1       23.779 -18.837   3.730  0.00  0.00    +0.049 A 
ATOM      6  C   LIG    1       22.971 -19.654   4.528  0.00  0.00    +0.010 A 
ENDROOT
BRANCH   3   7
ATOM      7  O   LIG    1       27.062 -20.197   4.560  0.00  0.00    -0.503 OA
ATOM      8  H   LIG    1       27.295 -20.367   3.625  0.00  0.00    +0.292 HD
ENDBRANCH   3   7
BRANCH   4   9
ATOM      9  O   LIG    1       25.993 -18.254   2.995  0.00  0.00    -0.503 OA
ATOM     10  H   LIG    1       26.810 -18.114   3.498  0.00  0.00    +0.292 HD
ENDBRANCH   4   9
BRANCH   1  11
ATOM     11  C   LIG    1       22.620 -21.578   6.175  0.00  0.00    +0.158 C 
BRANCH  11  12
ATOM     12  O   LIG    1       21.599 -22.173   5.367  0.00  0.00    -0.386 OA
ATOM     13  H   LIG    1       21.497 -23.094   5.658  0.00  0.00    +0.210 HD
ENDBRANCH  11  12
BRANCH  11  14
ATOM     14  C   LIG    1       23.386 -22.714   6.917  0.00  0.00    +0.117 C 
BRANCH  14  15
ATOM     15  N   LIG    1       23.153 -24.091   6.436  0.00  0.00    -0.311 NA
ATOM     16  H   LIG    1       22.763 -24.617   7.224  0.00  0.00    +0.122 HD
BRANCH  15  18
ATOM     17  C   LIG    1       25.561 -24.284   6.775  0.00  0.00    +0.024 C 
ATOM     18  C   LIG    1       24.360 -24.777   5.965  0.00  0.00    +0.048 C 
ATOM     19  C   LIG    1       24.252 -26.296   6.091  0.00  0.00    +0.024 C 
ENDBRANCH  15  18
ENDBRANCH  14  15
ENDBRANCH  11  14
ENDBRANCH   1  11
TORSDOF 7
ENDMDL
MODEL 7
REMARK VINA RESULT:      -7.1      3.654      6.653
REMARK  Name = *****
REMARK                            x       y       z     vdW  Elec       q    Type
REMARK                         _______ _______ _______ _____ _____    ______ ____
ROOT
ATOM      1  C   LIG    1       28.749 -20.211   7.053  0.00  0.00    -0.014 A 
ATOM      2  C   LIG    1       29.689 -19.164   7.057  0.00  0.00    +0.055 A 
ATOM      3  C   LIG    1       30.845 -19.273   7.826  0.00  0.00    +0.159 A 
ATOM      4  C   LIG    1       31.101 -20.409   8.590  0.00  0.00    +0.158 A 
ATOM      5  C   LIG    1       30.198 -21.461   8.591  0.00  0.00    +0.049 A 
ATOM      6  C   LIG    1       29.038 -21.361   7.814  0.00  0.00    +0.010 A 
ENDROOT
BRANCH   3   7
ATOM      7  O   LIG    1       31.740 -18.243   7.832  0.00  0.00    -0.503 OA
ATOM      8  H   LIG    1       32.154 -18.272   6.945  0.00  0.00    +0.292 HD
ENDBRANCH   3   7
BRANCH   4   9
ATOM      9  O   LIG    1       32.253 -20.452   9.324  0.00  0.00    -0.503 OA
ATOM     10  H   LIG    1       32.096 -21.009  10.103  0.00  0.00    +0.292 HD
ENDBRANCH   4   9
BRANCH   1  11
ATOM     11  C   LIG    1       27.473 -20.105   6.229  0.00  0.00    +0.158 C 
BRANCH  11  12
ATOM     12  O   LIG    1       27.781 -20.094   4.831  0.00  0.00    -0.386 OA
ATOM     13  H   LIG    1       27.679 -19.181   4.518  0.00  0.00    +0.210 HD
ENDBRANCH  11  12
BRANCH  11  14
ATOM     14  C   LIG    1       26.448 -21.246   6.499  0.00  0.00    +0.117 C 
BRANCH  14  15
ATOM     15  N   LIG    1       25.415 -21.464   5.465  0.00  0.00    -0.311 NA
ATOM     16  H   LIG    1       25.911 -21.621   4.582  0.00  0.00    +0.122 HD
BRANCH  15  18
ATOM     17  C   LIG    1       24.330 -20.052   3.798  0.00  0.00    +0.024 C 
ATOM     18  C   LIG    1       24.490 -20.341   5.292  0.00  0.00    +0.048 C 
ATOM     19  C   LIG    1       23.117 -20.620   5.904  0.00  0.00    +0.024 C 
ENDBRANCH  15  18
ENDBRANCH  14  15
ENDBRANCH  11  14
ENDBRANCH   1  11
TORSDOF 7
ENDMDL
MODEL 8
REMARK VINA RESULT:      -7.0      3.131      4.675
REMARK  Name = *****
REMARK                            x       y       z     vdW  Elec       q    Type
REMARK                         _______ _______ _______ _____ _____    ______ ____
ROOT
ATOM      1  C   LIG    1       28.798 -19.942   7.044  0.00  0.00    -0.014 A 
ATOM      2  C   LIG    1       28.240 -19.888   5.754  0.00  0.00    +0.055 A 
ATOM      3  C   LIG    1       26.889 -20.174   5.571  0.00  0.00    +0.159 A 
ATOM      4  C   LIG    1       26.067 -20.506   6.645  0.00  0.00    +0.158 A 
ATOM      5  C   LIG    1       26.590 -20.551   7.929  0.00  0.00    +0.049 A 
ATOM      6  C   LIG    1       27.945 -20.257   8.121  0.00  0.00    +0.010 A 
ENDROOT
BRANCH   3   7
ATOM      7  O   LIG    1       26.364 -20.132   4.311  0.00  0.00    -0.503 OA
ATOM      8  H   LIG    1       26.932 -20.734   3.788  0.00  0.00    +0.292 HD
ENDBRANCH   3   7
BRANCH   4   9
ATOM      9  O   LIG    1       24.751 -20.777   6.397  0.00  0.00    -0.503 OA
ATOM     10  H   LIG    1       24.407 -21.307   7.133  0.00  0.00    +0.292 HD
ENDBRANCH   4   9
BRANCH   1  11
ATOM     11  C   LIG    1       30.275 -19.646   7.263  0.00  0.00    +0.158 C 
BRANCH  11  12
ATOM     12  O   LIG    1       30.614 -18.368   6.714  0.00  0.00    -0.386 OA
ATOM     13  H   LIG    1       30.662 -17.737   7.450  0.00  0.00    +0.210 HD
ENDBRANCH  11  12
BRANCH  11  14
ATOM     14  C   LIG    1       30.712 -19.671   8.758  0.00  0.00    +0.117 C 
BRANCH  14  15
ATOM     15  N   LIG    1       31.965 -18.963   9.092  0.00  0.00    -0.311 NA
ATOM     16  H   LIG    1       32.579 -19.646   9.547  0.00  0.00    +0.122 HD
BRANCH  15  18
ATOM     17  C   LIG    1       32.311 -16.557   9.299  0.00  0.00    +0.024 C 
ATOM     18  C   LIG    1       31.788 -17.818   9.990  0.00  0.00    +0.048 C 
ATOM     19  C   LIG    1       30.326 -17.611  10.386  0.00  0.00    +0.024 C 
ENDBRANCH  15  18
ENDBRANCH  14  15
ENDBRANCH  11  14
ENDBRANCH   1  11
TORSDOF 7
ENDMDL
MODEL 9
REMARK VINA RESULT:      -7.0      3.286      6.362
REMARK  Name = *****
REMARK                            x       y       z     vdW  Elec       q    Type
REMARK                         _______ _______ _______ _____ _____    ______ ____
ROOT
ATOM      1  C   LIG    1       27.837 -20.123   6.285  0.00  0.00    -0.014 A 
ATOM      2  C   LIG    1       28.264 -20.943   7.346  0.00  0.00    +0.055 A 
ATOM      3  C   LIG    1       29.558 -20.814   7.844  0.00  0.00    +0.159 A 
ATOM      4  C   LIG    1       30.446 -19.877   7.319  0.00  0.00    +0.158 A 
ATOM      5  C   LIG    1       30.043 -19.047   6.283  0.00  0.00    +0.049 A 
ATOM      6  C   LIG    1       28.742 -19.166   5.783  0.00  0.00    +0.010 A 
ENDROOT
BRANCH   3   7
ATOM      7  O   LIG    1       29.963 -21.626   8.863  0.00  0.00    -0.503 OA
ATOM      8  H   LIG    1       29.282 -21.508   9.557  0.00  0.00    +0.292 HD
ENDBRANCH   3   7
BRANCH   4   9
ATOM      9  O   LIG    1       31.701 -19.802   7.852  0.00  0.00    -0.503 OA
ATOM     10  H   LIG    1       31.618 -19.624   8.802  0.00  0.00    +0.292 HD
ENDBRANCH   4   9
BRANCH   1  11
ATOM     11  C   LIG    1       26.431 -20.259   5.718  0.00  0.00    +0.158 C 
BRANCH  11  12
ATOM     12  O   LIG    1       26.464 -20.218   4.287  0.00  0.00    -0.386 OA
ATOM     13  H   LIG    1       27.055 -19.492   4.030  0.00  0.00    +0.210 HD
ENDBRANCH  11  12
BRANCH  11  14
ATOM     14  C   LIG    1       25.692 -21.557   6.158  0.00  0.00    +0.117 C 
BRANCH  14  15
ATOM     15  N   LIG    1       24.521 -21.957   5.350  0.00  0.00    -0.311 NA
ATOM     16  H   LIG    1       24.635 -21.523   4.429  0.00  0.00    +0.122 HD
BRANCH  15  18
ATOM     17  C   LIG    1       23.361 -21.435   7.432  0.00  0.00    +0.024 C 
ATOM     18  C   LIG    1       23.233 -21.538   5.911  0.00  0.00    +0.048 C 
ATOM     19  C   LIG    1       22.764 -20.195   5.349  0.00  0.00    +0.024 C 
ENDBRANCH  15  18
ENDBRANCH  14  15
ENDBRANCH  11  14
ENDBRANCH   1  11
TORSDOF 7
ENDMDL
