MODEL 1
REMARK VINA RESULT:      -5.1      0.000      0.000
REMARK  Name = *****
REMARK                            x       y       z     vdW  Elec       q    Type
REMARK                         _______ _______ _______ _____ _____    ______ ____
ROOT
ATOM      1  C   LIG    1       24.943 -28.477  12.505  0.00  0.00    +0.064 A 
ATOM      2  C   LIG    1       25.595 -29.290  11.542  0.00  0.00    +0.049 A 
ATOM      3  I   LIG    1       27.765 -29.356  11.468  0.00  0.00    -0.041 I 
ATOM      4  C   LIG    1       24.865 -30.277  10.834  0.00  0.00    +0.065 A 
ATOM      5  C   LIG    1       23.648 -30.718  11.393  0.00  0.00    +0.040 A 
ATOM      6  I   LIG    1       23.104 -32.756  11.002  0.00  0.00    -0.042 I 
ATOM      7  C   LIG    1       22.967 -29.931  12.340  0.00  0.00    +0.065 A 
ATOM      8  C   LIG    1       23.565 -28.717  12.728  0.00  0.00    +0.049 A 
ATOM      9  I   LIG    1       22.300 -27.103  13.438  0.00  0.00    -0.041 I 
ENDROOT
BRANCH   4  10
ATOM     10  C   LIG    1       25.281 -30.726   9.447  0.00  0.00    +0.246 C 
ATOM     11  N   LIG    1       24.643 -30.097   8.377  0.00  0.00    -0.309 N 
ATOM     12  H   LIG    1       23.888 -29.438   8.522  0.00  0.00    +0.149 HD
ATOM     13  O   LIG    1       26.155 -31.530   9.255  0.00  0.00    -0.270 OA
BRANCH  11  14
ATOM     14  C   LIG    1       25.012 -30.377   6.990  0.00  0.00    +0.138 C 
BRANCH  14  15
ATOM     15  C   LIG    1       24.596 -29.243   6.042  0.00  0.00    +0.157 C 
BRANCH  15  16
ATOM     16  O   LIG    1       23.231 -29.429   5.614  0.00  0.00    -0.388 OA
ATOM     17  H   LIG    1       23.247 -29.907   4.764  0.00  0.00    +0.210 HD
ENDBRANCH  15  16
BRANCH  15  18
ATOM     18  C   LIG    1       24.729 -27.856   6.687  0.00  0.00    +0.188 C 
BRANCH  18  19
ATOM     19  O   LIG    1       26.000 -27.748   7.330  0.00  0.00    -0.392 OA
ATOM     20  H   LIG    1       26.649 -28.176   6.739  0.00  0.00    +0.209 HD
ENDBRANCH  18  19
ENDBRANCH  15  18
ENDBRANCH  14  15
ENDBRANCH  11  14
ENDBRANCH   4  10
BRANCH   7  21
ATOM     21  C   LIG    1       21.685 -30.340  13.004  0.00  0.00    +0.246 C 
ATOM     22  N   LIG    1       20.524 -30.089  12.314  0.00  0.00    -0.309 N 
ATOM     23  H   LIG    1       20.622 -30.061  11.309  0.00  0.00    +0.149 HD
ATOM     24  O   LIG    1       21.698 -30.872  14.114  0.00  0.00    -0.270 OA
BRANCH  22  25
ATOM     25  C   LIG    1       19.215 -30.472  12.845  0.00  0.00    +0.138 C 
BRANCH  25  26
ATOM     26  C   LIG    1       18.427 -31.341  11.847  0.00  0.00    +0.157 C 
BRANCH  26  27
ATOM     27  O   LIG    1       17.103 -30.812  11.655  0.00  0.00    -0.388 OA
ATOM     28  H   LIG    1       16.495 -31.340  12.201  0.00  0.00    +0.210 HD
ENDBRANCH  26  27
BRANCH  26  29
ATOM     29  C   LIG    1       19.108 -31.427  10.475  0.00  0.00    +0.188 C 
BRANCH  29  30
ATOM     30  O   LIG    1       18.606 -30.427   9.593  0.00  0.00    -0.392 OA
ATOM     31  H   LIG    1       18.246 -30.904   8.820  0.00  0.00    +0.209 HD
ENDBRANCH  29  30
ENDBRANCH  26  29
ENDBRANCH  25  26
ENDBRANCH  22  25
ENDBRANCH   7  21
BRANCH   1  34
ATOM     32  O   LIG    1       26.808 -27.046  15.262  0.00  0.00    -0.273 OA
ATOM     33  C   LIG    1       26.089 -27.823  14.621  0.00  0.00    +0.245 C 
ATOM     34  N   LIG    1       25.652 -27.522  13.316  0.00  0.00    -0.265 N 
BRANCH  34  35
ATOM     35  C   LIG    1       26.030 -26.217  12.721  0.00  0.00    +0.141 C 
BRANCH  35  36
ATOM     36  C   LIG    1       25.550 -24.986  13.504  0.00  0.00    +0.175 C 
BRANCH  36  37
ATOM     37  O   LIG    1       26.638 -24.233  14.034  0.00  0.00    -0.393 OA
ATOM     38  H   LIG    1       27.341 -24.188  13.367  0.00  0.00    +0.209 HD
ENDBRANCH  36  37
ENDBRANCH  35  36
ENDBRANCH  34  35
BRANCH  33  39
ATOM     39  C   LIG    1       25.754 -29.204  15.241  0.00  0.00    +0.252 C 
BRANCH  39  40
ATOM     40  O   LIG    1       26.785 -30.163  15.101  0.00  0.00    -0.386 OA
ATOM     41  H   LIG    1       27.465 -29.932  15.757  0.00  0.00    +0.210 HD
ENDBRANCH  39  40
ENDBRANCH  33  39
ENDBRANCH   1  34
TORSDOF 18
ENDMDL
MODEL 2
REMARK VINA RESULT:      -5.0      2.052      2.386
REMARK  Name = *****
REMARK                            x       y       z     vdW  Elec       q    Type
REMARK                         _______ _______ _______ _____ _____    ______ ____
ROOT
ATOM      1  C   LIG    1       24.994 -28.692  12.152  0.00  0.00    +0.064 A 
ATOM      2  C   LIG    1       25.082 -29.556  11.029  0.00  0.00    +0.049 A 
ATOM      3  I   LIG    1       27.017 -30.301  10.383  0.00  0.00    -0.041 I 
ATOM      4  C   LIG    1       23.915 -30.171  10.513  0.00  0.00    +0.065 A 
ATOM      5  C   LIG    1       22.792 -30.261  11.361  0.00  0.00    +0.040 A 
ATOM      6  I   LIG    1       21.515 -31.960  11.074  0.00  0.00    -0.042 I 
ATOM      7  C   LIG    1       22.665 -29.410  12.476  0.00  0.00    +0.065 A 
ATOM      8  C   LIG    1       23.713 -28.503  12.725  0.00  0.00    +0.049 A 
ATOM      9  I   LIG    1       23.276 -26.662  13.786  0.00  0.00    -0.041 I 
ENDROOT
BRANCH   4  10
ATOM     10  C   LIG    1       23.809 -30.568   9.054  0.00  0.00    +0.246 C 
ATOM     11  N   LIG    1       24.731 -29.983   8.186  0.00  0.00    -0.309 N 
ATOM     12  H   LIG    1       25.379 -29.272   8.500  0.00  0.00    +0.149 HD
ATOM     13  O   LIG    1       23.024 -31.389   8.656  0.00  0.00    -0.270 OA
BRANCH  11  14
ATOM     14  C   LIG    1       24.791 -30.345   6.770  0.00  0.00    +0.138 C 
BRANCH  14  15
ATOM     15  C   LIG    1       24.536 -29.138   5.855  0.00  0.00    +0.157 C 
BRANCH  15  16
ATOM     16  O   LIG    1       23.217 -29.221   5.278  0.00  0.00    -0.388 OA
ATOM     17  H   LIG    1       23.235 -29.912   4.589  0.00  0.00    +0.210 HD
ENDBRANCH  15  16
BRANCH  15  18
ATOM     18  C   LIG    1       24.671 -27.799   6.595  0.00  0.00    +0.188 C 
BRANCH  18  19
ATOM     19  O   LIG    1       26.030 -27.605   6.988  0.00  0.00    -0.392 OA
ATOM     20  H   LIG    1       26.077 -27.812   7.941  0.00  0.00    +0.209 HD
ENDBRANCH  18  19
ENDBRANCH  15  18
ENDBRANCH  14  15
ENDBRANCH  11  14
ENDBRANCH   4  10
BRANCH   7  21
ATOM     21  C   LIG    1       21.519 -29.461  13.444  0.00  0.00    +0.246 C 
ATOM     22  N   LIG    1       20.400 -28.737  13.115  0.00  0.00    -0.309 N 
ATOM     23  H   LIG    1       20.259 -28.594  12.125  0.00  0.00    +0.149 HD
ATOM     24  O   LIG    1       21.603 -30.126  14.476  0.00  0.00    -0.270 OA
BRANCH  22  25
ATOM     25  C   LIG    1       19.208 -28.736  13.964  0.00  0.00    +0.138 C 
BRANCH  25  26
ATOM     26  C   LIG    1       18.770 -27.304  14.330  0.00  0.00    +0.157 C 
BRANCH  26  27
ATOM     27  O   LIG    1       19.093 -26.392  13.265  0.00  0.00    -0.388 OA
ATOM     28  H   LIG    1       19.673 -25.704  13.635  0.00  0.00    +0.210 HD
ENDBRANCH  26  27
BRANCH  26  29
ATOM     29  C   LIG    1       17.265 -27.201  14.606  0.00  0.00    +0.188 C 
BRANCH  29  30
ATOM     30  O   LIG    1       16.911 -25.882  15.014  0.00  0.00    -0.392 OA
ATOM     31  H   LIG    1       17.683 -25.320  14.810  0.00  0.00    +0.209 HD
ENDBRANCH  29  30
ENDBRANCH  26  29
ENDBRANCH  25  26
ENDBRANCH  22  25
ENDBRANCH   7  21
BRANCH   1  34
ATOM     32  O   LIG    1       27.904 -28.303  14.274  0.00  0.00    -0.273 OA
ATOM     33  C   LIG    1       26.835 -28.741  13.834  0.00  0.00    +0.245 C 
ATOM     34  N   LIG    1       26.157 -28.111  12.772  0.00  0.00    -0.265 N 
BRANCH  34  35
ATOM     35  C   LIG    1       26.723 -26.863  12.205  0.00  0.00    +0.141 C 
BRANCH  35  36
ATOM     36  C   LIG    1       26.650 -25.641  13.132  0.00  0.00    +0.175 C 
BRANCH  36  37
ATOM     37  O   LIG    1       27.902 -24.965  13.225  0.00  0.00    -0.393 OA
ATOM     38  H   LIG    1       28.168 -24.676  12.337  0.00  0.00    +0.209 HD
ENDBRANCH  36  37
ENDBRANCH  35  36
ENDBRANCH  34  35
BRANCH  33  39
ATOM     39  C   LIG    1       26.291 -30.077  14.403  0.00  0.00    +0.252 C 
BRANCH  39  40
ATOM     40  O   LIG    1       27.104 -31.199  14.116  0.00  0.00    -0.386 OA
ATOM     41  H   LIG    1       27.998 -30.854  13.944  0.00  0.00    +0.210 HD
ENDBRANCH  39  40
ENDBRANCH  33  39
ENDBRANCH   1  34
TORSDOF 18
ENDMDL
MODEL 3
REMARK VINA RESULT:      -4.8      1.744      2.221
REMARK  Name = *****
REMARK                            x       y       z     vdW  Elec       q    Type
REMARK                         _______ _______ _______ _____ _____    ______ ____
ROOT
ATOM      1  C   LIG    1       24.488 -29.359  11.706  0.00  0.00    +0.064 A 
ATOM      2  C   LIG    1       25.266 -29.639  10.552  0.00  0.00    +0.049 A 
ATOM      3  I   LIG    1       27.431 -29.500  10.644  0.00  0.00    -0.041 I 
ATOM      4  C   LIG    1       24.677 -30.289   9.439  0.00  0.00    +0.065 A 
ATOM      5  C   LIG    1       23.489 -31.016   9.658  0.00  0.00    +0.040 A 
ATOM      6  I   LIG    1       23.181 -32.735   8.413  0.00  0.00    -0.042 I 
ATOM      7  C   LIG    1       22.686 -30.756  10.785  0.00  0.00    +0.065 A 
ATOM      8  C   LIG    1       23.134 -29.776  11.691  0.00  0.00    +0.049 A 
ATOM      9  I   LIG    1       21.675 -28.713  12.894  0.00  0.00    -0.041 I 
ENDROOT
BRANCH   4  10
ATOM     10  C   LIG    1       25.200 -30.079   8.032  0.00  0.00    +0.246 C 
ATOM     11  N   LIG    1       24.767 -28.925   7.377  0.00  0.00    -0.309 N 
ATOM     12  H   LIG    1       24.079 -28.308   7.789  0.00  0.00    +0.149 HD
ATOM     13  O   LIG    1       25.996 -30.818   7.513  0.00  0.00    -0.270 OA
BRANCH  11  14
ATOM     14  C   LIG    1       25.264 -28.562   6.051  0.00  0.00    +0.138 C 
BRANCH  14  15
ATOM     15  C   LIG    1       25.840 -27.139   6.019  0.00  0.00    +0.157 C 
BRANCH  15  16
ATOM     16  O   LIG    1       27.091 -27.125   5.301  0.00  0.00    -0.388 OA
ATOM     17  H   LIG    1       27.183 -27.983   4.845  0.00  0.00    +0.210 HD
ENDBRANCH  15  16
BRANCH  15  18
ATOM     18  C   LIG    1       24.883 -26.130   5.368  0.00  0.00    +0.188 C 
BRANCH  18  19
ATOM     19  O   LIG    1       23.651 -26.104   6.092  0.00  0.00    -0.392 OA
ATOM     20  H   LIG    1       23.079 -25.451   5.644  0.00  0.00    +0.209 HD
ENDBRANCH  18  19
ENDBRANCH  15  18
ENDBRANCH  14  15
ENDBRANCH  11  14
ENDBRANCH   4  10
BRANCH   7  21
ATOM     21  C   LIG    1       21.425 -31.503  11.107  0.00  0.00    +0.246 C 
ATOM     22  N   LIG    1       20.283 -31.095  10.462  0.00  0.00    -0.309 N 
ATOM     23  H   LIG    1       20.432 -30.659   9.564  0.00  0.00    +0.149 HD
ATOM     24  O   LIG    1       21.439 -32.433  11.914  0.00  0.00    -0.270 OA
BRANCH  22  25
ATOM     25  C   LIG    1       19.001 -31.769  10.671  0.00  0.00    +0.138 C 
BRANCH  25  26
ATOM     26  C   LIG    1       18.259 -31.214  11.902  0.00  0.00    +0.157 C 
BRANCH  26  27
ATOM     27  O   LIG    1       16.935 -30.784  11.541  0.00  0.00    -0.388 OA
ATOM     28  H   LIG    1       16.996 -29.856  11.255  0.00  0.00    +0.210 HD
ENDBRANCH  26  27
BRANCH  26  29
ATOM     29  C   LIG    1       18.134 -32.246  13.030  0.00  0.00    +0.188 C 
BRANCH  29  30
ATOM     30  O   LIG    1       18.805 -33.456  12.691  0.00  0.00    -0.392 OA
ATOM     31  H   LIG    1       19.342 -33.694  13.471  0.00  0.00    +0.209 HD
ENDBRANCH  29  30
ENDBRANCH  26  29
ENDBRANCH  25  26
ENDBRANCH  22  25
ENDBRANCH   7  21
BRANCH   1  34
ATOM     32  O   LIG    1       26.171 -29.074  14.902  0.00  0.00    -0.273 OA
ATOM     33  C   LIG    1       25.570 -29.574  13.942  0.00  0.00    +0.245 C 
ATOM     34  N   LIG    1       25.055 -28.782  12.898  0.00  0.00    -0.265 N 
BRANCH  34  35
ATOM     35  C   LIG    1       25.199 -27.309  12.981  0.00  0.00    +0.141 C 
BRANCH  35  36
ATOM     36  C   LIG    1       26.564 -26.767  12.534  0.00  0.00    +0.175 C 
BRANCH  36  37
ATOM     37  O   LIG    1       27.485 -26.676  13.619  0.00  0.00    -0.393 OA
ATOM     38  H   LIG    1       27.157 -26.018  14.252  0.00  0.00    +0.209 HD
ENDBRANCH  36  37
ENDBRANCH  35  36
ENDBRANCH  34  35
BRANCH  33  39
ATOM     39  C   LIG    1       25.482 -31.119  13.847  0.00  0.00    +0.252 C 
BRANCH  39  40
ATOM     40  O   LIG    1       26.735 -31.761  13.710  0.00  0.00    -0.386 OA
ATOM     41  H   LIG    1       26.583 -32.546  13.155  0.00  0.00    +0.210 HD
ENDBRANCH  39  40
ENDBRANCH  33  39
ENDBRANCH   1  34
TORSDOF 18
ENDMDL
MODEL 4
REMARK VINA RESULT:      -4.8      1.798      5.807
REMARK  Name = *****
REMARK                            x       y       z     vdW  Elec       q    Type
REMARK                         _______ _______ _______ _____ _____    ______ ____
ROOT
ATOM      1  C   LIG    1       24.081 -31.176   9.320  0.00  0.00    +0.064 A 
ATOM      2  C   LIG    1       24.683 -30.288  10.249  0.00  0.00    +0.049 A 
ATOM      3  I   LIG    1       26.323 -29.011   9.620  0.00  0.00    -0.041 I 
ATOM      4  C   LIG    1       24.043 -30.009  11.482  0.00  0.00    +0.065 A 
ATOM      5  C   LIG    1       22.660 -30.263  11.574  0.00  0.00    +0.040 A 
ATOM      6  I   LIG    1       21.541 -28.981  12.881  0.00  0.00    -0.042 I 
ATOM      7  C   LIG    1       22.031 -31.149  10.679  0.00  0.00    +0.065 A 
ATOM      8  C   LIG    1       22.828 -31.734   9.676  0.00  0.00    +0.049 A 
ATOM      9  I   LIG    1       22.242 -33.656   8.858  0.00  0.00    -0.041 I 
ENDROOT
BRANCH   4  10
ATOM     10  C   LIG    1       24.835 -29.612  12.712  0.00  0.00    +0.246 C 
ATOM     11  N   LIG    1       25.010 -28.243  12.919  0.00  0.00    -0.309 N 
ATOM     12  H   LIG    1       24.696 -27.559  12.241  0.00  0.00    +0.149 HD
ATOM     13  O   LIG    1       25.243 -30.412  13.513  0.00  0.00    -0.270 OA
BRANCH  11  14
ATOM     14  C   LIG    1       25.681 -27.726  14.110  0.00  0.00    +0.138 C 
BRANCH  14  15
ATOM     15  C   LIG    1       26.998 -27.014  13.768  0.00  0.00    +0.157 C 
BRANCH  15  16
ATOM     16  O   LIG    1       27.797 -27.840  12.895  0.00  0.00    -0.388 OA
ATOM     17  H   LIG    1       28.645 -28.016  13.344  0.00  0.00    +0.210 HD
ENDBRANCH  15  16
BRANCH  15  18
ATOM     18  C   LIG    1       26.774 -25.652  13.094  0.00  0.00    +0.188 C 
BRANCH  18  19
ATOM     19  O   LIG    1       27.905 -24.811  13.328  0.00  0.00    -0.392 OA
ATOM     20  H   LIG    1       28.172 -24.954  14.256  0.00  0.00    +0.209 HD
ENDBRANCH  18  19
ENDBRANCH  15  18
ENDBRANCH  14  15
ENDBRANCH  11  14
ENDBRANCH   4  10
BRANCH   7  21
ATOM     21  C   LIG    1       20.562 -31.451  10.690  0.00  0.00    +0.246 C 
ATOM     22  N   LIG    1       20.146 -32.468  11.515  0.00  0.00    -0.309 N 
ATOM     23  H   LIG    1       20.732 -32.631  12.320  0.00  0.00    +0.149 HD
ATOM     24  O   LIG    1       19.786 -30.806   9.985  0.00  0.00    -0.270 OA
BRANCH  22  25
ATOM     25  C   LIG    1       18.733 -32.831  11.634  0.00  0.00    +0.138 C 
BRANCH  25  26
ATOM     26  C   LIG    1       18.103 -32.257  12.918  0.00  0.00    +0.157 C 
BRANCH  26  27
ATOM     27  O   LIG    1       19.128 -31.835  13.836  0.00  0.00    -0.388 OA
ATOM     28  H   LIG    1       19.962 -32.249  13.554  0.00  0.00    +0.210 HD
ENDBRANCH  26  27
BRANCH  26  29
ATOM     29  C   LIG    1       17.191 -31.056  12.640  0.00  0.00    +0.188 C 
BRANCH  29  30
ATOM     30  O   LIG    1       17.123 -30.778  11.244  0.00  0.00    -0.392 OA
ATOM     31  H   LIG    1       16.430 -31.365  10.885  0.00  0.00    +0.209 HD
ENDBRANCH  29  30
ENDBRANCH  26  29
ENDBRANCH  25  26
ENDBRANCH  22  25
ENDBRANCH   7  21
BRANCH   1  34
ATOM     32  O   LIG    1       26.045 -32.678   6.672  0.00  0.00    -0.273 OA
ATOM     33  C   LIG    1       25.660 -32.376   7.808  0.00  0.00    +0.245 C 
ATOM     34  N   LIG    1       24.640 -31.427   8.017  0.00  0.00    -0.265 N 
BRANCH  34  35
ATOM     35  C   LIG    1       24.050 -30.743   6.841  0.00  0.00    +0.141 C 
BRANCH  35  36
ATOM     36  C   LIG    1       24.832 -29.517   6.347  0.00  0.00    +0.175 C 
BRANCH  36  37
ATOM     37  O   LIG    1       25.894 -29.879   5.468  0.00  0.00    -0.393 OA
ATOM     38  H   LIG    1       26.740 -29.696   5.908  0.00  0.00    +0.209 HD
ENDBRANCH  36  37
ENDBRANCH  35  36
ENDBRANCH  34  35
BRANCH  33  39
ATOM     39  C   LIG    1       26.251 -33.144   9.019  0.00  0.00    +0.252 C 
BRANCH  39  40
ATOM     40  O   LIG    1       27.473 -32.614   9.497  0.00  0.00    -0.386 OA
ATOM     41  H   LIG    1       28.175 -33.003   8.946  0.00  0.00    +0.210 HD
ENDBRANCH  39  40
ENDBRANCH  33  39
ENDBRANCH   1  34
TORSDOF 18
ENDMDL
MODEL 5
REMARK VINA RESULT:      -4.7      2.154      7.337
REMARK  Name = *****
REMARK                            x       y       z     vdW  Elec       q    Type
REMARK                         _______ _______ _______ _____ _____    ______ ____
ROOT
ATOM      1  C   LIG    1       24.751 -31.291   8.774  0.00  0.00    +0.064 A 
ATOM      2  C   LIG    1       23.544 -32.026   8.902  0.00  0.00    +0.049 A 
ATOM      3  I   LIG    1       22.991 -33.477   7.384  0.00  0.00    -0.041 I 
ATOM      4  C   LIG    1       22.852 -32.044  10.139  0.00  0.00    +0.065 A 
ATOM      5  C   LIG    1       23.576 -31.707  11.300  0.00  0.00    +0.040 A 
ATOM      6  I   LIG    1       22.967 -32.672  13.117  0.00  0.00    -0.042 I 
ATOM      7  C   LIG    1       24.771 -30.967  11.211  0.00  0.00    +0.065 A 
ATOM      8  C   LIG    1       25.224 -30.614   9.925  0.00  0.00    +0.049 A 
ATOM      9  I   LIG    1       26.459 -28.846   9.696  0.00  0.00    -0.041 I 
ENDROOT
BRANCH   4  10
ATOM     10  C   LIG    1       21.352 -32.251  10.202  0.00  0.00    +0.246 C 
ATOM     11  N   LIG    1       20.576 -31.103  10.372  0.00  0.00    -0.309 N 
ATOM     12  H   LIG    1       20.997 -30.196  10.527  0.00  0.00    +0.149 HD
ATOM     13  O   LIG    1       20.833 -33.326  10.052  0.00  0.00    -0.270 OA
BRANCH  11  14
ATOM     14  C   LIG    1       19.115 -31.156  10.366  0.00  0.00    +0.138 C 
BRANCH  14  15
ATOM     15  C   LIG    1       18.541 -31.444  11.761  0.00  0.00    +0.157 C 
BRANCH  15  16
ATOM     16  O   LIG    1       18.433 -32.867  11.970  0.00  0.00    -0.388 OA
ATOM     17  H   LIG    1       17.583 -33.040  12.416  0.00  0.00    +0.210 HD
ENDBRANCH  15  16
BRANCH  15  18
ATOM     18  C   LIG    1       19.396 -30.840  12.885  0.00  0.00    +0.188 C 
BRANCH  18  19
ATOM     19  O   LIG    1       19.661 -29.466  12.599  0.00  0.00    -0.392 OA
ATOM     20  H   LIG    1       18.995 -28.946  13.088  0.00  0.00    +0.209 HD
ENDBRANCH  18  19
ENDBRANCH  15  18
ENDBRANCH  14  15
ENDBRANCH  11  14
ENDBRANCH   4  10
BRANCH   7  21
ATOM     21  C   LIG    1       25.616 -30.593  12.394  0.00  0.00    +0.246 C 
ATOM     22  N   LIG    1       25.190 -29.526  13.146  0.00  0.00    -0.309 N 
ATOM     23  H   LIG    1       24.194 -29.360  13.125  0.00  0.00    +0.149 HD
ATOM     24  O   LIG    1       26.638 -31.227  12.656  0.00  0.00    -0.270 OA
BRANCH  22  25
ATOM     25  C   LIG    1       25.914 -29.090  14.340  0.00  0.00    +0.138 C 
BRANCH  25  26
ATOM     26  C   LIG    1       26.911 -27.960  14.021  0.00  0.00    +0.157 C 
BRANCH  26  27
ATOM     27  O   LIG    1       28.055 -28.481  13.321  0.00  0.00    -0.388 OA
ATOM     28  H   LIG    1       28.426 -29.201  13.861  0.00  0.00    +0.210 HD
ENDBRANCH  26  27
BRANCH  26  29
ATOM     29  C   LIG    1       26.291 -26.852  13.161  0.00  0.00    +0.188 C 
BRANCH  29  30
ATOM     30  O   LIG    1       27.300 -26.019  12.596  0.00  0.00    -0.392 OA
ATOM     31  H   LIG    1       27.870 -25.743  13.340  0.00  0.00    +0.209 HD
ENDBRANCH  29  30
ENDBRANCH  26  29
ENDBRANCH  25  26
ENDBRANCH  22  25
ENDBRANCH   7  21
BRANCH   1  34
ATOM     32  O   LIG    1       26.021 -30.395   5.501  0.00  0.00    -0.273 OA
ATOM     33  C   LIG    1       25.264 -30.467   6.476  0.00  0.00    +0.245 C 
ATOM     34  N   LIG    1       25.542 -31.309   7.570  0.00  0.00    -0.265 N 
BRANCH  34  35
ATOM     35  C   LIG    1       26.753 -32.164   7.522  0.00  0.00    +0.141 C 
BRANCH  35  36
ATOM     36  C   LIG    1       26.666 -33.454   8.352  0.00  0.00    +0.175 C 
BRANCH  36  37
ATOM     37  O   LIG    1       27.522 -33.414   9.492  0.00  0.00    -0.393 OA
ATOM     38  H   LIG    1       28.000 -32.569   9.494  0.00  0.00    +0.209 HD
ENDBRANCH  36  37
ENDBRANCH  35  36
ENDBRANCH  34  35
BRANCH  33  39
ATOM     39  C   LIG    1       24.035 -29.523   6.531  0.00  0.00    +0.252 C 
BRANCH  39  40
ATOM     40  O   LIG    1       23.182 -29.620   5.406  0.00  0.00    -0.386 OA
ATOM     41  H   LIG    1       22.795 -30.513   5.432  0.00  0.00    +0.210 HD
ENDBRANCH  39  40
ENDBRANCH  33  39
ENDBRANCH   1  34
TORSDOF 18
ENDMDL
MODEL 6
REMARK VINA RESULT:      -4.5      1.262      2.413
REMARK  Name = *****
REMARK                            x       y       z     vdW  Elec       q    Type
REMARK                         _______ _______ _______ _____ _____    ______ ____
ROOT
ATOM      1  C   LIG    1       25.288 -28.764  12.988  0.00  0.00    +0.064 A 
ATOM      2  C   LIG    1       25.878 -29.229  11.784  0.00  0.00    +0.049 A 
ATOM      3  I   LIG    1       28.037 -29.407  11.631  0.00  0.00    -0.041 I 
ATOM      4  C   LIG    1       25.077 -29.856  10.797  0.00  0.00    +0.065 A 
ATOM      5  C   LIG    1       23.834 -30.384  11.200  0.00  0.00    +0.040 A 
ATOM      6  I   LIG    1       23.144 -32.116  10.139  0.00  0.00    -0.042 I 
ATOM      7  C   LIG    1       23.213 -29.936  12.382  0.00  0.00    +0.065 A 
ATOM      8  C   LIG    1       23.898 -28.976  13.153  0.00  0.00    +0.049 A 
ATOM      9  I   LIG    1       22.753 -27.634  14.415  0.00  0.00    -0.041 I 
ENDROOT
BRANCH   4  10
ATOM     10  C   LIG    1       25.455 -29.817   9.330  0.00  0.00    +0.246 C 
ATOM     11  N   LIG    1       24.635 -29.050   8.500  0.00  0.00    -0.309 N 
ATOM     12  H   LIG    1       23.790 -28.613   8.846  0.00  0.00    +0.149 HD
ATOM     13  O   LIG    1       26.439 -30.356   8.893  0.00  0.00    -0.270 OA
BRANCH  11  14
ATOM     14  C   LIG    1       24.938 -28.862   7.082  0.00  0.00    +0.138 C 
BRANCH  14  15
ATOM     15  C   LIG    1       24.372 -29.996   6.216  0.00  0.00    +0.157 C 
BRANCH  15  16
ATOM     16  O   LIG    1       23.260 -29.516   5.432  0.00  0.00    -0.388 OA
ATOM     17  H   LIG    1       23.008 -28.640   5.778  0.00  0.00    +0.210 HD
ENDBRANCH  15  16
BRANCH  15  18
ATOM     18  C   LIG    1       25.424 -30.595   5.269  0.00  0.00    +0.188 C 
BRANCH  18  19
ATOM     19  O   LIG    1       26.381 -31.337   6.026  0.00  0.00    -0.392 OA
ATOM     20  H   LIG    1       26.886 -31.875   5.387  0.00  0.00    +0.209 HD
ENDBRANCH  18  19
ENDBRANCH  15  18
ENDBRANCH  14  15
ENDBRANCH  11  14
ENDBRANCH   4  10
BRANCH   7  21
ATOM     21  C   LIG    1       21.908 -30.466  12.897  0.00  0.00    +0.246 C 
ATOM     22  N   LIG    1       20.772 -30.060  12.239  0.00  0.00    -0.309 N 
ATOM     23  H   LIG    1       20.906 -29.816  11.268  0.00  0.00    +0.149 HD
ATOM     24  O   LIG    1       21.880 -31.227  13.865  0.00  0.00    -0.270 OA
BRANCH  22  25
ATOM     25  C   LIG    1       19.445 -30.537  12.630  0.00  0.00    +0.138 C 
BRANCH  25  26
ATOM     26  C   LIG    1       18.788 -31.371  11.514  0.00  0.00    +0.157 C 
BRANCH  26  27
ATOM     27  O   LIG    1       18.972 -30.736  10.236  0.00  0.00    -0.388 OA
ATOM     28  H   LIG    1       18.944 -29.775  10.380  0.00  0.00    +0.210 HD
ENDBRANCH  26  27
BRANCH  26  29
ATOM     29  C   LIG    1       19.360 -32.792  11.426  0.00  0.00    +0.188 C 
BRANCH  29  30
ATOM     30  O   LIG    1       19.929 -33.191  12.670  0.00  0.00    -0.392 OA
ATOM     31  H   LIG    1       19.991 -34.165  12.638  0.00  0.00    +0.209 HD
ENDBRANCH  29  30
ENDBRANCH  26  29
ENDBRANCH  25  26
ENDBRANCH  22  25
ENDBRANCH   7  21
BRANCH   1  34
ATOM     32  O   LIG    1       27.087 -26.358  15.013  0.00  0.00    -0.273 OA
ATOM     33  C   LIG    1       26.533 -26.873  14.034  0.00  0.00    +0.245 C 
ATOM     34  N   LIG    1       26.067 -28.201  14.062  0.00  0.00    -0.265 N 
BRANCH  34  35
ATOM     35  C   LIG    1       26.293 -29.012  15.283  0.00  0.00    +0.141 C 
BRANCH  35  36
ATOM     36  C   LIG    1       27.614 -29.794  15.304  0.00  0.00    +0.175 C 
BRANCH  36  37
ATOM     37  O   LIG    1       28.738 -28.939  15.500  0.00  0.00    -0.393 OA
ATOM     38  H   LIG    1       28.493 -28.036  15.240  0.00  0.00    +0.209 HD
ENDBRANCH  36  37
ENDBRANCH  35  36
ENDBRANCH  34  35
BRANCH  33  39
ATOM     39  C   LIG    1       26.256 -25.990  12.789  0.00  0.00    +0.252 C 
BRANCH  39  40
ATOM     40  O   LIG    1       25.910 -24.653  13.097  0.00  0.00    -0.386 OA
ATOM     41  H   LIG    1       24.967 -24.662  13.338  0.00  0.00    +0.210 HD
ENDBRANCH  39  40
ENDBRANCH  33  39
ENDBRANCH   1  34
TORSDOF 18
ENDMDL
MODEL 7
REMARK VINA RESULT:      -4.4      2.471      3.420
REMARK  Name = *****
REMARK                            x       y       z     vdW  Elec       q    Type
REMARK                         _______ _______ _______ _____ _____    ______ ____
ROOT
ATOM      1  C   LIG    1       24.803 -29.435  12.662  0.00  0.00    +0.064 A 
ATOM      2  C   LIG    1       24.573 -30.360  11.610  0.00  0.00    +0.049 A 
ATOM      3  I   LIG    1       25.886 -32.072  11.364  0.00  0.00    -0.041 I 
ATOM      4  C   LIG    1       23.340 -30.347  10.911  0.00  0.00    +0.065 A 
ATOM      5  C   LIG    1       22.237 -29.735  11.539  0.00  0.00    +0.040 A 
ATOM      6  I   LIG    1       20.307 -30.554  11.088  0.00  0.00    -0.042 I 
ATOM      7  C   LIG    1       22.429 -28.802  12.577  0.00  0.00    +0.065 A 
ATOM      8  C   LIG    1       23.753 -28.540  12.979  0.00  0.00    +0.049 A 
ATOM      9  I   LIG    1       24.218 -26.616  13.867  0.00  0.00    -0.041 I 
ENDROOT
BRANCH   4  10
ATOM     10  C   LIG    1       23.240 -30.821   9.475  0.00  0.00    +0.246 C 
ATOM     11  N   LIG    1       24.057 -30.168   8.550  0.00  0.00    -0.309 N 
ATOM     12  H   LIG    1       24.622 -29.370   8.812  0.00  0.00    +0.149 HD
ATOM     13  O   LIG    1       22.552 -31.749   9.139  0.00  0.00    -0.270 OA
BRANCH  11  14
ATOM     14  C   LIG    1       24.118 -30.585   7.150  0.00  0.00    +0.138 C 
BRANCH  14  15
ATOM     15  C   LIG    1       25.155 -29.779   6.353  0.00  0.00    +0.157 C 
BRANCH  15  16
ATOM     16  O   LIG    1       25.847 -30.640   5.426  0.00  0.00    -0.388 OA
ATOM     17  H   LIG    1       25.391 -31.502   5.421  0.00  0.00    +0.210 HD
ENDBRANCH  15  16
BRANCH  15  18
ATOM     18  C   LIG    1       24.524 -28.616   5.574  0.00  0.00    +0.188 C 
BRANCH  18  19
ATOM     19  O   LIG    1       23.295 -29.045   4.985  0.00  0.00    -0.392 OA
ATOM     20  H   LIG    1       23.011 -28.332   4.382  0.00  0.00    +0.209 HD
ENDBRANCH  18  19
ENDBRANCH  15  18
ENDBRANCH  14  15
ENDBRANCH  11  14
ENDBRANCH   4  10
BRANCH   7  21
ATOM     21  C   LIG    1       21.311 -28.128  13.317  0.00  0.00    +0.246 C 
ATOM     22  N   LIG    1       20.969 -28.659  14.536  0.00  0.00    -0.309 N 
ATOM     23  H   LIG    1       21.715 -29.142  15.017  0.00  0.00    +0.149 HD
ATOM     24  O   LIG    1       20.742 -27.149  12.833  0.00  0.00    -0.270 OA
BRANCH  22  25
ATOM     25  C   LIG    1       19.916 -28.068  15.364  0.00  0.00    +0.138 C 
BRANCH  25  26
ATOM     26  C   LIG    1       18.529 -28.638  15.014  0.00  0.00    +0.157 C 
BRANCH  26  27
ATOM     27  O   LIG    1       17.921 -27.873  13.958  0.00  0.00    -0.388 OA
ATOM     28  H   LIG    1       18.497 -27.942  13.177  0.00  0.00    +0.210 HD
ENDBRANCH  26  27
BRANCH  26  29
ATOM     29  C   LIG    1       18.589 -30.103  14.565  0.00  0.00    +0.188 C 
BRANCH  29  30
ATOM     30  O   LIG    1       19.320 -30.893  15.499  0.00  0.00    -0.392 OA
ATOM     31  H   LIG    1       20.013 -31.349  14.983  0.00  0.00    +0.209 HD
ENDBRANCH  29  30
ENDBRANCH  26  29
ENDBRANCH  25  26
ENDBRANCH  22  25
ENDBRANCH   7  21
BRANCH   1  34
ATOM     32  O   LIG    1       28.175 -28.752  13.798  0.00  0.00    -0.273 OA
ATOM     33  C   LIG    1       27.194 -28.838  13.050  0.00  0.00    +0.245 C 
ATOM     34  N   LIG    1       26.000 -29.460  13.464  0.00  0.00    -0.265 N 
BRANCH  34  35
ATOM     35  C   LIG    1       25.943 -30.067  14.815  0.00  0.00    +0.141 C 
BRANCH  35  36
ATOM     36  C   LIG    1       26.364 -31.543  14.879  0.00  0.00    +0.175 C 
BRANCH  36  37
ATOM     37  O   LIG    1       27.778 -31.699  14.787  0.00  0.00    -0.393 OA
ATOM     38  H   LIG    1       28.064 -32.355  15.443  0.00  0.00    +0.209 HD
ENDBRANCH  36  37
ENDBRANCH  35  36
ENDBRANCH  34  35
BRANCH  33  39
ATOM     39  C   LIG    1       27.256 -28.147  11.663  0.00  0.00    +0.252 C 
BRANCH  39  40
ATOM     40  O   LIG    1       27.787 -28.963  10.636  0.00  0.00    -0.386 OA
ATOM     41  H   LIG    1       28.040 -29.803  11.056  0.00  0.00    +0.210 HD
ENDBRANCH  39  40
ENDBRANCH  33  39
ENDBRANCH   1  34
TORSDOF 18
ENDMDL
MODEL 8
REMARK VINA RESULT:      -4.4      2.182      7.231
REMARK  Name = *****
REMARK                            x       y       z     vdW  Elec       q    Type
REMARK                         _______ _______ _______ _____ _____    ______ ____
ROOT
ATOM      1  C   LIG    1       24.760 -31.418   8.666  0.00  0.00    +0.064 A 
ATOM      2  C   LIG    1       23.544 -32.145   8.750  0.00  0.00    +0.049 A 
ATOM      3  I   LIG    1       23.027 -33.576   7.201  0.00  0.00    -0.041 I 
ATOM      4  C   LIG    1       22.815 -32.171   9.965  0.00  0.00    +0.065 A 
ATOM      5  C   LIG    1       23.507 -31.853  11.152  0.00  0.00    +0.040 A 
ATOM      6  I   LIG    1       22.836 -32.832  12.938  0.00  0.00    -0.042 I 
ATOM      7  C   LIG    1       24.708 -31.121  11.107  0.00  0.00    +0.065 A 
ATOM      8  C   LIG    1       25.202 -30.758   9.839  0.00  0.00    +0.049 A 
ATOM      9  I   LIG    1       26.456 -28.996   9.666  0.00  0.00    -0.041 I 
ENDROOT
BRANCH   4  10
ATOM     10  C   LIG    1       21.312 -32.368   9.982  0.00  0.00    +0.246 C 
ATOM     11  N   LIG    1       20.546 -31.248  10.305  0.00  0.00    -0.309 N 
ATOM     12  H   LIG    1       20.974 -30.376  10.591  0.00  0.00    +0.149 HD
ATOM     13  O   LIG    1       20.785 -33.405   9.674  0.00  0.00    -0.270 OA
BRANCH  11  14
ATOM     14  C   LIG    1       19.084 -31.281  10.274  0.00  0.00    +0.138 C 
BRANCH  14  15
ATOM     15  C   LIG    1       18.480 -31.394  11.681  0.00  0.00    +0.157 C 
BRANCH  15  16
ATOM     16  O   LIG    1       17.188 -30.753  11.720  0.00  0.00    -0.388 OA
ATOM     17  H   LIG    1       16.593 -31.243  11.123  0.00  0.00    +0.210 HD
ENDBRANCH  15  16
BRANCH  15  18
ATOM     18  C   LIG    1       18.324 -32.852  12.140  0.00  0.00    +0.188 C 
BRANCH  18  19
ATOM     19  O   LIG    1       18.997 -33.036  13.386  0.00  0.00    -0.392 OA
ATOM     20  H   LIG    1       19.669 -32.330  13.447  0.00  0.00    +0.209 HD
ENDBRANCH  18  19
ENDBRANCH  15  18
ENDBRANCH  14  15
ENDBRANCH  11  14
ENDBRANCH   4  10
BRANCH   7  21
ATOM     21  C   LIG    1       25.521 -30.766  12.318  0.00  0.00    +0.246 C 
ATOM     22  N   LIG    1       25.171 -29.616  12.981  0.00  0.00    -0.309 N 
ATOM     23  H   LIG    1       24.201 -29.347  12.889  0.00  0.00    +0.149 HD
ATOM     24  O   LIG    1       26.451 -31.487  12.679  0.00  0.00    -0.270 OA
BRANCH  22  25
ATOM     25  C   LIG    1       25.869 -29.186  14.194  0.00  0.00    +0.138 C 
BRANCH  25  26
ATOM     26  C   LIG    1       26.539 -27.811  14.008  0.00  0.00    +0.157 C 
BRANCH  26  27
ATOM     27  O   LIG    1       27.778 -27.948  13.289  0.00  0.00    -0.388 OA
ATOM     28  H   LIG    1       28.501 -27.769  13.915  0.00  0.00    +0.210 HD
ENDBRANCH  26  27
BRANCH  26  29
ATOM     29  C   LIG    1       25.652 -26.821  13.242  0.00  0.00    +0.188 C 
BRANCH  29  30
ATOM     30  O   LIG    1       26.406 -25.694  12.804  0.00  0.00    -0.392 OA
ATOM     31  H   LIG    1       26.612 -25.856  11.863  0.00  0.00    +0.209 HD
ENDBRANCH  29  30
ENDBRANCH  26  29
ENDBRANCH  25  26
ENDBRANCH  22  25
ENDBRANCH   7  21
BRANCH   1  34
ATOM     32  O   LIG    1       27.165 -32.506   6.185  0.00  0.00    -0.273 OA
ATOM     33  C   LIG    1       26.552 -32.429   7.256  0.00  0.00    +0.245 C 
ATOM     34  N   LIG    1       25.586 -31.429   7.487  0.00  0.00    -0.265 N 
BRANCH  34  35
ATOM     35  C   LIG    1       25.339 -30.419   6.430  0.00  0.00    +0.141 C 
BRANCH  35  36
ATOM     36  C   LIG    1       24.063 -29.585   6.619  0.00  0.00    +0.175 C 
BRANCH  36  37
ATOM     37  O   LIG    1       23.145 -29.762   5.543  0.00  0.00    -0.393 OA
ATOM     38  H   LIG    1       23.307 -30.627   5.133  0.00  0.00    +0.209 HD
ENDBRANCH  36  37
ENDBRANCH  35  36
ENDBRANCH  34  35
BRANCH  33  39
ATOM     39  C   LIG    1       26.784 -33.528   8.324  0.00  0.00    +0.252 C 
BRANCH  39  40
ATOM     40  O   LIG    1       27.713 -33.168   9.330  0.00  0.00    -0.386 OA
ATOM     41  H   LIG    1       27.190 -32.852  10.087  0.00  0.00    +0.210 HD
ENDBRANCH  39  40
ENDBRANCH  33  39
ENDBRANCH   1  34
TORSDOF 18
ENDMDL
MODEL 9
REMARK VINA RESULT:      -4.3      2.084      6.984
REMARK  Name = *****
REMARK                            x       y       z     vdW  Elec       q    Type
REMARK                         _______ _______ _______ _____ _____    ______ ____
ROOT
ATOM      1  C   LIG    1       23.302 -31.400  12.603  0.00  0.00    +0.064 A 
ATOM      2  C   LIG    1       23.851 -30.320  13.342  0.00  0.00    +0.049 A 
ATOM      3  I   LIG    1       24.053 -30.473  15.499  0.00  0.00    -0.041 I 
ATOM      4  C   LIG    1       24.535 -29.276  12.671  0.00  0.00    +0.065 A 
ATOM      5  C   LIG    1       25.027 -29.541  11.377  0.00  0.00    +0.040 A 
ATOM      6  I   LIG    1       26.820 -28.509  10.809  0.00  0.00    -0.042 I 
ATOM      7  C   LIG    1       24.496 -30.596  10.610  0.00  0.00    +0.065 A 
ATOM      8  C   LIG    1       23.492 -31.388  11.200  0.00  0.00    +0.049 A 
ATOM      9  I   LIG    1       22.061 -32.395   9.917  0.00  0.00    -0.041 I 
ENDROOT
BRANCH   4  10
ATOM     10  C   LIG    1       24.597 -27.874  13.244  0.00  0.00    +0.246 C 
ATOM     11  N   LIG    1       25.720 -27.569  14.014  0.00  0.00    -0.309 N 
ATOM     12  H   LIG    1       26.413 -28.271  14.243  0.00  0.00    +0.149 HD
ATOM     13  O   LIG    1       23.767 -27.034  13.008  0.00  0.00    -0.270 OA
BRANCH  11  14
ATOM     14  C   LIG    1       25.942 -26.229  14.553  0.00  0.00    +0.138 C 
BRANCH  14  15
ATOM     15  C   LIG    1       27.422 -25.972  14.871  0.00  0.00    +0.157 C 
BRANCH  15  16
ATOM     16  O   LIG    1       28.257 -26.872  14.113  0.00  0.00    -0.388 OA
ATOM     17  H   LIG    1       28.016 -26.781  13.173  0.00  0.00    +0.210 HD
ENDBRANCH  15  16
BRANCH  15  18
ATOM     18  C   LIG    1       27.848 -24.527  14.570  0.00  0.00    +0.188 C 
BRANCH  18  19
ATOM     19  O   LIG    1       26.687 -23.711  14.407  0.00  0.00    -0.392 OA
ATOM     20  H   LIG    1       26.464 -23.728  13.457  0.00  0.00    +0.209 HD
ENDBRANCH  18  19
ENDBRANCH  15  18
ENDBRANCH  14  15
ENDBRANCH  11  14
ENDBRANCH   4  10
BRANCH   7  21
ATOM     21  C   LIG    1       24.982 -30.962   9.238  0.00  0.00    +0.246 C 
ATOM     22  N   LIG    1       24.509 -30.207   8.193  0.00  0.00    -0.309 N 
ATOM     23  H   LIG    1       24.246 -29.262   8.433  0.00  0.00    +0.149 HD
ATOM     24  O   LIG    1       25.765 -31.899   9.083  0.00  0.00    -0.270 OA
BRANCH  22  25
ATOM     25  C   LIG    1       24.937 -30.450   6.815  0.00  0.00    +0.138 C 
BRANCH  25  26
ATOM     26  C   LIG    1       24.556 -29.281   5.886  0.00  0.00    +0.157 C 
BRANCH  26  27
ATOM     27  O   LIG    1       23.199 -29.422   5.428  0.00  0.00    -0.388 OA
ATOM     28  H   LIG    1       22.621 -29.380   6.209  0.00  0.00    +0.210 HD
ENDBRANCH  26  27
BRANCH  26  29
ATOM     29  C   LIG    1       24.687 -27.916   6.572  0.00  0.00    +0.188 C 
BRANCH  29  30
ATOM     30  O   LIG    1       26.000 -27.731   7.094  0.00  0.00    -0.392 OA
ATOM     31  H   LIG    1       26.531 -27.359   6.363  0.00  0.00    +0.209 HD
ENDBRANCH  29  30
ENDBRANCH  26  29
ENDBRANCH  25  26
ENDBRANCH  22  25
ENDBRANCH   7  21
BRANCH   1  34
ATOM     32  O   LIG    1       20.784 -33.485  14.165  0.00  0.00    -0.273 OA
ATOM     33  C   LIG    1       21.360 -32.476  13.739  0.00  0.00    +0.245 C 
ATOM     34  N   LIG    1       22.675 -32.531  13.239  0.00  0.00    -0.265 N 
BRANCH  34  35
ATOM     35  C   LIG    1       23.398 -33.825  13.271  0.00  0.00    +0.141 C 
BRANCH  35  36
ATOM     36  C   LIG    1       24.853 -33.740  13.756  0.00  0.00    +0.175 C 
BRANCH  36  37
ATOM     37  O   LIG    1       25.778 -33.726  12.671  0.00  0.00    -0.393 OA
ATOM     38  H   LIG    1       25.875 -34.630  12.332  0.00  0.00    +0.209 HD
ENDBRANCH  36  37
ENDBRANCH  35  36
ENDBRANCH  34  35
BRANCH  33  39
ATOM     39  C   LIG    1       20.566 -31.146  13.661  0.00  0.00    +0.252 C 
BRANCH  39  40
ATOM     40  O   LIG    1       19.667 -31.074  12.570  0.00  0.00    -0.386 OA
ATOM     41  H   LIG    1       19.037 -31.807  12.685  0.00  0.00    +0.210 HD
ENDBRANCH  39  40
ENDBRANCH  33  39
ENDBRANCH   1  34
TORSDOF 18
ENDMDL
