MODEL 1
REMARK VINA RESULT:      -5.2      0.000      0.000
REMARK  Name = *****
REMARK                            x       y       z     vdW  Elec       q    Type
REMARK                         _______ _______ _______ _____ _____    ______ ____
ROOT
ATOM      1  C   LIG    1       25.644 -14.679   3.244  0.00  0.00    +0.205 C 
ENDROOT
BRANCH   1   2
ATOM      2  C   LIG    1       26.777 -13.942   3.944  0.00  0.00    -0.007 A 
ATOM      3  C   LIG    1       27.935 -13.551   3.251  0.00  0.00    +0.007 A 
ATOM      4  C   LIG    1       28.920 -12.790   3.882  0.00  0.00    +0.000 A 
ATOM      5  C   LIG    1       28.770 -12.424   5.217  0.00  0.00    +0.000 A 
ATOM      6  C   LIG    1       27.642 -12.829   5.927  0.00  0.00    +0.000 A 
ATOM      7  C   LIG    1       26.652 -13.585   5.296  0.00  0.00    +0.007 A 
ENDBRANCH   1   2
BRANCH   1   8
ATOM      8  C   LIG    1       25.283 -13.952   1.933  0.00  0.00    +0.064 C 
BRANCH   8   9
ATOM      9  C   LIG    1       24.655 -12.580   2.186  0.00  0.00    +0.084 C 
BRANCH   9  11
ATOM     10  C   LIG    1       23.751 -11.514   4.183  0.00  0.00    +0.101 C 
ATOM     11  N   LIG    1       23.616 -12.604   3.223  0.00  0.00    -0.319 NA
ATOM     12  H   LIG    1       22.706 -12.523   2.771  0.00  0.00    +0.122 HD
ENDBRANCH   9  11
ENDBRANCH   8   9
ENDBRANCH   1   8
BRANCH   1  13
ATOM     13  O   LIG    1       26.072 -16.015   2.952  0.00  0.00    -0.484 OA
BRANCH  13  14
ATOM     14  C   LIG    1       25.349 -17.093   3.380  0.00  0.00    +0.121 A 
ATOM     15  C   LIG    1       24.063 -16.780   3.834  0.00  0.00    +0.046 A 
ATOM     16  C   LIG    1       23.203 -17.774   4.315  0.00  0.00    +0.016 A 
ATOM     17  C   LIG    1       23.616 -19.112   4.351  0.00  0.00    +0.055 A 
ATOM     18  C   LIG    1       24.901 -19.424   3.889  0.00  0.00    +0.016 A 
ATOM     19  C   LIG    1       25.757 -18.425   3.405  0.00  0.00    +0.046 A 
BRANCH  17  20
ATOM     20  C   LIG    1       22.694 -20.185   4.876  0.00  0.00    +0.417 C 
ATOM     21  F   LIG    1       23.059 -21.433   4.475  0.00  0.00    -0.166 F 
ATOM     22  F   LIG    1       21.409 -20.018   4.458  0.00  0.00    -0.166 F 
ATOM     23  F   LIG    1       22.636 -20.235   6.237  0.00  0.00    -0.166 F 
ENDBRANCH  17  20
ENDBRANCH  13  14
ENDBRANCH   1  13
TORSDOF 7
ENDMDL
MODEL 2
REMARK VINA RESULT:      -5.0      4.459      7.722
REMARK  Name = *****
REMARK                            x       y       z     vdW  Elec       q    Type
REMARK                         _______ _______ _______ _____ _____    ______ ____
ROOT
ATOM      1  C   LIG    1       25.368 -19.281   4.709  0.00  0.00    +0.205 C 
ENDROOT
BRANCH   1   2
ATOM      2  C   LIG    1       23.919 -19.737   4.594  0.00  0.00    -0.007 A 
ATOM      3  C   LIG    1       23.518 -21.014   5.021  0.00  0.00    +0.007 A 
ATOM      4  C   LIG    1       22.172 -21.382   5.001  0.00  0.00    +0.000 A 
ATOM      5  C   LIG    1       21.211 -20.485   4.540  0.00  0.00    +0.000 A 
ATOM      6  C   LIG    1       21.596 -19.226   4.085  0.00  0.00    +0.000 A 
ATOM      7  C   LIG    1       22.942 -18.854   4.110  0.00  0.00    +0.007 A 
ENDBRANCH   1   2
BRANCH   1   8
ATOM      8  C   LIG    1       26.284 -20.505   4.902  0.00  0.00    +0.064 C 
BRANCH   8   9
ATOM      9  C   LIG    1       27.031 -20.464   6.236  0.00  0.00    +0.084 C 
BRANCH   9  11
ATOM     10  C   LIG    1       29.206 -19.371   6.366  0.00  0.00    +0.101 C 
ATOM     11  N   LIG    1       28.484 -20.608   6.089  0.00  0.00    -0.319 NA
ATOM     12  H   LIG    1       28.806 -21.322   6.743  0.00  0.00    +0.122 HD
ENDBRANCH   9  11
ENDBRANCH   8   9
ENDBRANCH   1   8
BRANCH   1  13
ATOM     13  O   LIG    1       25.732 -18.591   3.507  0.00  0.00    -0.484 OA
BRANCH  13  14
ATOM     14  C   LIG    1       26.144 -17.288   3.542  0.00  0.00    +0.121 A 
ATOM     15  C   LIG    1       27.449 -17.111   4.014  0.00  0.00    +0.046 A 
ATOM     16  C   LIG    1       28.014 -15.834   4.120  0.00  0.00    +0.016 A 
ATOM     17  C   LIG    1       27.277 -14.701   3.753  0.00  0.00    +0.055 A 
ATOM     18  C   LIG    1       25.973 -14.881   3.273  0.00  0.00    +0.016 A 
ATOM     19  C   LIG    1       25.414 -16.162   3.166  0.00  0.00    +0.046 A 
BRANCH  17  20
ATOM     20  C   LIG    1       27.880 -13.323   3.873  0.00  0.00    +0.417 C 
ATOM     21  F   LIG    1       27.657 -12.757   5.091  0.00  0.00    -0.166 F 
ATOM     22  F   LIG    1       27.375 -12.451   2.957  0.00  0.00    -0.166 F 
ATOM     23  F   LIG    1       29.232 -13.303   3.697  0.00  0.00    -0.166 F 
ENDBRANCH  17  20
ENDBRANCH  13  14
ENDBRANCH   1  13
TORSDOF 7
ENDMDL
MODEL 3
REMARK VINA RESULT:      -4.6      4.191      7.400
REMARK  Name = *****
REMARK                            x       y       z     vdW  Elec       q    Type
REMARK                         _______ _______ _______ _____ _____    ______ ____
ROOT
ATOM      1  C   LIG    1       25.992 -19.365   5.074  0.00  0.00    +0.205 C 
ENDROOT
BRANCH   1   2
ATOM      2  C   LIG    1       24.759 -20.195   5.406  0.00  0.00    -0.007 A 
ATOM      3  C   LIG    1       24.610 -20.813   6.659  0.00  0.00    +0.007 A 
ATOM      4  C   LIG    1       23.432 -21.488   6.985  0.00  0.00    +0.000 A 
ATOM      5  C   LIG    1       22.395 -21.566   6.059  0.00  0.00    +0.000 A 
ATOM      6  C   LIG    1       22.539 -20.985   4.802  0.00  0.00    +0.000 A 
ATOM      7  C   LIG    1       23.715 -20.304   4.476  0.00  0.00    +0.007 A 
ENDBRANCH   1   2
BRANCH   1   8
ATOM      8  C   LIG    1       27.232 -20.279   5.015  0.00  0.00    +0.064 C 
BRANCH   8   9
ATOM      9  C   LIG    1       27.989 -20.313   6.344  0.00  0.00    +0.084 C 
BRANCH   9  11
ATOM     10  C   LIG    1       29.474 -18.478   5.732  0.00  0.00    +0.101 C 
ATOM     11  N   LIG    1       29.376 -19.846   6.230  0.00  0.00    -0.319 NA
ATOM     12  H   LIG    1       29.806 -19.884   7.154  0.00  0.00    +0.122 HD
ENDBRANCH   9  11
ENDBRANCH   8   9
ENDBRANCH   1   8
BRANCH   1  13
ATOM     13  O   LIG    1       25.796 -18.735   3.802  0.00  0.00    -0.484 OA
BRANCH  13  14
ATOM     14  C   LIG    1       25.718 -17.375   3.696  0.00  0.00    +0.121 A 
ATOM     15  C   LIG    1       24.435 -16.855   3.900  0.00  0.00    +0.046 A 
ATOM     16  C   LIG    1       24.189 -15.480   3.814  0.00  0.00    +0.016 A 
ATOM     17  C   LIG    1       25.230 -14.590   3.521  0.00  0.00    +0.055 A 
ATOM     18  C   LIG    1       26.516 -15.112   3.325  0.00  0.00    +0.016 A 
ATOM     19  C   LIG    1       26.757 -16.490   3.415  0.00  0.00    +0.046 A 
BRANCH  17  20
ATOM     20  C   LIG    1       24.967 -13.108   3.421  0.00  0.00    +0.417 C 
ATOM     21  F   LIG    1       25.109 -12.468   4.614  0.00  0.00    -0.166 F 
ATOM     22  F   LIG    1       23.703 -12.831   2.995  0.00  0.00    -0.166 F 
ATOM     23  F   LIG    1       25.799 -12.464   2.554  0.00  0.00    -0.166 F 
ENDBRANCH  17  20
ENDBRANCH  13  14
ENDBRANCH   1  13
TORSDOF 7
ENDMDL
MODEL 4
REMARK VINA RESULT:      -3.8      1.534      3.170
REMARK  Name = *****
REMARK                            x       y       z     vdW  Elec       q    Type
REMARK                         _______ _______ _______ _____ _____    ______ ____
ROOT
ATOM      1  C   LIG    1       25.908 -14.598   2.733  0.00  0.00    +0.205 C 
ENDROOT
BRANCH   1   2
ATOM      2  C   LIG    1       25.114 -13.449   3.338  0.00  0.00    -0.007 A 
ATOM      3  C   LIG    1       24.436 -12.522   2.529  0.00  0.00    +0.007 A 
ATOM      4  C   LIG    1       23.632 -11.533   3.097  0.00  0.00    +0.000 A 
ATOM      5  C   LIG    1       23.508 -11.447   4.482  0.00  0.00    +0.000 A 
ATOM      6  C   LIG    1       24.198 -12.339   5.299  0.00  0.00    +0.000 A 
ATOM      7  C   LIG    1       24.997 -13.333   4.732  0.00  0.00    +0.007 A 
ENDBRANCH   1   2
BRANCH   1   8
ATOM      8  C   LIG    1       27.247 -14.071   2.182  0.00  0.00    +0.064 C 
BRANCH   8   9
ATOM      9  C   LIG    1       28.307 -13.928   3.276  0.00  0.00    +0.084 C 
BRANCH   9  11
ATOM     10  C   LIG    1       28.768 -12.216   4.949  0.00  0.00    +0.101 C 
ATOM     11  N   LIG    1       28.692 -12.534   3.528  0.00  0.00    -0.319 NA
ATOM     12  H   LIG    1       29.610 -12.373   3.113  0.00  0.00    +0.122 HD
ENDBRANCH   9  11
ENDBRANCH   8   9
ENDBRANCH   1   8
BRANCH   1  13
ATOM     13  O   LIG    1       26.156 -15.575   3.751  0.00  0.00    -0.484 OA
BRANCH  13  14
ATOM     14  C   LIG    1       25.466 -16.755   3.777  0.00  0.00    +0.121 A 
ATOM     15  C   LIG    1       26.271 -17.894   3.670  0.00  0.00    +0.046 A 
ATOM     16  C   LIG    1       25.712 -19.178   3.669  0.00  0.00    +0.016 A 
ATOM     17  C   LIG    1       24.326 -19.348   3.777  0.00  0.00    +0.055 A 
ATOM     18  C   LIG    1       23.523 -18.205   3.893  0.00  0.00    +0.016 A 
ATOM     19  C   LIG    1       24.088 -16.922   3.896  0.00  0.00    +0.046 A 
BRANCH  17  20
ATOM     20  C   LIG    1       23.721 -20.729   3.770  0.00  0.00    +0.417 C 
ATOM     21  F   LIG    1       22.403 -20.727   4.111  0.00  0.00    -0.166 F 
ATOM     22  F   LIG    1       24.333 -21.572   4.648  0.00  0.00    -0.166 F 
ATOM     23  F   LIG    1       23.788 -21.347   2.557  0.00  0.00    -0.166 F 
ENDBRANCH  17  20
ENDBRANCH  13  14
ENDBRANCH   1  13
TORSDOF 7
ENDMDL
MODEL 5
REMARK VINA RESULT:      -3.2      2.403      3.726
REMARK  Name = *****
REMARK                            x       y       z     vdW  Elec       q    Type
REMARK                         _______ _______ _______ _____ _____    ______ ____
ROOT
ATOM      1  C   LIG    1       26.835 -15.928   3.224  0.00  0.00    +0.205 C 
ENDROOT
BRANCH   1   2
ATOM      2  C   LIG    1       25.964 -14.682   3.313  0.00  0.00    -0.007 A 
ATOM      3  C   LIG    1       25.936 -13.733   2.276  0.00  0.00    +0.007 A 
ATOM      4  C   LIG    1       25.061 -12.647   2.327  0.00  0.00    +0.000 A 
ATOM      5  C   LIG    1       24.214 -12.486   3.421  0.00  0.00    +0.000 A 
ATOM      6  C   LIG    1       24.251 -13.401   4.471  0.00  0.00    +0.000 A 
ATOM      7  C   LIG    1       25.122 -14.491   4.419  0.00  0.00    +0.007 A 
ENDBRANCH   1   2
BRANCH   1   8
ATOM      8  C   LIG    1       27.272 -16.358   4.638  0.00  0.00    +0.064 C 
BRANCH   8   9
ATOM      9  C   LIG    1       28.764 -16.688   4.707  0.00  0.00    +0.084 C 
BRANCH   9  11
ATOM     10  C   LIG    1       29.403 -18.615   6.058  0.00  0.00    +0.101 C 
ATOM     11  N   LIG    1       29.036 -18.131   4.732  0.00  0.00    -0.319 NA
ATOM     12  H   LIG    1       28.195 -18.623   4.431  0.00  0.00    +0.122 HD
ENDBRANCH   9  11
ENDBRANCH   8   9
ENDBRANCH   1   8
BRANCH   1  13
ATOM     13  O   LIG    1       26.077 -16.979   2.612  0.00  0.00    -0.484 OA
BRANCH  13  14
ATOM     14  C   LIG    1       25.488 -17.953   3.370  0.00  0.00    +0.121 A 
ATOM     15  C   LIG    1       24.158 -17.690   3.713  0.00  0.00    +0.046 A 
ATOM     16  C   LIG    1       23.421 -18.587   4.495  0.00  0.00    +0.016 A 
ATOM     17  C   LIG    1       24.005 -19.774   4.953  0.00  0.00    +0.055 A 
ATOM     18  C   LIG    1       25.335 -20.039   4.601  0.00  0.00    +0.016 A 
ATOM     19  C   LIG    1       26.068 -19.140   3.815  0.00  0.00    +0.046 A 
BRANCH  17  20
ATOM     20  C   LIG    1       23.216 -20.739   5.802  0.00  0.00    +0.417 C 
ATOM     21  F   LIG    1       22.416 -20.109   6.706  0.00  0.00    -0.166 F 
ATOM     22  F   LIG    1       24.015 -21.572   6.525  0.00  0.00    -0.166 F 
ATOM     23  F   LIG    1       22.392 -21.551   5.081  0.00  0.00    -0.166 F 
ENDBRANCH  17  20
ENDBRANCH  13  14
ENDBRANCH   1  13
TORSDOF 7
ENDMDL
MODEL 6
REMARK VINA RESULT:      -2.5      1.574      3.108
REMARK  Name = *****
REMARK                            x       y       z     vdW  Elec       q    Type
REMARK                         _______ _______ _______ _____ _____    ______ ____
ROOT
ATOM      1  C   LIG    1       26.403 -15.241   3.064  0.00  0.00    +0.205 C 
ENDROOT
BRANCH   1   2
ATOM      2  C   LIG    1       25.436 -14.079   3.243  0.00  0.00    -0.007 A 
ATOM      3  C   LIG    1       24.918 -13.746   4.505  0.00  0.00    +0.007 A 
ATOM      4  C   LIG    1       24.111 -12.619   4.670  0.00  0.00    +0.000 A 
ATOM      5  C   LIG    1       23.800 -11.819   3.574  0.00  0.00    +0.000 A 
ATOM      6  C   LIG    1       24.281 -12.152   2.310  0.00  0.00    +0.000 A 
ATOM      7  C   LIG    1       25.093 -13.276   2.144  0.00  0.00    +0.007 A 
ENDBRANCH   1   2
BRANCH   1   8
ATOM      8  C   LIG    1       26.980 -15.653   4.432  0.00  0.00    +0.064 C 
BRANCH   8   9
ATOM      9  C   LIG    1       28.295 -14.935   4.745  0.00  0.00    +0.084 C 
BRANCH   9  11
ATOM     10  C   LIG    1       28.617 -12.538   4.437  0.00  0.00    +0.101 C 
ATOM     11  N   LIG    1       28.600 -13.852   3.802  0.00  0.00    -0.319 NA
ATOM     12  H   LIG    1       29.519 -14.026   3.397  0.00  0.00    +0.122 HD
ENDBRANCH   9  11
ENDBRANCH   8   9
ENDBRANCH   1   8
BRANCH   1  13
ATOM     13  O   LIG    1       25.696 -16.346   2.486  0.00  0.00    -0.484 OA
BRANCH  13  14
ATOM     14  C   LIG    1       25.365 -17.439   3.238  0.00  0.00    +0.121 A 
ATOM     15  C   LIG    1       24.018 -17.493   3.612  0.00  0.00    +0.046 A 
ATOM     16  C   LIG    1       23.525 -18.544   4.394  0.00  0.00    +0.016 A 
ATOM     17  C   LIG    1       24.377 -19.571   4.819  0.00  0.00    +0.055 A 
ATOM     18  C   LIG    1       25.724 -19.519   4.436  0.00  0.00    +0.016 A 
ATOM     19  C   LIG    1       26.212 -18.465   3.651  0.00  0.00    +0.046 A 
BRANCH  17  20
ATOM     20  C   LIG    1       23.851 -20.702   5.667  0.00  0.00    +0.417 C 
ATOM     21  F   LIG    1       23.078 -21.572   4.960  0.00  0.00    -0.166 F 
ATOM     22  F   LIG    1       23.075 -20.264   6.697  0.00  0.00    -0.166 F 
ATOM     23  F   LIG    1       24.831 -21.457   6.238  0.00  0.00    -0.166 F 
ENDBRANCH  17  20
ENDBRANCH  13  14
ENDBRANCH   1  13
TORSDOF 7
ENDMDL
MODEL 7
REMARK VINA RESULT:      -2.4      2.189      3.135
REMARK  Name = *****
REMARK                            x       y       z     vdW  Elec       q    Type
REMARK                         _______ _______ _______ _____ _____    ______ ____
ROOT
ATOM      1  C   LIG    1       26.251 -15.661   3.140  0.00  0.00    +0.205 C 
ENDROOT
BRANCH   1   2
ATOM      2  C   LIG    1       27.019 -14.547   3.840  0.00  0.00    -0.007 A 
ATOM      3  C   LIG    1       28.091 -13.891   3.212  0.00  0.00    +0.007 A 
ATOM      4  C   LIG    1       28.721 -12.808   3.827  0.00  0.00    +0.000 A 
ATOM      5  C   LIG    1       28.299 -12.376   5.082  0.00  0.00    +0.000 A 
ATOM      6  C   LIG    1       27.257 -13.035   5.730  0.00  0.00    +0.000 A 
ATOM      7  C   LIG    1       26.621 -14.116   5.115  0.00  0.00    +0.007 A 
ENDBRANCH   1   2
BRANCH   1   8
ATOM      8  C   LIG    1       26.982 -17.003   3.342  0.00  0.00    +0.064 C 
BRANCH   8   9
ATOM      9  C   LIG    1       28.047 -16.922   4.439  0.00  0.00    +0.084 C 
BRANCH   9  11
ATOM     10  C   LIG    1       29.447 -18.261   5.919  0.00  0.00    +0.101 C 
ATOM     11  N   LIG    1       28.783 -18.179   4.622  0.00  0.00    -0.319 NA
ATOM     12  H   LIG    1       28.123 -18.953   4.549  0.00  0.00    +0.122 HD
ENDBRANCH   9  11
ENDBRANCH   8   9
ENDBRANCH   1   8
BRANCH   1  13
ATOM     13  O   LIG    1       24.935 -15.739   3.701  0.00  0.00    -0.484 OA
BRANCH  13  14
ATOM     14  C   LIG    1       24.317 -16.945   3.877  0.00  0.00    +0.121 A 
ATOM     15  C   LIG    1       23.007 -16.855   4.359  0.00  0.00    +0.046 A 
ATOM     16  C   LIG    1       22.244 -18.003   4.602  0.00  0.00    +0.016 A 
ATOM     17  C   LIG    1       22.781 -19.275   4.365  0.00  0.00    +0.055 A 
ATOM     18  C   LIG    1       24.091 -19.362   3.874  0.00  0.00    +0.016 A 
ATOM     19  C   LIG    1       24.849 -18.209   3.629  0.00  0.00    +0.046 A 
BRANCH  17  20
ATOM     20  C   LIG    1       21.964 -20.514   4.632  0.00  0.00    +0.417 C 
ATOM     21  F   LIG    1       22.054 -20.933   5.924  0.00  0.00    -0.166 F 
ATOM     22  F   LIG    1       22.354 -21.571   3.868  0.00  0.00    -0.166 F 
ATOM     23  F   LIG    1       20.633 -20.352   4.388  0.00  0.00    -0.166 F 
ENDBRANCH  17  20
ENDBRANCH  13  14
ENDBRANCH   1  13
TORSDOF 7
ENDMDL
MODEL 8
REMARK VINA RESULT:      -2.4      4.325      6.835
REMARK  Name = *****
REMARK                            x       y       z     vdW  Elec       q    Type
REMARK                         _______ _______ _______ _____ _____    ______ ____
ROOT
ATOM      1  C   LIG    1       24.867 -18.884   3.680  0.00  0.00    +0.205 C 
ENDROOT
BRANCH   1   2
ATOM      2  C   LIG    1       25.969 -19.312   4.639  0.00  0.00    -0.007 A 
ATOM      3  C   LIG    1       25.750 -20.305   5.609  0.00  0.00    +0.007 A 
ATOM      4  C   LIG    1       26.796 -20.757   6.416  0.00  0.00    +0.000 A 
ATOM      5  C   LIG    1       28.070 -20.213   6.274  0.00  0.00    +0.000 A 
ATOM      6  C   LIG    1       28.297 -19.207   5.338  0.00  0.00    +0.000 A 
ATOM      7  C   LIG    1       27.253 -18.757   4.526  0.00  0.00    +0.007 A 
ENDBRANCH   1   2
BRANCH   1   8
ATOM      8  C   LIG    1       23.969 -20.092   3.347  0.00  0.00    +0.064 C 
BRANCH   8   9
ATOM      9  C   LIG    1       22.548 -19.922   3.886  0.00  0.00    +0.084 C 
BRANCH   9  11
ATOM     10  C   LIG    1       22.601 -21.454   5.782  0.00  0.00    +0.101 C 
ATOM     11  N   LIG    1       22.462 -20.069   5.345  0.00  0.00    -0.319 NA
ATOM     12  H   LIG    1       23.210 -19.521   5.769  0.00  0.00    +0.122 HD
ENDBRANCH   9  11
ENDBRANCH   8   9
ENDBRANCH   1   8
BRANCH   1  13
ATOM     13  O   LIG    1       24.084 -17.859   4.304  0.00  0.00    -0.484 OA
BRANCH  13  14
ATOM     14  C   LIG    1       24.312 -16.538   4.033  0.00  0.00    +0.121 A 
ATOM     15  C   LIG    1       25.558 -16.276   3.454  0.00  0.00    +0.046 A 
ATOM     16  C   LIG    1       25.945 -14.971   3.128  0.00  0.00    +0.016 A 
ATOM     17  C   LIG    1       25.085 -13.894   3.376  0.00  0.00    +0.055 A 
ATOM     18  C   LIG    1       23.834 -14.159   3.948  0.00  0.00    +0.016 A 
ATOM     19  C   LIG    1       23.450 -15.469   4.271  0.00  0.00    +0.046 A 
BRANCH  17  20
ATOM     20  C   LIG    1       25.502 -12.485   3.032  0.00  0.00    +0.417 C 
ATOM     21  F   LIG    1       24.448 -11.627   2.967  0.00  0.00    -0.166 F 
ATOM     22  F   LIG    1       26.124 -12.406   1.823  0.00  0.00    -0.166 F 
ATOM     23  F   LIG    1       26.370 -11.939   3.930  0.00  0.00    -0.166 F 
ENDBRANCH  17  20
ENDBRANCH  13  14
ENDBRANCH   1  13
TORSDOF 7
ENDMDL
MODEL 9
REMARK VINA RESULT:      -2.2      4.264      7.350
REMARK  Name = *****
REMARK                            x       y       z     vdW  Elec       q    Type
REMARK                         _______ _______ _______ _____ _____    ______ ____
ROOT
ATOM      1  C   LIG    1       24.952 -19.158   4.250  0.00  0.00    +0.205 C 
ENDROOT
BRANCH   1   2
ATOM      2  C   LIG    1       23.495 -18.720   4.201  0.00  0.00    -0.007 A 
ATOM      3  C   LIG    1       23.112 -17.412   4.541  0.00  0.00    +0.007 A 
ATOM      4  C   LIG    1       21.786 -16.998   4.397  0.00  0.00    +0.000 A 
ATOM      5  C   LIG    1       20.825 -17.888   3.927  0.00  0.00    +0.000 A 
ATOM      6  C   LIG    1       21.183 -19.197   3.614  0.00  0.00    +0.000 A 
ATOM      7  C   LIG    1       22.509 -19.613   3.751  0.00  0.00    +0.007 A 
ENDBRANCH   1   2
BRANCH   1   8
ATOM      8  C   LIG    1       25.042 -20.687   4.078  0.00  0.00    +0.064 C 
BRANCH   8   9
ATOM      9  C   LIG    1       25.246 -21.408   5.412  0.00  0.00    +0.084 C 
BRANCH   9  11
ATOM     10  C   LIG    1       23.493 -21.015   7.061  0.00  0.00    +0.101 C 
ATOM     11  N   LIG    1       24.808 -20.617   6.568  0.00  0.00    -0.319 NA
ATOM     12  H   LIG    1       25.485 -20.742   7.321  0.00  0.00    +0.122 HD
ENDBRANCH   9  11
ENDBRANCH   8   9
ENDBRANCH   1   8
BRANCH   1  13
ATOM     13  O   LIG    1       25.665 -18.511   3.189  0.00  0.00    -0.484 OA
BRANCH  13  14
ATOM     14  C   LIG    1       26.122 -17.230   3.328  0.00  0.00    +0.121 A 
ATOM     15  C   LIG    1       27.349 -17.126   3.992  0.00  0.00    +0.046 A 
ATOM     16  C   LIG    1       27.945 -15.881   4.223  0.00  0.00    +0.016 A 
ATOM     17  C   LIG    1       27.319 -14.705   3.790  0.00  0.00    +0.055 A 
ATOM     18  C   LIG    1       26.095 -14.811   3.118  0.00  0.00    +0.016 A 
ATOM     19  C   LIG    1       25.504 -16.062   2.886  0.00  0.00    +0.046 A 
BRANCH  17  20
ATOM     20  C   LIG    1       27.955 -13.361   4.044  0.00  0.00    +0.417 C 
ATOM     21  F   LIG    1       27.425 -12.375   3.269  0.00  0.00    -0.166 F 
ATOM     22  F   LIG    1       29.293 -13.360   3.788  0.00  0.00    -0.166 F 
ATOM     23  F   LIG    1       27.825 -12.930   5.331  0.00  0.00    -0.166 F 
ENDBRANCH  17  20
ENDBRANCH  13  14
ENDBRANCH   1  13
TORSDOF 7
ENDMDL
