MODEL 1
REMARK VINA RESULT:      -8.5      0.000      0.000
REMARK  Name = *****
REMARK                            x       y       z     vdW  Elec       q    Type
REMARK                         _______ _______ _______ _____ _____    ______ ____
ROOT
ATOM      1  C   LIG    1       24.265 -24.155   6.751  0.00  0.00    +0.258 C 
ATOM      2  C   LIG    1       24.913 -22.946   7.587  0.00  0.00    +0.274 C 
ATOM      3  N   LIG    1       24.792 -22.126   6.364  0.00  0.00    -0.230 N 
ATOM      4  C   LIG    1       25.730 -21.134   6.137  0.00  0.00    +0.125 C 
ATOM      5  C   LIG    1       26.773 -20.943   6.999  0.00  0.00    -0.005 C 
ATOM      6  C   LIG    1       26.979 -21.861   8.185  0.00  0.00    +0.196 C 
ATOM      7  O   LIG    1       26.271 -23.093   8.043  0.00  0.00    -0.349 OA
ATOM      8  C   LIG    1       24.606 -23.189   5.545  0.00  0.00    +0.277 C 
ATOM      9  O   LIG    1       24.732 -23.269   4.323  0.00  0.00    -0.270 OA
ENDROOT
BRANCH   1  10
ATOM     10  N   LIG    1       25.051 -25.417   6.756  0.00  0.00    -0.276 N 
ATOM     11  H   LIG    1       25.867 -25.490   7.355  0.00  0.00    +0.152 HD
ATOM     12  C   LIG    1       24.607 -26.548   6.104  0.00  0.00    +0.234 C 
ATOM     13  O   LIG    1       23.541 -26.593   5.489  0.00  0.00    -0.275 OA
BRANCH  12  14
ATOM     14  C   LIG    1       25.517 -27.765   6.239  0.00  0.00    +0.213 C 
BRANCH  14  15
ATOM     15  C   LIG    1       25.539 -28.307   7.663  0.00  0.00    -0.025 A 
ATOM     16  C   LIG    1       24.580 -29.234   8.099  0.00  0.00    +0.008 A 
ATOM     17  C   LIG    1       24.599 -29.722   9.405  0.00  0.00    +0.045 A 
ATOM     18  C   LIG    1       25.589 -29.303  10.281  0.00  0.00    +0.117 A 
ATOM     19  C   LIG    1       26.569 -28.406   9.870  0.00  0.00    +0.045 A 
ATOM     20  C   LIG    1       26.546 -27.910   8.562  0.00  0.00    +0.008 A 
BRANCH  18  21
ATOM     21  O   LIG    1       25.563 -29.809  11.546  0.00  0.00    -0.507 OA
ATOM     22  H   LIG    1       25.395 -29.084  12.170  0.00  0.00    +0.292 HD
ENDBRANCH  18  21
ENDBRANCH  14  15
BRANCH  14  23
ATOM     23  C   LIG    1       25.209 -28.863   5.238  0.00  0.00    +0.321 C 
ATOM     24  O   LIG    1       26.029 -29.723   4.935  0.00  0.00    -0.250 OA
BRANCH  23  25
ATOM     25  O   LIG    1       23.955 -28.874   4.734  0.00  0.00    -0.480 OA
ATOM     26  H   LIG    1       23.333 -29.457   5.230  0.00  0.00    +0.295 HD
ENDBRANCH  23  25
ENDBRANCH  14  23
ENDBRANCH  12  14
ENDBRANCH   1  10
BRANCH   1  28
ATOM     27  C   LIG    1       22.001 -23.216   6.675  0.00  0.00    +0.197 C 
ATOM     28  O   LIG    1       22.832 -24.358   6.883  0.00  0.00    -0.348 OA
ENDBRANCH   1  28
BRANCH   4  29
ATOM     29  C   LIG    1       25.466 -20.173   5.002  0.00  0.00    +0.351 C 
ATOM     30  O   LIG    1       24.434 -19.543   4.867  0.00  0.00    -0.244 OA
BRANCH  29  31
ATOM     31  O   LIG    1       26.432 -20.136   4.056  0.00  0.00    -0.476 OA
ATOM     32  H   LIG    1       26.870 -19.265   3.931  0.00  0.00    +0.295 HD
ENDBRANCH  29  31
ENDBRANCH   4  29
BRANCH   5  33
ATOM     33  C   LIG    1       27.858 -19.884   6.865  0.00  0.00    +0.112 C 
BRANCH  33  34
ATOM     34  S   LIG    1       29.452 -20.672   6.475  0.00  0.00    -0.080 S 
BRANCH  34  35
ATOM     35  C   LIG    1       30.526 -19.750   7.468  0.00  0.00    +0.209 A 
ATOM     36  N   LIG    1       31.207 -20.260   8.536  0.00  0.00    -0.223 N 
ATOM     37  C   LIG    1       31.195 -21.584   9.089  0.00  0.00    +0.177 C 
ATOM     38  N   LIG    1       31.995 -19.304   9.062  0.00  0.00    -0.043 NA
ATOM     39  N   LIG    1       31.791 -18.233   8.305  0.00  0.00    -0.022 NA
ATOM     40  N   LIG    1       30.879 -18.496   7.307  0.00  0.00    -0.102 NA
ENDBRANCH  34  35
ENDBRANCH  33  34
ENDBRANCH   5  33
TORSDOF 12
ENDMDL
MODEL 2
REMARK VINA RESULT:      -8.0      3.920      9.643
REMARK  Name = *****
REMARK                            x       y       z     vdW  Elec       q    Type
REMARK                         _______ _______ _______ _____ _____    ______ ____
ROOT
ATOM      1  C   LIG    1       26.160 -26.658   6.500  0.00  0.00    +0.258 C 
ATOM      2  C   LIG    1       26.526 -27.862   7.497  0.00  0.00    +0.274 C 
ATOM      3  N   LIG    1       25.451 -28.639   6.846  0.00  0.00    -0.230 N 
ATOM      4  C   LIG    1       24.757 -29.568   7.600  0.00  0.00    +0.125 C 
ATOM      5  C   LIG    1       25.026 -29.737   8.930  0.00  0.00    -0.005 C 
ATOM      6  C   LIG    1       26.037 -28.856   9.635  0.00  0.00    +0.196 C 
ATOM      7  O   LIG    1       26.312 -27.661   8.906  0.00  0.00    -0.349 OA
ATOM      8  C   LIG    1       24.877 -27.555   6.271  0.00  0.00    +0.277 C 
ATOM      9  O   LIG    1       23.741 -27.420   5.813  0.00  0.00    -0.270 OA
ENDROOT
BRANCH   1  10
ATOM     10  N   LIG    1       25.877 -25.356   7.160  0.00  0.00    -0.276 N 
ATOM     11  H   LIG    1       26.182 -25.210   8.117  0.00  0.00    +0.152 HD
ATOM     12  C   LIG    1       25.369 -24.284   6.458  0.00  0.00    +0.234 C 
ATOM     13  O   LIG    1       25.124 -24.327   5.252  0.00  0.00    -0.275 OA
BRANCH  12  14
ATOM     14  C   LIG    1       25.171 -23.015   7.280  0.00  0.00    +0.213 C 
BRANCH  14  15
ATOM     15  C   LIG    1       26.195 -21.942   6.929  0.00  0.00    -0.025 A 
ATOM     16  C   LIG    1       25.942 -21.004   5.916  0.00  0.00    +0.008 A 
ATOM     17  C   LIG    1       26.884 -20.030   5.592  0.00  0.00    +0.045 A 
ATOM     18  C   LIG    1       28.079 -19.969   6.293  0.00  0.00    +0.117 A 
ATOM     19  C   LIG    1       28.347 -20.867   7.321  0.00  0.00    +0.045 A 
ATOM     20  C   LIG    1       27.405 -21.850   7.642  0.00  0.00    +0.008 A 
BRANCH  18  21
ATOM     21  O   LIG    1       28.967 -18.998   5.939  0.00  0.00    -0.507 OA
ATOM     22  H   LIG    1       28.903 -18.848   4.982  0.00  0.00    +0.292 HD
ENDBRANCH  18  21
ENDBRANCH  14  15
BRANCH  14  23
ATOM     23  C   LIG    1       23.757 -22.467   7.215  0.00  0.00    +0.321 C 
ATOM     24  O   LIG    1       23.369 -21.564   7.948  0.00  0.00    -0.250 OA
BRANCH  23  25
ATOM     25  O   LIG    1       22.957 -22.995   6.262  0.00  0.00    -0.480 OA
ATOM     26  H   LIG    1       22.019 -22.696   6.320  0.00  0.00    +0.295 HD
ENDBRANCH  23  25
ENDBRANCH  14  23
ENDBRANCH  12  14
ENDBRANCH   1  10
BRANCH   1  28
ATOM     27  C   LIG    1       26.606 -27.408   4.209  0.00  0.00    +0.197 C 
ATOM     28  O   LIG    1       26.950 -26.539   5.286  0.00  0.00    -0.348 OA
ENDBRANCH   1  28
BRANCH   4  29
ATOM     29  C   LIG    1       23.817 -30.496   6.869  0.00  0.00    +0.351 C 
ATOM     30  O   LIG    1       23.640 -31.663   7.167  0.00  0.00    -0.244 OA
BRANCH  29  31
ATOM     31  O   LIG    1       23.248 -29.969   5.761  0.00  0.00    -0.476 OA
ATOM     32  H   LIG    1       22.270 -29.874   5.791  0.00  0.00    +0.295 HD
ENDBRANCH  29  31
ENDBRANCH   4  29
BRANCH   5  33
ATOM     33  C   LIG    1       24.342 -30.729   9.860  0.00  0.00    +0.112 C 
BRANCH  33  34
ATOM     34  S   LIG    1       23.454 -29.839  11.175  0.00  0.00    -0.080 S 
BRANCH  34  35
ATOM     35  C   LIG    1       21.848 -30.437  10.950  0.00  0.00    +0.209 A 
ATOM     36  N   LIG    1       20.808 -30.176  11.797  0.00  0.00    -0.223 N 
ATOM     37  C   LIG    1       20.781 -29.416  13.014  0.00  0.00    +0.177 C 
ATOM     38  N   LIG    1       19.686 -30.741  11.315  0.00  0.00    -0.043 NA
ATOM     39  N   LIG    1       20.053 -31.327  10.182  0.00  0.00    -0.022 NA
ATOM     40  N   LIG    1       21.397 -31.145   9.941  0.00  0.00    -0.102 NA
ENDBRANCH  34  35
ENDBRANCH  33  34
ENDBRANCH   5  33
TORSDOF 12
ENDMDL
MODEL 3
REMARK VINA RESULT:      -7.6      4.092      9.027
REMARK  Name = *****
REMARK                            x       y       z     vdW  Elec       q    Type
REMARK                         _______ _______ _______ _____ _____    ______ ____
ROOT
ATOM      1  C   LIG    1       26.109 -26.646   6.544  0.00  0.00    +0.258 C 
ATOM      2  C   LIG    1       26.654 -27.770   7.553  0.00  0.00    +0.274 C 
ATOM      3  N   LIG    1       25.556 -28.635   7.075  0.00  0.00    -0.230 N 
ATOM      4  C   LIG    1       25.005 -29.552   7.953  0.00  0.00    +0.125 C 
ATOM      5  C   LIG    1       25.434 -29.629   9.249  0.00  0.00    -0.005 C 
ATOM      6  C   LIG    1       26.469 -28.660   9.783  0.00  0.00    +0.196 C 
ATOM      7  O   LIG    1       26.592 -27.497   8.965  0.00  0.00    -0.349 OA
ATOM      8  C   LIG    1       24.860 -27.617   6.515  0.00  0.00    +0.277 C 
ATOM      9  O   LIG    1       23.674 -27.565   6.187  0.00  0.00    -0.270 OA
ENDROOT
BRANCH   1  10
ATOM     10  N   LIG    1       25.832 -25.323   7.164  0.00  0.00    -0.276 N 
ATOM     11  H   LIG    1       26.147 -25.146   8.112  0.00  0.00    +0.152 HD
ATOM     12  C   LIG    1       25.316 -24.275   6.432  0.00  0.00    +0.234 C 
ATOM     13  O   LIG    1       25.060 -24.358   5.230  0.00  0.00    -0.275 OA
BRANCH  12  14
ATOM     14  C   LIG    1       25.126 -22.979   7.213  0.00  0.00    +0.213 C 
BRANCH  14  15
ATOM     15  C   LIG    1       26.138 -21.914   6.809  0.00  0.00    -0.025 A 
ATOM     16  C   LIG    1       25.847 -20.986   5.796  0.00  0.00    +0.008 A 
ATOM     17  C   LIG    1       26.778 -20.019   5.423  0.00  0.00    +0.045 A 
ATOM     18  C   LIG    1       28.002 -19.956   6.073  0.00  0.00    +0.117 A 
ATOM     19  C   LIG    1       28.309 -20.844   7.098  0.00  0.00    +0.045 A 
ATOM     20  C   LIG    1       27.378 -21.821   7.468  0.00  0.00    +0.008 A 
BRANCH  18  21
ATOM     21  O   LIG    1       28.877 -18.993   5.671  0.00  0.00    -0.507 OA
ATOM     22  H   LIG    1       29.333 -18.637   6.451  0.00  0.00    +0.292 HD
ENDBRANCH  18  21
ENDBRANCH  14  15
BRANCH  14  23
ATOM     23  C   LIG    1       23.708 -22.441   7.154  0.00  0.00    +0.321 C 
ATOM     24  O   LIG    1       23.305 -21.571   7.919  0.00  0.00    -0.250 OA
BRANCH  23  25
ATOM     25  O   LIG    1       22.924 -22.935   6.170  0.00  0.00    -0.480 OA
ATOM     26  H   LIG    1       21.989 -23.085   6.446  0.00  0.00    +0.295 HD
ENDBRANCH  23  25
ENDBRANCH  14  23
ENDBRANCH  12  14
ENDBRANCH   1  10
BRANCH   1  28
ATOM     27  C   LIG    1       26.286 -27.466   4.240  0.00  0.00    +0.197 C 
ATOM     28  O   LIG    1       26.747 -26.560   5.241  0.00  0.00    -0.348 OA
ENDBRANCH   1  28
BRANCH   4  29
ATOM     29  C   LIG    1       24.040 -30.566   7.388  0.00  0.00    +0.351 C 
ATOM     30  O   LIG    1       23.284 -31.240   8.063  0.00  0.00    -0.244 OA
BRANCH  29  31
ATOM     31  O   LIG    1       24.147 -30.768   6.055  0.00  0.00    -0.476 OA
ATOM     32  H   LIG    1       23.722 -31.586   5.714  0.00  0.00    +0.295 HD
ENDBRANCH  29  31
ENDBRANCH   4  29
BRANCH   5  33
ATOM     33  C   LIG    1       24.918 -30.597  10.304  0.00  0.00    +0.112 C 
BRANCH  33  34
ATOM     34  S   LIG    1       24.714 -29.735  11.893  0.00  0.00    -0.080 S 
BRANCH  34  35
ATOM     35  C   LIG    1       25.888 -30.553  12.864  0.00  0.00    +0.209 A 
ATOM     36  N   LIG    1       26.965 -29.942  13.439  0.00  0.00    -0.223 N 
ATOM     37  C   LIG    1       27.389 -28.572  13.376  0.00  0.00    +0.177 C 
ATOM     38  N   LIG    1       27.652 -30.839  14.169  0.00  0.00    -0.043 NA
ATOM     39  N   LIG    1       26.982 -31.978  14.038  0.00  0.00    -0.022 NA
ATOM     40  N   LIG    1       25.879 -31.814  13.228  0.00  0.00    -0.102 NA
ENDBRANCH  34  35
ENDBRANCH  33  34
ENDBRANCH   5  33
TORSDOF 12
ENDMDL
MODEL 4
REMARK VINA RESULT:      -7.6      1.535      1.967
REMARK  Name = *****
REMARK                            x       y       z     vdW  Elec       q    Type
REMARK                         _______ _______ _______ _____ _____    ______ ____
ROOT
ATOM      1  C   LIG    1       24.865 -23.346   6.751  0.00  0.00    +0.258 C 
ATOM      2  C   LIG    1       25.686 -22.094   7.334  0.00  0.00    +0.274 C 
ATOM      3  N   LIG    1       25.248 -21.339   6.143  0.00  0.00    -0.230 N 
ATOM      4  C   LIG    1       26.083 -20.359   5.637  0.00  0.00    +0.125 C 
ATOM      5  C   LIG    1       27.308 -20.122   6.196  0.00  0.00    -0.005 C 
ATOM      6  C   LIG    1       27.819 -20.977   7.336  0.00  0.00    +0.196 C 
ATOM      7  O   LIG    1       27.116 -22.215   7.439  0.00  0.00    -0.349 OA
ATOM      8  C   LIG    1       24.877 -22.444   5.451  0.00  0.00    +0.277 C 
ATOM      9  O   LIG    1       24.692 -22.586   4.242  0.00  0.00    -0.270 OA
ENDROOT
BRANCH   1  10
ATOM     10  N   LIG    1       25.645 -24.605   6.619  0.00  0.00    -0.276 N 
ATOM     11  H   LIG    1       26.630 -24.604   6.861  0.00  0.00    +0.152 HD
ATOM     12  C   LIG    1       25.033 -25.810   6.347  0.00  0.00    +0.234 C 
ATOM     13  O   LIG    1       23.815 -25.927   6.203  0.00  0.00    -0.275 OA
BRANCH  12  14
ATOM     14  C   LIG    1       25.975 -27.008   6.280  0.00  0.00    +0.213 C 
BRANCH  14  15
ATOM     15  C   LIG    1       25.275 -28.306   6.663  0.00  0.00    -0.025 A 
ATOM     16  C   LIG    1       24.657 -29.108   5.690  0.00  0.00    +0.008 A 
ATOM     17  C   LIG    1       24.012 -30.291   6.045  0.00  0.00    +0.045 A 
ATOM     18  C   LIG    1       23.995 -30.696   7.371  0.00  0.00    +0.117 A 
ATOM     19  C   LIG    1       24.622 -29.936   8.354  0.00  0.00    +0.045 A 
ATOM     20  C   LIG    1       25.264 -28.744   8.000  0.00  0.00    +0.008 A 
BRANCH  18  21
ATOM     21  O   LIG    1       23.351 -31.859   7.665  0.00  0.00    -0.507 OA
ATOM     22  H   LIG    1       23.215 -31.909   8.625  0.00  0.00    +0.292 HD
ENDBRANCH  18  21
ENDBRANCH  14  15
BRANCH  14  23
ATOM     23  C   LIG    1       26.691 -27.140   4.949  0.00  0.00    +0.321 C 
ATOM     24  O   LIG    1       26.090 -27.148   3.880  0.00  0.00    -0.250 OA
BRANCH  23  25
ATOM     25  O   LIG    1       28.040 -27.193   5.001  0.00  0.00    -0.480 OA
ATOM     26  H   LIG    1       28.484 -26.771   4.228  0.00  0.00    +0.295 HD
ENDBRANCH  23  25
ENDBRANCH  14  23
ENDBRANCH  12  14
ENDBRANCH   1  10
BRANCH   1  28
ATOM     27  C   LIG    1       22.523 -22.623   6.798  0.00  0.00    +0.197 C 
ATOM     28  O   LIG    1       23.515 -23.543   7.250  0.00  0.00    -0.348 OA
ENDBRANCH   1  28
BRANCH   4  29
ATOM     29  C   LIG    1       25.529 -19.458   4.559  0.00  0.00    +0.351 C 
ATOM     30  O   LIG    1       26.201 -18.687   3.900  0.00  0.00    -0.244 OA
BRANCH  29  31
ATOM     31  O   LIG    1       24.181 -19.478   4.443  0.00  0.00    -0.476 OA
ATOM     32  H   LIG    1       23.835 -19.446   3.523  0.00  0.00    +0.295 HD
ENDBRANCH  29  31
ENDBRANCH   4  29
BRANCH   5  33
ATOM     33  C   LIG    1       28.309 -19.070   5.740  0.00  0.00    +0.112 C 
BRANCH  33  34
ATOM     34  S   LIG    1       30.005 -19.638   6.074  0.00  0.00    -0.080 S 
BRANCH  34  35
ATOM     35  C   LIG    1       30.279 -18.954   7.637  0.00  0.00    +0.209 A 
ATOM     36  N   LIG    1       30.769 -19.652   8.703  0.00  0.00    -0.223 N 
ATOM     37  C   LIG    1       31.135 -21.036   8.808  0.00  0.00    +0.177 C 
ATOM     38  N   LIG    1       30.915 -18.823   9.754  0.00  0.00    -0.043 NA
ATOM     39  N   LIG    1       30.522 -17.634   9.313  0.00  0.00    -0.022 NA
ATOM     40  N   LIG    1       30.125 -17.700   7.995  0.00  0.00    -0.102 NA
ENDBRANCH  34  35
ENDBRANCH  33  34
ENDBRANCH   5  33
TORSDOF 12
ENDMDL
MODEL 5
REMARK VINA RESULT:      -7.3      5.424      8.251
REMARK  Name = *****
REMARK                            x       y       z     vdW  Elec       q    Type
REMARK                         _______ _______ _______ _____ _____    ______ ____
ROOT
ATOM      1  C   LIG    1       23.191 -31.316  10.436  0.00  0.00    +0.258 C 
ATOM      2  C   LIG    1       24.241 -30.645  11.449  0.00  0.00    +0.274 C 
ATOM      3  N   LIG    1       23.081 -30.191  12.243  0.00  0.00    -0.230 N 
ATOM      4  C   LIG    1       23.183 -29.004  12.946  0.00  0.00    +0.125 C 
ATOM      5  C   LIG    1       24.315 -28.240  12.874  0.00  0.00    -0.005 C 
ATOM      6  C   LIG    1       25.459 -28.631  11.962  0.00  0.00    +0.196 C 
ATOM      7  O   LIG    1       25.054 -29.563  10.959  0.00  0.00    -0.349 OA
ATOM      8  C   LIG    1       22.186 -30.403  11.248  0.00  0.00    +0.277 C 
ATOM      9  O   LIG    1       21.047 -29.955  11.110  0.00  0.00    -0.270 OA
ENDROOT
BRANCH   1  10
ATOM     10  N   LIG    1       23.349 -30.921   9.011  0.00  0.00    -0.276 N 
ATOM     11  H   LIG    1       22.769 -30.177   8.637  0.00  0.00    +0.152 HD
ATOM     12  C   LIG    1       24.376 -31.412   8.234  0.00  0.00    +0.234 C 
ATOM     13  O   LIG    1       25.226 -32.195   8.661  0.00  0.00    -0.275 OA
BRANCH  12  14
ATOM     14  C   LIG    1       24.413 -30.877   6.806  0.00  0.00    +0.213 C 
BRANCH  14  15
ATOM     15  C   LIG    1       24.786 -29.400   6.759  0.00  0.00    -0.025 A 
ATOM     16  C   LIG    1       25.685 -28.851   7.687  0.00  0.00    +0.008 A 
ATOM     17  C   LIG    1       26.018 -27.498   7.646  0.00  0.00    +0.045 A 
ATOM     18  C   LIG    1       25.472 -26.685   6.664  0.00  0.00    +0.117 A 
ATOM     19  C   LIG    1       24.600 -27.206   5.714  0.00  0.00    +0.045 A 
ATOM     20  C   LIG    1       24.259 -28.562   5.759  0.00  0.00    +0.008 A 
BRANCH  18  21
ATOM     21  O   LIG    1       25.829 -25.370   6.667  0.00  0.00    -0.507 OA
ATOM     22  H   LIG    1       25.213 -24.876   6.103  0.00  0.00    +0.292 HD
ENDBRANCH  18  21
ENDBRANCH  14  15
BRANCH  14  23
ATOM     23  C   LIG    1       25.290 -31.695   5.877  0.00  0.00    +0.321 C 
ATOM     24  O   LIG    1       24.831 -32.335   4.936  0.00  0.00    -0.250 OA
BRANCH  23  25
ATOM     25  O   LIG    1       26.620 -31.638   6.110  0.00  0.00    -0.480 OA
ATOM     26  H   LIG    1       26.883 -30.924   6.738  0.00  0.00    +0.295 HD
ENDBRANCH  23  25
ENDBRANCH  14  23
ENDBRANCH  12  14
ENDBRANCH   1  10
BRANCH   1  28
ATOM     27  C   LIG    1       21.666 -33.204  10.086  0.00  0.00    +0.197 C 
ATOM     28  O   LIG    1       22.899 -32.727  10.623  0.00  0.00    -0.348 OA
ENDBRANCH   1  28
BRANCH   4  29
ATOM     29  C   LIG    1       22.075 -28.669  13.916  0.00  0.00    +0.351 C 
ATOM     30  O   LIG    1       22.007 -29.104  15.051  0.00  0.00    -0.244 OA
BRANCH  29  31
ATOM     31  O   LIG    1       21.074 -27.923  13.397  0.00  0.00    -0.476 OA
ATOM     32  H   LIG    1       20.793 -28.165  12.487  0.00  0.00    +0.295 HD
ENDBRANCH  29  31
ENDBRANCH   4  29
BRANCH   5  33
ATOM     33  C   LIG    1       24.553 -26.926  13.604  0.00  0.00    +0.112 C 
BRANCH  33  34
ATOM     34  S   LIG    1       26.139 -26.202  13.083  0.00  0.00    -0.080 S 
BRANCH  34  35
ATOM     35  C   LIG    1       26.098 -24.687  13.915  0.00  0.00    +0.209 A 
ATOM     36  N   LIG    1       27.067 -24.261  14.778  0.00  0.00    -0.223 N 
ATOM     37  C   LIG    1       28.270 -24.916  15.207  0.00  0.00    +0.177 C 
ATOM     38  N   LIG    1       26.766 -23.025  15.215  0.00  0.00    -0.043 NA
ATOM     39  N   LIG    1       25.628 -22.711  14.608  0.00  0.00    -0.022 NA
ATOM     40  N   LIG    1       25.200 -23.737  13.794  0.00  0.00    -0.102 NA
ENDBRANCH  34  35
ENDBRANCH  33  34
ENDBRANCH   5  33
TORSDOF 12
ENDMDL
MODEL 6
REMARK VINA RESULT:      -7.2      4.558      7.960
REMARK  Name = *****
REMARK                            x       y       z     vdW  Elec       q    Type
REMARK                         _______ _______ _______ _____ _____    ______ ____
ROOT
ATOM      1  C   LIG    1       25.756 -30.214   7.481  0.00  0.00    +0.258 C 
ATOM      2  C   LIG    1       26.497 -29.912   8.873  0.00  0.00    +0.274 C 
ATOM      3  N   LIG    1       25.278 -30.400   9.551  0.00  0.00    -0.230 N 
ATOM      4  C   LIG    1       24.937 -29.852  10.775  0.00  0.00    +0.125 C 
ATOM      5  C   LIG    1       25.684 -28.850  11.329  0.00  0.00    -0.005 C 
ATOM      6  C   LIG    1       26.860 -28.255  10.583  0.00  0.00    +0.196 C 
ATOM      7  O   LIG    1       26.814 -28.543   9.186  0.00  0.00    -0.349 OA
ATOM      8  C   LIG    1       24.503 -30.310   8.443  0.00  0.00    +0.277 C 
ATOM      9  O   LIG    1       23.276 -30.278   8.346  0.00  0.00    -0.270 OA
ENDROOT
BRANCH   1  10
ATOM     10  N   LIG    1       25.703 -29.070   6.534  0.00  0.00    -0.276 N 
ATOM     11  H   LIG    1       26.077 -29.184   5.598  0.00  0.00    +0.152 HD
ATOM     12  C   LIG    1       25.006 -27.918   6.830  0.00  0.00    +0.234 C 
ATOM     13  O   LIG    1       24.382 -27.761   7.880  0.00  0.00    -0.275 OA
BRANCH  12  14
ATOM     14  C   LIG    1       25.025 -26.857   5.734  0.00  0.00    +0.213 C 
BRANCH  14  15
ATOM     15  C   LIG    1       24.799 -25.456   6.290  0.00  0.00    -0.025 A 
ATOM     16  C   LIG    1       25.870 -24.691   6.778  0.00  0.00    +0.008 A 
ATOM     17  C   LIG    1       25.660 -23.414   7.293  0.00  0.00    +0.045 A 
ATOM     18  C   LIG    1       24.380 -22.880   7.308  0.00  0.00    +0.117 A 
ATOM     19  C   LIG    1       23.302 -23.603   6.807  0.00  0.00    +0.045 A 
ATOM     20  C   LIG    1       23.512 -24.889   6.296  0.00  0.00    +0.008 A 
BRANCH  18  21
ATOM     21  O   LIG    1       24.227 -21.628   7.823  0.00  0.00    -0.507 OA
ATOM     22  H   LIG    1       24.768 -21.008   7.307  0.00  0.00    +0.292 HD
ENDBRANCH  18  21
ENDBRANCH  14  15
BRANCH  14  23
ATOM     23  C   LIG    1       26.266 -26.910   4.863  0.00  0.00    +0.321 C 
ATOM     24  O   LIG    1       26.222 -26.754   3.647  0.00  0.00    -0.250 OA
BRANCH  23  25
ATOM     25  O   LIG    1       27.440 -27.084   5.510  0.00  0.00    -0.480 OA
ATOM     26  H   LIG    1       28.224 -27.104   4.912  0.00  0.00    +0.295 HD
ENDBRANCH  23  25
ENDBRANCH  14  23
ENDBRANCH  12  14
ENDBRANCH   1  10
BRANCH   1  28
ATOM     27  C   LIG    1       25.954 -31.527   5.420  0.00  0.00    +0.197 C 
ATOM     28  O   LIG    1       26.037 -31.489   6.844  0.00  0.00    -0.348 OA
ENDBRANCH   1  28
BRANCH   4  29
ATOM     29  C   LIG    1       23.818 -30.511  11.546  0.00  0.00    +0.351 C 
ATOM     30  O   LIG    1       23.957 -31.502  12.238  0.00  0.00    -0.244 OA
BRANCH  29  31
ATOM     31  O   LIG    1       22.592 -29.983  11.326  0.00  0.00    -0.476 OA
ATOM     32  H   LIG    1       21.968 -30.555  10.826  0.00  0.00    +0.295 HD
ENDBRANCH  29  31
ENDBRANCH   4  29
BRANCH   5  33
ATOM     33  C   LIG    1       25.419 -28.176  12.668  0.00  0.00    +0.112 C 
BRANCH  33  34
ATOM     34  S   LIG    1       26.983 -27.587  13.388  0.00  0.00    -0.080 S 
BRANCH  34  35
ATOM     35  C   LIG    1       26.580 -25.946  13.753  0.00  0.00    +0.209 A 
ATOM     36  N   LIG    1       27.365 -25.112  14.497  0.00  0.00    -0.223 N 
ATOM     37  C   LIG    1       28.621 -25.364  15.143  0.00  0.00    +0.177 C 
ATOM     38  N   LIG    1       26.797 -23.894  14.552  0.00  0.00    -0.043 NA
ATOM     39  N   LIG    1       25.684 -23.998  13.836  0.00  0.00    -0.022 NA
ATOM     40  N   LIG    1       25.536 -25.271  13.331  0.00  0.00    -0.102 NA
ENDBRANCH  34  35
ENDBRANCH  33  34
ENDBRANCH   5  33
TORSDOF 12
ENDMDL
MODEL 7
REMARK VINA RESULT:      -7.2      4.071      9.041
REMARK  Name = *****
REMARK                            x       y       z     vdW  Elec       q    Type
REMARK                         _______ _______ _______ _____ _____    ______ ____
ROOT
ATOM      1  C   LIG    1       25.928 -26.698   6.052  0.00  0.00    +0.258 C 
ATOM      2  C   LIG    1       26.522 -27.752   7.108  0.00  0.00    +0.274 C 
ATOM      3  N   LIG    1       25.495 -28.703   6.634  0.00  0.00    -0.230 N 
ATOM      4  C   LIG    1       24.985 -29.627   7.529  0.00  0.00    +0.125 C 
ATOM      5  C   LIG    1       25.387 -29.636   8.836  0.00  0.00    -0.005 C 
ATOM      6  C   LIG    1       26.343 -28.585   9.361  0.00  0.00    +0.196 C 
ATOM      7  O   LIG    1       26.408 -27.442   8.509  0.00  0.00    -0.349 OA
ATOM      8  C   LIG    1       24.746 -27.750   6.027  0.00  0.00    +0.277 C 
ATOM      9  O   LIG    1       23.568 -27.788   5.672  0.00  0.00    -0.270 OA
ENDROOT
BRANCH   1  10
ATOM     10  N   LIG    1       25.550 -25.379   6.623  0.00  0.00    -0.276 N 
ATOM     11  H   LIG    1       25.785 -25.172   7.589  0.00  0.00    +0.152 HD
ATOM     12  C   LIG    1       25.047 -24.366   5.834  0.00  0.00    +0.234 C 
ATOM     13  O   LIG    1       24.885 -24.480   4.619  0.00  0.00    -0.275 OA
BRANCH  12  14
ATOM     14  C   LIG    1       24.744 -23.067   6.574  0.00  0.00    +0.213 C 
BRANCH  14  15
ATOM     15  C   LIG    1       25.111 -21.840   5.747  0.00  0.00    -0.025 A 
ATOM     16  C   LIG    1       24.301 -21.418   4.681  0.00  0.00    +0.008 A 
ATOM     17  C   LIG    1       24.644 -20.300   3.922  0.00  0.00    +0.045 A 
ATOM     18  C   LIG    1       25.788 -19.582   4.234  0.00  0.00    +0.117 A 
ATOM     19  C   LIG    1       26.596 -19.960   5.301  0.00  0.00    +0.045 A 
ATOM     20  C   LIG    1       26.257 -21.086   6.059  0.00  0.00    +0.008 A 
BRANCH  18  21
ATOM     21  O   LIG    1       26.079 -18.498   3.462  0.00  0.00    -0.507 OA
ATOM     22  H   LIG    1       26.738 -17.953   3.921  0.00  0.00    +0.292 HD
ENDBRANCH  18  21
ENDBRANCH  14  15
BRANCH  14  23
ATOM     23  C   LIG    1       23.317 -22.980   7.083  0.00  0.00    +0.321 C 
ATOM     24  O   LIG    1       22.922 -22.044   7.770  0.00  0.00    -0.250 OA
BRANCH  23  25
ATOM     25  O   LIG    1       22.484 -23.969   6.691  0.00  0.00    -0.480 OA
ATOM     26  H   LIG    1       22.839 -24.518   5.952  0.00  0.00    +0.295 HD
ENDBRANCH  23  25
ENDBRANCH  14  23
ENDBRANCH  12  14
ENDBRANCH   1  10
BRANCH   1  28
ATOM     27  C   LIG    1       27.812 -27.330   4.616  0.00  0.00    +0.197 C 
ATOM     28  O   LIG    1       26.590 -26.609   4.761  0.00  0.00    -0.348 OA
ENDBRANCH   1  28
BRANCH   4  29
ATOM     29  C   LIG    1       24.103 -30.720   6.975  0.00  0.00    +0.351 C 
ATOM     30  O   LIG    1       23.426 -31.464   7.660  0.00  0.00    -0.244 OA
BRANCH  29  31
ATOM     31  O   LIG    1       24.198 -30.902   5.638  0.00  0.00    -0.476 OA
ATOM     32  H   LIG    1       23.967 -31.801   5.315  0.00  0.00    +0.295 HD
ENDBRANCH  29  31
ENDBRANCH   4  29
BRANCH   5  33
ATOM     33  C   LIG    1       24.911 -30.604   9.909  0.00  0.00    +0.112 C 
BRANCH  33  34
ATOM     34  S   LIG    1       23.465 -29.915  10.771  0.00  0.00    -0.080 S 
BRANCH  34  35
ATOM     35  C   LIG    1       24.200 -29.308  12.214  0.00  0.00    +0.209 A 
ATOM     36  N   LIG    1       23.598 -28.428  13.067  0.00  0.00    -0.223 N 
ATOM     37  C   LIG    1       22.309 -27.803  12.987  0.00  0.00    +0.177 C 
ATOM     38  N   LIG    1       24.409 -28.196  14.116  0.00  0.00    -0.043 NA
ATOM     39  N   LIG    1       25.484 -28.942  13.893  0.00  0.00    -0.022 NA
ATOM     40  N   LIG    1       25.367 -29.642  12.712  0.00  0.00    -0.102 NA
ENDBRANCH  34  35
ENDBRANCH  33  34
ENDBRANCH   5  33
TORSDOF 12
ENDMDL
MODEL 8
REMARK VINA RESULT:      -6.9      5.046      8.675
REMARK  Name = *****
REMARK                            x       y       z     vdW  Elec       q    Type
REMARK                         _______ _______ _______ _____ _____    ______ ____
ROOT
ATOM      1  C   LIG    1       25.732 -29.686   7.939  0.00  0.00    +0.258 C 
ATOM      2  C   LIG    1       26.489 -29.446   9.335  0.00  0.00    +0.274 C 
ATOM      3  N   LIG    1       25.245 -29.876  10.006  0.00  0.00    -0.230 N 
ATOM      4  C   LIG    1       24.936 -29.329  11.239  0.00  0.00    +0.125 C 
ATOM      5  C   LIG    1       25.737 -28.378  11.807  0.00  0.00    -0.005 C 
ATOM      6  C   LIG    1       26.944 -27.838  11.069  0.00  0.00    +0.196 C 
ATOM      7  O   LIG    1       26.882 -28.102   9.668  0.00  0.00    -0.349 OA
ATOM      8  C   LIG    1       24.476 -29.727   8.901  0.00  0.00    +0.277 C 
ATOM      9  O   LIG    1       23.252 -29.625   8.806  0.00  0.00    -0.270 OA
ENDROOT
BRANCH   1  10
ATOM     10  N   LIG    1       25.742 -28.526   7.009  0.00  0.00    -0.276 N 
ATOM     11  H   LIG    1       26.585 -27.967   6.924  0.00  0.00    +0.152 HD
ATOM     12  C   LIG    1       24.703 -28.291   6.134  0.00  0.00    +0.234 C 
ATOM     13  O   LIG    1       23.713 -29.019   6.057  0.00  0.00    -0.275 OA
BRANCH  12  14
ATOM     14  C   LIG    1       24.890 -27.080   5.226  0.00  0.00    +0.213 C 
BRANCH  14  15
ATOM     15  C   LIG    1       24.760 -25.768   5.990  0.00  0.00    -0.025 A 
ATOM     16  C   LIG    1       23.509 -25.159   6.175  0.00  0.00    +0.008 A 
ATOM     17  C   LIG    1       23.394 -23.956   6.868  0.00  0.00    +0.045 A 
ATOM     18  C   LIG    1       24.527 -23.359   7.402  0.00  0.00    +0.117 A 
ATOM     19  C   LIG    1       25.777 -23.951   7.258  0.00  0.00    +0.045 A 
ATOM     20  C   LIG    1       25.894 -25.156   6.556  0.00  0.00    +0.008 A 
BRANCH  18  21
ATOM     21  O   LIG    1       24.362 -22.183   8.069  0.00  0.00    -0.507 OA
ATOM     22  H   LIG    1       23.432 -21.911   8.002  0.00  0.00    +0.292 HD
ENDBRANCH  18  21
ENDBRANCH  14  15
BRANCH  14  23
ATOM     23  C   LIG    1       26.175 -27.121   4.420  0.00  0.00    +0.321 C 
ATOM     24  O   LIG    1       26.222 -26.777   3.243  0.00  0.00    -0.250 OA
BRANCH  23  25
ATOM     25  O   LIG    1       27.285 -27.509   5.087  0.00  0.00    -0.480 OA
ATOM     26  H   LIG    1       27.467 -26.975   5.896  0.00  0.00    +0.295 HD
ENDBRANCH  23  25
ENDBRANCH  14  23
ENDBRANCH  12  14
ENDBRANCH   1  10
BRANCH   1  28
ATOM     27  C   LIG    1       26.770 -31.906   7.962  0.00  0.00    +0.197 C 
ATOM     28  O   LIG    1       25.942 -30.965   7.282  0.00  0.00    -0.348 OA
ENDBRANCH   1  28
BRANCH   4  29
ATOM     29  C   LIG    1       23.782 -29.936  12.001  0.00  0.00    +0.351 C 
ATOM     30  O   LIG    1       23.860 -30.956  12.661  0.00  0.00    -0.244 OA
BRANCH  29  31
ATOM     31  O   LIG    1       22.592 -29.323  11.810  0.00  0.00    -0.476 OA
ATOM     32  H   LIG    1       21.838 -29.917  11.597  0.00  0.00    +0.295 HD
ENDBRANCH  29  31
ENDBRANCH   4  29
BRANCH   5  33
ATOM     33  C   LIG    1       25.510 -27.712  13.156  0.00  0.00    +0.112 C 
BRANCH  33  34
ATOM     34  S   LIG    1       27.053 -27.719  14.121  0.00  0.00    -0.080 S 
BRANCH  34  35
ATOM     35  C   LIG    1       27.193 -29.399  14.505  0.00  0.00    +0.209 A 
ATOM     36  N   LIG    1       28.349 -30.116  14.389  0.00  0.00    -0.223 N 
ATOM     37  C   LIG    1       29.646 -29.706  13.932  0.00  0.00    +0.177 C 
ATOM     38  N   LIG    1       28.139 -31.376  14.814  0.00  0.00    -0.043 NA
ATOM     39  N   LIG    1       26.866 -31.406  15.191  0.00  0.00    -0.022 NA
ATOM     40  N   LIG    1       26.265 -30.180  15.005  0.00  0.00    -0.102 NA
ENDBRANCH  34  35
ENDBRANCH  33  34
ENDBRANCH   5  33
TORSDOF 12
ENDMDL
MODEL 9
REMARK VINA RESULT:      -6.6      4.921      8.433
REMARK  Name = *****
REMARK                            x       y       z     vdW  Elec       q    Type
REMARK                         _______ _______ _______ _____ _____    ______ ____
ROOT
ATOM      1  C   LIG    1       26.600 -31.099   9.370  0.00  0.00    +0.258 C 
ATOM      2  C   LIG    1       27.160 -30.013  10.413  0.00  0.00    +0.274 C 
ATOM      3  N   LIG    1       26.249 -30.604  11.414  0.00  0.00    -0.230 N 
ATOM      4  C   LIG    1       25.720 -29.782  12.393  0.00  0.00    +0.125 C 
ATOM      5  C   LIG    1       25.996 -28.443  12.412  0.00  0.00    -0.005 C 
ATOM      6  C   LIG    1       26.825 -27.806  11.316  0.00  0.00    +0.196 C 
ATOM      7  O   LIG    1       26.894 -28.624  10.148  0.00  0.00    -0.349 OA
ATOM      8  C   LIG    1       25.499 -31.260  10.496  0.00  0.00    +0.277 C 
ATOM      9  O   LIG    1       24.364 -31.727  10.600  0.00  0.00    -0.270 OA
ENDROOT
BRANCH   1  10
ATOM     10  N   LIG    1       26.081 -30.539   8.094  0.00  0.00    -0.276 N 
ATOM     11  H   LIG    1       26.521 -30.808   7.221  0.00  0.00    +0.152 HD
ATOM     12  C   LIG    1       24.915 -29.806   8.048  0.00  0.00    +0.234 C 
ATOM     13  O   LIG    1       24.228 -29.573   9.044  0.00  0.00    -0.275 OA
BRANCH  12  14
ATOM     14  C   LIG    1       24.507 -29.336   6.655  0.00  0.00    +0.213 C 
BRANCH  14  15
ATOM     15  C   LIG    1       24.831 -27.864   6.431  0.00  0.00    -0.025 A 
ATOM     16  C   LIG    1       25.875 -27.239   7.131  0.00  0.00    +0.008 A 
ATOM     17  C   LIG    1       26.164 -25.890   6.929  0.00  0.00    +0.045 A 
ATOM     18  C   LIG    1       25.427 -25.159   6.010  0.00  0.00    +0.117 A 
ATOM     19  C   LIG    1       24.404 -25.757   5.282  0.00  0.00    +0.045 A 
ATOM     20  C   LIG    1       24.108 -27.109   5.489  0.00  0.00    +0.008 A 
BRANCH  18  21
ATOM     21  O   LIG    1       25.748 -23.845   5.851  0.00  0.00    -0.507 OA
ATOM     22  H   LIG    1       25.086 -23.427   5.277  0.00  0.00    +0.292 HD
ENDBRANCH  18  21
ENDBRANCH  14  15
BRANCH  14  23
ATOM     23  C   LIG    1       25.066 -30.199   5.539  0.00  0.00    +0.321 C 
ATOM     24  O   LIG    1       26.034 -29.856   4.868  0.00  0.00    -0.250 OA
BRANCH  23  25
ATOM     25  O   LIG    1       24.470 -31.398   5.358  0.00  0.00    -0.480 OA
ATOM     26  H   LIG    1       23.485 -31.355   5.356  0.00  0.00    +0.295 HD
ENDBRANCH  23  25
ENDBRANCH  14  23
ENDBRANCH  12  14
ENDBRANCH   1  10
BRANCH   1  28
ATOM     27  C   LIG    1       26.743 -33.386   8.497  0.00  0.00    +0.197 C 
ATOM     28  O   LIG    1       27.373 -32.318   9.203  0.00  0.00    -0.348 OA
ENDBRANCH   1  28
BRANCH   4  29
ATOM     29  C   LIG    1       24.970 -30.441  13.526  0.00  0.00    +0.351 C 
ATOM     30  O   LIG    1       23.757 -30.444  13.632  0.00  0.00    -0.244 OA
BRANCH  29  31
ATOM     31  O   LIG    1       25.753 -30.947  14.506  0.00  0.00    -0.476 OA
ATOM     32  H   LIG    1       25.320 -31.597  15.102  0.00  0.00    +0.295 HD
ENDBRANCH  29  31
ENDBRANCH   4  29
BRANCH   5  33
ATOM     33  C   LIG    1       25.487 -27.441  13.438  0.00  0.00    +0.112 C 
BRANCH  33  34
ATOM     34  S   LIG    1       26.675 -27.295  14.808  0.00  0.00    -0.080 S 
BRANCH  34  35
ATOM     35  C   LIG    1       27.024 -25.602  14.762  0.00  0.00    +0.209 A 
ATOM     36  N   LIG    1       26.122 -24.626  15.077  0.00  0.00    -0.223 N 
ATOM     37  C   LIG    1       24.748 -24.736  15.475  0.00  0.00    +0.177 C 
ATOM     38  N   LIG    1       26.717 -23.422  14.992  0.00  0.00    -0.043 NA
ATOM     39  N   LIG    1       27.970 -23.680  14.638  0.00  0.00    -0.022 NA
ATOM     40  N   LIG    1       28.176 -25.034  14.492  0.00  0.00    -0.102 NA
ENDBRANCH  34  35
ENDBRANCH  33  34
ENDBRANCH   5  33
TORSDOF 12
ENDMDL
