MODEL 1
REMARK VINA RESULT:      -8.9      0.000      0.000
REMARK  Name = *****
REMARK                            x       y       z     vdW  Elec       q    Type
REMARK                         _______ _______ _______ _____ _____    ______ ____
ROOT
ATOM      1  O   LIG    1       26.217 -20.509   6.175  0.00  0.00    -0.458 OA
ENDROOT
BRANCH   1   3
ATOM      2  C   LIG    1       25.199 -22.664   6.579  0.00  0.00    +0.032 C 
ATOM      3  C   LIG    1       25.599 -21.634   5.498  0.00  0.00    +0.180 C 
ATOM      4  C   LIG    1       24.390 -21.119   4.715  0.00  0.00    +0.048 C 
ATOM      5  C   LIG    1       23.111 -20.879   5.540  0.00  0.00    -0.011 C 
ATOM      6  C   LIG    1       22.518 -19.498   5.226  0.00  0.00    +0.007 C 
ATOM      7  C   LIG    1       23.206 -21.064   7.062  0.00  0.00    +0.004 C 
ATOM      8  C   LIG    1       24.313 -21.957   7.620  0.00  0.00    +0.007 C 
BRANCH   2  10
ATOM      9  C   LIG    1       25.464 -25.206   6.272  0.00  0.00    +0.007 C 
ATOM     10  C   LIG    1       24.565 -23.985   6.046  0.00  0.00    -0.011 C 
ATOM     11  C   LIG    1       23.208 -24.281   6.713  0.00  0.00    +0.007 C 
ENDBRANCH   2  10
ENDBRANCH   1   3
BRANCH   1  12
ATOM     12  C   LIG    1       27.181 -19.810   5.517  0.00  0.00    +0.341 C 
ATOM     13  O   LIG    1       27.053 -19.175   4.489  0.00  0.00    -0.245 OA
BRANCH  12  14
ATOM     14  C   LIG    1       28.447 -19.916   6.311  0.00  0.00    +0.080 A 
ATOM     15  C   LIG    1       29.478 -18.965   6.157  0.00  0.00    +0.039 A 
ATOM     16  C   LIG    1       30.665 -19.152   6.883  0.00  0.00    +0.023 A 
ATOM     17  C   LIG    1       30.792 -20.183   7.818  0.00  0.00    +0.002 A 
ATOM     18  C   LIG    1       29.742 -21.071   8.021  0.00  0.00    +0.001 A 
ATOM     19  C   LIG    1       28.579 -20.944   7.269  0.00  0.00    +0.017 A 
BRANCH  15  20
ATOM     20  N   LIG    1       29.464 -17.982   5.149  0.00  0.00    -0.357 N 
ATOM     21  H   LIG    1       28.518 -17.659   4.931  0.00  0.00    +0.142 HD
ATOM     22  H   LIG    1       30.097 -17.206   5.326  0.00  0.00    +0.142 HD
ENDBRANCH  15  20
ENDBRANCH  12  14
ENDBRANCH   1  12
TORSDOF 5
ENDMDL
MODEL 2
REMARK VINA RESULT:      -8.6      1.570      2.173
REMARK  Name = *****
REMARK                            x       y       z     vdW  Elec       q    Type
REMARK                         _______ _______ _______ _____ _____    ______ ____
ROOT
ATOM      1  O   LIG    1       26.125 -20.372   6.790  0.00  0.00    -0.458 OA
ENDROOT
BRANCH   1   3
ATOM      2  C   LIG    1       24.496 -22.156   6.885  0.00  0.00    +0.032 C 
ATOM      3  C   LIG    1       25.629 -21.517   6.048  0.00  0.00    +0.180 C 
ATOM      4  C   LIG    1       25.137 -21.031   4.684  0.00  0.00    +0.048 C 
ATOM      5  C   LIG    1       23.739 -20.383   4.670  0.00  0.00    -0.011 C 
ATOM      6  C   LIG    1       23.770 -19.051   3.906  0.00  0.00    +0.007 C 
ATOM      7  C   LIG    1       23.037 -20.183   6.021  0.00  0.00    +0.004 C 
ATOM      8  C   LIG    1       23.449 -21.071   7.194  0.00  0.00    +0.007 C 
BRANCH   2  10
ATOM      9  C   LIG    1       24.672 -24.710   6.612  0.00  0.00    +0.007 C 
ATOM     10  C   LIG    1       23.865 -23.448   6.283  0.00  0.00    -0.011 C 
ATOM     11  C   LIG    1       22.428 -23.675   6.790  0.00  0.00    +0.007 C 
ENDBRANCH   2  10
ENDBRANCH   1   3
BRANCH   1  12
ATOM     12  C   LIG    1       27.045 -20.586   7.768  0.00  0.00    +0.341 C 
ATOM     13  O   LIG    1       26.863 -21.131   8.839  0.00  0.00    -0.245 OA
BRANCH  12  14
ATOM     14  C   LIG    1       28.363 -20.068   7.280  0.00  0.00    +0.080 A 
ATOM     15  C   LIG    1       29.575 -20.603   7.765  0.00  0.00    +0.039 A 
ATOM     16  C   LIG    1       30.777 -20.035   7.316  0.00  0.00    +0.023 A 
ATOM     17  C   LIG    1       30.790 -19.043   6.331  0.00  0.00    +0.002 A 
ATOM     18  C   LIG    1       29.595 -18.575   5.800  0.00  0.00    +0.001 A 
ATOM     19  C   LIG    1       28.388 -19.079   6.274  0.00  0.00    +0.017 A 
BRANCH  15  20
ATOM     20  N   LIG    1       29.631 -21.510   8.842  0.00  0.00    -0.357 N 
ATOM     21  H   LIG    1       29.863 -22.460   8.541  0.00  0.00    +0.142 HD
ATOM     22  H   LIG    1       30.225 -21.200   9.607  0.00  0.00    +0.142 HD
ENDBRANCH  15  20
ENDBRANCH  12  14
ENDBRANCH   1  12
TORSDOF 5
ENDMDL
MODEL 3
REMARK VINA RESULT:      -8.0      2.736      5.864
REMARK  Name = *****
REMARK                            x       y       z     vdW  Elec       q    Type
REMARK                         _______ _______ _______ _____ _____    ______ ____
ROOT
ATOM      1  O   LIG    1       24.274 -23.174   6.018  0.00  0.00    -0.458 OA
ENDROOT
BRANCH   1   3
ATOM      2  C   LIG    1       25.864 -21.480   6.684  0.00  0.00    +0.032 C 
ATOM      3  C   LIG    1       24.488 -22.118   6.989  0.00  0.00    +0.180 C 
ATOM      4  C   LIG    1       23.345 -21.110   6.865  0.00  0.00    +0.048 C 
ATOM      5  C   LIG    1       23.462 -20.104   5.704  0.00  0.00    -0.011 C 
ATOM      6  C   LIG    1       22.146 -20.033   4.915  0.00  0.00    +0.007 C 
ATOM      7  C   LIG    1       24.636 -20.282   4.729  0.00  0.00    +0.004 C 
ATOM      8  C   LIG    1       25.877 -21.031   5.212  0.00  0.00    +0.007 C 
BRANCH   2  10
ATOM      9  C   LIG    1       25.882 -20.618   9.110  0.00  0.00    +0.007 C 
ATOM     10  C   LIG    1       26.312 -20.351   7.662  0.00  0.00    -0.011 C 
ATOM     11  C   LIG    1       27.841 -20.165   7.661  0.00  0.00    +0.007 C 
ENDBRANCH   2  10
ENDBRANCH   1   3
BRANCH   1  12
ATOM     12  C   LIG    1       23.560 -24.267   6.401  0.00  0.00    +0.341 C 
ATOM     13  O   LIG    1       22.476 -24.279   6.950  0.00  0.00    -0.245 OA
BRANCH  12  14
ATOM     14  C   LIG    1       24.326 -25.485   5.984  0.00  0.00    +0.080 A 
ATOM     15  C   LIG    1       25.054 -25.502   4.775  0.00  0.00    +0.039 A 
ATOM     16  C   LIG    1       25.702 -26.692   4.408  0.00  0.00    +0.023 A 
ATOM     17  C   LIG    1       25.727 -27.799   5.261  0.00  0.00    +0.002 A 
ATOM     18  C   LIG    1       25.073 -27.749   6.486  0.00  0.00    +0.001 A 
ATOM     19  C   LIG    1       24.372 -26.602   6.844  0.00  0.00    +0.017 A 
BRANCH  15  20
ATOM     20  N   LIG    1       24.967 -24.472   3.818  0.00  0.00    -0.357 N 
ATOM     21  H   LIG    1       24.573 -24.794   2.931  0.00  0.00    +0.142 HD
ATOM     22  H   LIG    1       24.499 -23.636   4.158  0.00  0.00    +0.142 HD
ENDBRANCH  15  20
ENDBRANCH  12  14
ENDBRANCH   1  12
TORSDOF 5
ENDMDL
MODEL 4
REMARK VINA RESULT:      -8.0      1.617      3.515
REMARK  Name = *****
REMARK                            x       y       z     vdW  Elec       q    Type
REMARK                         _______ _______ _______ _____ _____    ______ ____
ROOT
ATOM      1  O   LIG    1       26.335 -21.230   6.660  0.00  0.00    -0.458 OA
ENDROOT
BRANCH   1   3
ATOM      2  C   LIG    1       24.306 -20.514   5.560  0.00  0.00    +0.032 C 
ATOM      3  C   LIG    1       24.923 -20.992   6.894  0.00  0.00    +0.180 C 
ATOM      4  C   LIG    1       24.291 -22.294   7.390  0.00  0.00    +0.048 C 
ATOM      5  C   LIG    1       23.962 -23.334   6.302  0.00  0.00    -0.011 C 
ATOM      6  C   LIG    1       24.486 -24.720   6.705  0.00  0.00    +0.007 C 
ATOM      7  C   LIG    1       24.402 -23.018   4.864  0.00  0.00    +0.004 C 
ATOM      8  C   LIG    1       24.624 -21.558   4.475  0.00  0.00    +0.007 C 
BRANCH   2  10
ATOM      9  C   LIG    1       22.493 -18.775   4.993  0.00  0.00    +0.007 C 
ATOM     10  C   LIG    1       22.791 -20.145   5.615  0.00  0.00    -0.011 C 
ATOM     11  C   LIG    1       21.921 -21.184   4.883  0.00  0.00    +0.007 C 
ENDBRANCH   2  10
ENDBRANCH   1   3
BRANCH   1  12
ATOM     12  C   LIG    1       27.192 -21.111   7.710  0.00  0.00    +0.341 C 
ATOM     13  O   LIG    1       27.043 -21.554   8.832  0.00  0.00    -0.245 OA
BRANCH  12  14
ATOM     14  C   LIG    1       28.401 -20.365   7.234  0.00  0.00    +0.080 A 
ATOM     15  C   LIG    1       29.681 -20.659   7.750  0.00  0.00    +0.039 A 
ATOM     16  C   LIG    1       30.766 -19.885   7.309  0.00  0.00    +0.023 A 
ATOM     17  C   LIG    1       30.614 -18.923   6.306  0.00  0.00    +0.002 A 
ATOM     18  C   LIG    1       29.364 -18.694   5.746  0.00  0.00    +0.001 A 
ATOM     19  C   LIG    1       28.262 -19.405   6.210  0.00  0.00    +0.017 A 
BRANCH  15  20
ATOM     20  N   LIG    1       29.883 -21.522   8.844  0.00  0.00    -0.357 N 
ATOM     21  H   LIG    1       29.294 -22.358   8.796  0.00  0.00    +0.142 HD
ATOM     22  H   LIG    1       30.858 -21.755   9.007  0.00  0.00    +0.142 HD
ENDBRANCH  15  20
ENDBRANCH  12  14
ENDBRANCH   1  12
TORSDOF 5
ENDMDL
MODEL 5
REMARK VINA RESULT:      -7.9      0.832      2.859
REMARK  Name = *****
REMARK                            x       y       z     vdW  Elec       q    Type
REMARK                         _______ _______ _______ _____ _____    ______ ____
ROOT
ATOM      1  O   LIG    1       26.594 -21.023   6.039  0.00  0.00    -0.458 OA
ENDROOT
BRANCH   1   3
ATOM      2  C   LIG    1       24.364 -20.522   5.253  0.00  0.00    +0.032 C 
ATOM      3  C   LIG    1       25.243 -20.766   6.502  0.00  0.00    +0.180 C 
ATOM      4  C   LIG    1       24.774 -21.975   7.312  0.00  0.00    +0.048 C 
ATOM      5  C   LIG    1       24.291 -23.185   6.490  0.00  0.00    -0.011 C 
ATOM      6  C   LIG    1       24.941 -24.479   7.001  0.00  0.00    +0.007 C 
ATOM      7  C   LIG    1       24.435 -23.106   4.962  0.00  0.00    +0.004 C 
ATOM      8  C   LIG    1       24.516 -21.728   4.308  0.00  0.00    +0.007 C 
BRANCH   2  10
ATOM      9  C   LIG    1       22.463 -18.812   4.952  0.00  0.00    +0.007 C 
ATOM     10  C   LIG    1       22.873 -20.167   5.542  0.00  0.00    -0.011 C 
ATOM     11  C   LIG    1       21.911 -21.228   4.975  0.00  0.00    +0.007 C 
ENDBRANCH   2  10
ENDBRANCH   1   3
BRANCH   1  12
ATOM     12  C   LIG    1       27.356 -19.965   5.650  0.00  0.00    +0.341 C 
ATOM     13  O   LIG    1       27.064 -19.112   4.835  0.00  0.00    -0.245 OA
BRANCH  12  14
ATOM     14  C   LIG    1       28.627 -19.997   6.443  0.00  0.00    +0.080 A 
ATOM     15  C   LIG    1       29.619 -19.011   6.259  0.00  0.00    +0.039 A 
ATOM     16  C   LIG    1       30.813 -19.129   6.986  0.00  0.00    +0.023 A 
ATOM     17  C   LIG    1       30.982 -20.127   7.951  0.00  0.00    +0.002 A 
ATOM     18  C   LIG    1       29.969 -21.049   8.183  0.00  0.00    +0.001 A 
ATOM     19  C   LIG    1       28.800 -20.990   7.431  0.00  0.00    +0.017 A 
BRANCH  15  20
ATOM     20  N   LIG    1       29.564 -18.059   5.222  0.00  0.00    -0.357 N 
ATOM     21  H   LIG    1       29.735 -17.107   5.557  0.00  0.00    +0.142 HD
ATOM     22  H   LIG    1       30.149 -18.290   4.424  0.00  0.00    +0.142 HD
ENDBRANCH  15  20
ENDBRANCH  12  14
ENDBRANCH   1  12
TORSDOF 5
ENDMDL
MODEL 6
REMARK VINA RESULT:      -7.9      2.913      5.947
REMARK  Name = *****
REMARK                            x       y       z     vdW  Elec       q    Type
REMARK                         _______ _______ _______ _____ _____    ______ ____
ROOT
ATOM      1  O   LIG    1       24.679 -23.352   6.912  0.00  0.00    -0.458 OA
ENDROOT
BRANCH   1   3
ATOM      2  C   LIG    1       23.734 -21.281   6.100  0.00  0.00    +0.032 C 
ATOM      3  C   LIG    1       24.885 -22.300   5.934  0.00  0.00    +0.180 C 
ATOM      4  C   LIG    1       26.256 -21.670   6.187  0.00  0.00    +0.048 C 
ATOM      5  C   LIG    1       26.320 -20.649   7.339  0.00  0.00    -0.011 C 
ATOM      6  C   LIG    1       27.510 -20.951   8.262  0.00  0.00    +0.007 C 
ATOM      7  C   LIG    1       25.052 -20.454   8.184  0.00  0.00    +0.004 C 
ATOM      8  C   LIG    1       23.703 -20.816   7.567  0.00  0.00    +0.007 C 
BRANCH   2  10
ATOM      9  C   LIG    1       24.001 -20.541   3.648  0.00  0.00    +0.007 C 
ATOM     10  C   LIG    1       23.741 -20.091   5.091  0.00  0.00    -0.011 C 
ATOM     11  C   LIG    1       22.406 -19.322   5.102  0.00  0.00    +0.007 C 
ENDBRANCH   2  10
ENDBRANCH   1   3
BRANCH   1  12
ATOM     12  C   LIG    1       23.750 -24.310   6.643  0.00  0.00    +0.341 C 
ATOM     13  O   LIG    1       22.545 -24.214   6.759  0.00  0.00    -0.245 OA
BRANCH  12  14
ATOM     14  C   LIG    1       24.472 -25.516   6.126  0.00  0.00    +0.080 A 
ATOM     15  C   LIG    1       25.073 -25.506   4.849  0.00  0.00    +0.039 A 
ATOM     16  C   LIG    1       25.682 -26.686   4.395  0.00  0.00    +0.023 A 
ATOM     17  C   LIG    1       25.796 -27.810   5.218  0.00  0.00    +0.002 A 
ATOM     18  C   LIG    1       25.270 -27.786   6.504  0.00  0.00    +0.001 A 
ATOM     19  C   LIG    1       24.607 -26.650   6.954  0.00  0.00    +0.017 A 
BRANCH  15  20
ATOM     20  N   LIG    1       24.888 -24.457   3.928  0.00  0.00    -0.357 N 
ATOM     21  H   LIG    1       25.421 -23.620   4.177  0.00  0.00    +0.142 HD
ATOM     22  H   LIG    1       25.043 -24.730   2.961  0.00  0.00    +0.142 HD
ENDBRANCH  15  20
ENDBRANCH  12  14
ENDBRANCH   1  12
TORSDOF 5
ENDMDL
MODEL 7
REMARK VINA RESULT:      -7.3      1.369      2.241
REMARK  Name = *****
REMARK                            x       y       z     vdW  Elec       q    Type
REMARK                         _______ _______ _______ _____ _____    ______ ____
ROOT
ATOM      1  O   LIG    1       26.335 -21.369   5.409  0.00  0.00    -0.458 OA
ENDROOT
BRANCH   1   3
ATOM      2  C   LIG    1       24.993 -23.210   6.216  0.00  0.00    +0.032 C 
ATOM      3  C   LIG    1       25.013 -21.694   5.913  0.00  0.00    +0.180 C 
ATOM      4  C   LIG    1       24.754 -20.852   7.163  0.00  0.00    +0.048 C 
ATOM      5  C   LIG    1       25.406 -21.364   8.462  0.00  0.00    -0.011 C 
ATOM      6  C   LIG    1       26.138 -20.223   9.184  0.00  0.00    +0.007 C 
ATOM      7  C   LIG    1       26.333 -22.584   8.355  0.00  0.00    +0.004 C 
ATOM      8  C   LIG    1       26.158 -23.531   7.170  0.00  0.00    +0.007 C 
BRANCH   2  10
ATOM      9  C   LIG    1       22.428 -23.002   6.163  0.00  0.00    +0.007 C 
ATOM     10  C   LIG    1       23.629 -23.776   6.718  0.00  0.00    -0.011 C 
ATOM     11  C   LIG    1       23.445 -25.256   6.330  0.00  0.00    +0.007 C 
ENDBRANCH   2  10
ENDBRANCH   1   3
BRANCH   1  12
ATOM     12  C   LIG    1       26.618 -20.066   5.134  0.00  0.00    +0.341 C 
ATOM     13  O   LIG    1       25.903 -19.266   4.565  0.00  0.00    -0.245 OA
BRANCH  12  14
ATOM     14  C   LIG    1       27.970 -19.761   5.702  0.00  0.00    +0.080 A 
ATOM     15  C   LIG    1       28.646 -18.571   5.359  0.00  0.00    +0.039 A 
ATOM     16  C   LIG    1       29.936 -18.370   5.875  0.00  0.00    +0.023 A 
ATOM     17  C   LIG    1       30.500 -19.261   6.791  0.00  0.00    +0.002 A 
ATOM     18  C   LIG    1       29.796 -20.393   7.185  0.00  0.00    +0.001 A 
ATOM     19  C   LIG    1       28.542 -20.646   6.641  0.00  0.00    +0.017 A 
BRANCH  15  20
ATOM     20  N   LIG    1       28.191 -17.699   4.352  0.00  0.00    -0.357 N 
ATOM     21  H   LIG    1       27.855 -16.808   4.728  0.00  0.00    +0.142 HD
ATOM     22  H   LIG    1       28.857 -17.562   3.596  0.00  0.00    +0.142 HD
ENDBRANCH  15  20
ENDBRANCH  12  14
ENDBRANCH   1  12
TORSDOF 5
ENDMDL
MODEL 8
REMARK VINA RESULT:      -7.2      3.422      5.893
REMARK  Name = *****
REMARK                            x       y       z     vdW  Elec       q    Type
REMARK                         _______ _______ _______ _____ _____    ______ ____
ROOT
ATOM      1  O   LIG    1       24.840 -22.988   5.774  0.00  0.00    -0.458 OA
ENDROOT
BRANCH   1   3
ATOM      2  C   LIG    1       23.781 -20.932   5.070  0.00  0.00    +0.032 C 
ATOM      3  C   LIG    1       25.132 -21.637   5.334  0.00  0.00    +0.180 C 
ATOM      4  C   LIG    1       25.944 -20.939   6.427  0.00  0.00    +0.048 C 
ATOM      5  C   LIG    1       25.133 -20.403   7.622  0.00  0.00    -0.011 C 
ATOM      6  C   LIG    1       25.779 -20.832   8.948  0.00  0.00    +0.007 C 
ATOM      7  C   LIG    1       23.630 -20.719   7.657  0.00  0.00    +0.004 C 
ATOM      8  C   LIG    1       22.921 -21.037   6.342  0.00  0.00    +0.007 C 
BRANCH   2  10
ATOM      9  C   LIG    1       24.645 -19.387   3.200  0.00  0.00    +0.007 C 
ATOM     10  C   LIG    1       23.880 -19.474   4.527  0.00  0.00    -0.011 C 
ATOM     11  C   LIG    1       22.489 -18.851   4.300  0.00  0.00    +0.007 C 
ENDBRANCH   2  10
ENDBRANCH   1   3
BRANCH   1  12
ATOM     12  C   LIG    1       25.843 -23.715   6.337  0.00  0.00    +0.341 C 
ATOM     13  O   LIG    1       26.783 -23.291   6.978  0.00  0.00    -0.245 OA
BRANCH  12  14
ATOM     14  C   LIG    1       25.568 -25.163   6.068  0.00  0.00    +0.080 A 
ATOM     15  C   LIG    1       24.246 -25.656   6.056  0.00  0.00    +0.039 A 
ATOM     16  C   LIG    1       24.055 -27.033   5.859  0.00  0.00    +0.023 A 
ATOM     17  C   LIG    1       25.127 -27.882   5.570  0.00  0.00    +0.002 A 
ATOM     18  C   LIG    1       26.419 -27.375   5.506  0.00  0.00    +0.001 A 
ATOM     19  C   LIG    1       26.640 -26.025   5.759  0.00  0.00    +0.017 A 
BRANCH  15  20
ATOM     20  N   LIG    1       23.140 -24.884   6.460  0.00  0.00    -0.357 N 
ATOM     21  H   LIG    1       22.636 -24.477   5.667  0.00  0.00    +0.142 HD
ATOM     22  H   LIG    1       22.513 -25.369   7.097  0.00  0.00    +0.142 HD
ENDBRANCH  15  20
ENDBRANCH  12  14
ENDBRANCH   1  12
TORSDOF 5
ENDMDL
MODEL 9
REMARK VINA RESULT:      -6.9      3.220      5.791
REMARK  Name = *****
REMARK                            x       y       z     vdW  Elec       q    Type
REMARK                         _______ _______ _______ _____ _____    ______ ____
ROOT
ATOM      1  O   LIG    1       24.543 -23.165   5.659  0.00  0.00    -0.458 OA
ENDROOT
BRANCH   1   3
ATOM      2  C   LIG    1       23.494 -21.049   5.146  0.00  0.00    +0.032 C 
ATOM      3  C   LIG    1       24.834 -21.818   5.204  0.00  0.00    +0.180 C 
ATOM      4  C   LIG    1       25.823 -21.183   6.181  0.00  0.00    +0.048 C 
ATOM      5  C   LIG    1       25.216 -20.639   7.489  0.00  0.00    -0.011 C 
ATOM      6  C   LIG    1       26.022 -21.126   8.702  0.00  0.00    +0.007 C 
ATOM      7  C   LIG    1       23.720 -20.889   7.732  0.00  0.00    +0.004 C 
ATOM      8  C   LIG    1       22.818 -21.144   6.526  0.00  0.00    +0.007 C 
BRANCH   2  10
ATOM      9  C   LIG    1       24.244 -19.492   3.238  0.00  0.00    +0.007 C 
ATOM     10  C   LIG    1       23.583 -19.584   4.619  0.00  0.00    -0.011 C 
ATOM     11  C   LIG    1       22.194 -18.928   4.511  0.00  0.00    +0.007 C 
ENDBRANCH   2  10
ENDBRANCH   1   3
BRANCH   1  12
ATOM     12  C   LIG    1       24.701 -24.192   4.780  0.00  0.00    +0.341 C 
ATOM     13  O   LIG    1       24.694 -24.125   3.567  0.00  0.00    -0.245 OA
BRANCH  12  14
ATOM     14  C   LIG    1       24.936 -25.442   5.571  0.00  0.00    +0.080 A 
ATOM     15  C   LIG    1       25.790 -25.435   6.695  0.00  0.00    +0.039 A 
ATOM     16  C   LIG    1       26.018 -26.650   7.359  0.00  0.00    +0.023 A 
ATOM     17  C   LIG    1       25.339 -27.817   6.998  0.00  0.00    +0.002 A 
ATOM     18  C   LIG    1       24.440 -27.798   5.939  0.00  0.00    +0.001 A 
ATOM     19  C   LIG    1       24.243 -26.621   5.225  0.00  0.00    +0.017 A 
BRANCH  15  20
ATOM     20  N   LIG    1       26.596 -24.332   7.034  0.00  0.00    -0.357 N 
ATOM     21  H   LIG    1       27.561 -24.602   7.242  0.00  0.00    +0.142 HD
ATOM     22  H   LIG    1       26.553 -23.571   6.361  0.00  0.00    +0.142 HD
ENDBRANCH  15  20
ENDBRANCH  12  14
ENDBRANCH   1  12
TORSDOF 5
ENDMDL
