MODEL 1
REMARK VINA RESULT:      16.7      0.000      0.000
REMARK  Name = *****
REMARK                            x       y       z     vdW  Elec       q    Type
REMARK                         _______ _______ _______ _____ _____    ______ ____
ROOT
ATOM      1  C   LIG    1       22.939 -17.593   4.301  0.00  0.00    +0.064 A 
ATOM      2  C   LIG    1       22.802 -16.179   4.151  0.00  0.00    +0.049 A 
ATOM      3  I   LIG    1       22.206 -15.558   6.455  0.00  0.00    -0.041 I 
ATOM      4  C   LIG    1       23.886 -15.369   3.846  0.00  0.00    +0.065 A 
ATOM      5  C   LIG    1       25.168 -15.992   3.835  0.00  0.00    +0.040 A 
ATOM      6  I   LIG    1       26.004 -15.071   6.046  0.00  0.00    -0.042 I 
ATOM      7  C   LIG    1       25.364 -17.385   3.851  0.00  0.00    +0.065 A 
ATOM      8  C   LIG    1       24.260 -18.138   4.278  0.00  0.00    +0.049 A 
ATOM      9  I   LIG    1       25.087 -18.823   6.456  0.00  0.00    -0.041 I 
ENDROOT
BRANCH   4  10
ATOM     10  C   LIG    1       23.874 -14.111   3.019  0.00  0.00    +0.246 C 
ATOM     11  N   LIG    1       25.043 -13.643   2.431  0.00  0.00    -0.309 N 
ATOM     12  H   LIG    1       24.825 -12.786   1.941  0.00  0.00    +0.149 HD
ATOM     13  O   LIG    1       22.865 -13.483   2.854  0.00  0.00    -0.270 OA
BRANCH  11  14
ATOM     14  C   LIG    1       26.389 -14.185   2.307  0.00  0.00    +0.138 C 
BRANCH  14  15
ATOM     15  C   LIG    1       27.448 -13.359   3.048  0.00  0.00    +0.157 C 
BRANCH  15  16
ATOM     16  O   LIG    1       28.679 -14.099   2.954  0.00  0.00    -0.388 OA
ATOM     17  H   LIG    1       29.160 -13.777   2.172  0.00  0.00    +0.210 HD
ENDBRANCH  15  16
BRANCH  15  18
ATOM     18  C   LIG    1       27.129 -13.121   4.540  0.00  0.00    +0.188 C 
BRANCH  18  19
ATOM     19  O   LIG    1       27.646 -11.979   5.210  0.00  0.00    -0.392 OA
ATOM     20  H   LIG    1       28.347 -11.521   4.724  0.00  0.00    +0.209 HD
ENDBRANCH  18  19
ENDBRANCH  15  18
ENDBRANCH  14  15
ENDBRANCH  11  14
ENDBRANCH   4  10
BRANCH   1  23
ATOM     21  C   LIG    1       19.546 -18.638   2.928  0.00  0.00    +0.110 C 
ATOM     22  C   LIG    1       20.942 -18.129   3.039  0.00  0.00    +0.217 C 
ATOM     23  N   LIG    1       21.802 -18.492   4.085  0.00  0.00    -0.267 N 
ATOM     24  O   LIG    1       21.313 -17.400   2.123  0.00  0.00    -0.276 OA
BRANCH  23  25
ATOM     25  C   LIG    1       21.668 -19.688   5.019  0.00  0.00    +0.147 C 
BRANCH  25  26
ATOM     26  C   LIG    1       22.454 -20.963   4.648  0.00  0.00    +0.158 C 
BRANCH  26  27
ATOM     27  O   LIG    1       22.980 -21.571   5.835  0.00  0.00    -0.388 OA
ATOM     28  H   LIG    1       23.953 -21.583   5.705  0.00  0.00    +0.210 HD
ENDBRANCH  26  27
BRANCH  26  29
ATOM     29  C   LIG    1       23.648 -20.864   3.713  0.00  0.00    +0.188 C 
BRANCH  29  30
ATOM     30  O   LIG    1       23.141 -21.214   2.408  0.00  0.00    -0.392 OA
ATOM     31  H   LIG    1       23.323 -20.474   1.806  0.00  0.00    +0.209 HD
ENDBRANCH  29  30
ENDBRANCH  26  29
ENDBRANCH  25  26
ENDBRANCH  23  25
ENDBRANCH   1  23
BRANCH   7  32
ATOM     32  C   LIG    1       26.456 -18.221   3.211  0.00  0.00    +0.246 C 
ATOM     33  N   LIG    1       27.726 -18.399   3.735  0.00  0.00    -0.309 N 
ATOM     34  H   LIG    1       28.239 -19.093   3.196  0.00  0.00    +0.149 HD
ATOM     35  O   LIG    1       26.228 -18.772   2.140  0.00  0.00    -0.270 OA
BRANCH  33  36
ATOM     36  C   LIG    1       28.482 -17.753   4.797  0.00  0.00    +0.138 C 
BRANCH  36  37
ATOM     37  C   LIG    1       29.318 -18.712   5.601  0.00  0.00    +0.157 C 
BRANCH  37  38
ATOM     38  O   LIG    1       29.475 -18.268   6.942  0.00  0.00    -0.388 OA
ATOM     39  H   LIG    1       29.180 -17.338   6.952  0.00  0.00    +0.210 HD
ENDBRANCH  37  38
BRANCH  37  40
ATOM     40  C   LIG    1       28.968 -20.179   5.497  0.00  0.00    +0.188 C 
BRANCH  40  41
ATOM     41  O   LIG    1       27.677 -20.436   6.058  0.00  0.00    -0.392 OA
ATOM     42  H   LIG    1       27.138 -19.643   5.885  0.00  0.00    +0.209 HD
ENDBRANCH  40  41
ENDBRANCH  37  40
ENDBRANCH  36  37
ENDBRANCH  33  36
ENDBRANCH   7  32
TORSDOF 18
ENDMDL
MODEL 2
REMARK VINA RESULT:      17.5      1.402      6.354
REMARK  Name = *****
REMARK                            x       y       z     vdW  Elec       q    Type
REMARK                         _______ _______ _______ _____ _____    ______ ____
ROOT
ATOM      1  C   LIG    1       24.472 -15.820   3.643  0.00  0.00    +0.064 A 
ATOM      2  C   LIG    1       25.576 -16.727   3.613  0.00  0.00    +0.049 A 
ATOM      3  I   LIG    1       26.734 -16.063   5.678  0.00  0.00    -0.041 I 
ATOM      4  C   LIG    1       25.398 -18.097   3.744  0.00  0.00    +0.065 A 
ATOM      5  C   LIG    1       24.082 -18.545   4.058  0.00  0.00    +0.040 A 
ATOM      6  I   LIG    1       24.485 -19.077   6.505  0.00  0.00    -0.042 I 
ATOM      7  C   LIG    1       22.937 -17.732   3.980  0.00  0.00    +0.065 A 
ATOM      8  C   LIG    1       23.185 -16.351   3.965  0.00  0.00    +0.049 A 
ATOM      9  I   LIG    1       22.419 -15.803   6.203  0.00  0.00    -0.041 I 
ENDROOT
BRANCH   4  10
ATOM     10  C   LIG    1       26.214 -19.184   3.096  0.00  0.00    +0.246 C 
ATOM     11  N   LIG    1       26.889 -20.117   3.873  0.00  0.00    -0.309 N 
ATOM     12  H   LIG    1       27.385 -20.741   3.250  0.00  0.00    +0.149 HD
ATOM     13  O   LIG    1       26.306 -19.265   1.902  0.00  0.00    -0.270 OA
BRANCH  11  14
ATOM     14  C   LIG    1       26.911 -20.405   5.300  0.00  0.00    +0.138 C 
BRANCH  14  15
ATOM     15  C   LIG    1       28.279 -20.163   5.948  0.00  0.00    +0.157 C 
BRANCH  15  16
ATOM     16  O   LIG    1       28.051 -19.279   7.060  0.00  0.00    -0.388 OA
ATOM     17  H   LIG    1       27.847 -18.398   6.703  0.00  0.00    +0.210 HD
ENDBRANCH  15  16
BRANCH  15  18
ATOM     18  C   LIG    1       29.315 -19.513   5.005  0.00  0.00    +0.188 C 
BRANCH  18  19
ATOM     19  O   LIG    1       29.426 -18.098   4.930  0.00  0.00    -0.392 OA
ATOM     20  H   LIG    1       28.576 -17.639   4.867  0.00  0.00    +0.209 HD
ENDBRANCH  18  19
ENDBRANCH  15  18
ENDBRANCH  14  15
ENDBRANCH  11  14
ENDBRANCH   4  10
BRANCH   1  23
ATOM     21  C   LIG    1       26.207 -12.753   2.204  0.00  0.00    +0.110 C 
ATOM     22  C   LIG    1       25.816 -14.160   2.501  0.00  0.00    +0.217 C 
ATOM     23  N   LIG    1       24.551 -14.509   2.993  0.00  0.00    -0.267 N 
ATOM     24  O   LIG    1       26.665 -15.010   2.243  0.00  0.00    -0.276 OA
BRANCH  23  25
ATOM     25  C   LIG    1       23.278 -13.674   2.944  0.00  0.00    +0.147 C 
BRANCH  25  26
ATOM     26  C   LIG    1       23.419 -12.158   3.190  0.00  0.00    +0.158 C 
BRANCH  26  27
ATOM     27  O   LIG    1       24.066 -11.543   2.068  0.00  0.00    -0.388 OA
ATOM     28  H   LIG    1       24.047 -10.581   2.258  0.00  0.00    +0.210 HD
ENDBRANCH  26  27
BRANCH  26  29
ATOM     29  C   LIG    1       24.201 -11.662   4.395  0.00  0.00    +0.188 C 
BRANCH  29  30
ATOM     30  O   LIG    1       24.248 -12.780   5.305  0.00  0.00    -0.392 OA
ATOM     31  H   LIG    1       23.342 -12.967   5.601  0.00  0.00    +0.209 HD
ENDBRANCH  29  30
ENDBRANCH  26  29
ENDBRANCH  25  26
ENDBRANCH  23  25
ENDBRANCH   1  23
BRANCH   7  32
ATOM     32  C   LIG    1       21.509 -18.094   3.617  0.00  0.00    +0.246 C 
ATOM     33  N   LIG    1       20.849 -19.234   4.043  0.00  0.00    -0.309 N 
ATOM     34  H   LIG    1       19.869 -19.200   3.773  0.00  0.00    +0.149 HD
ATOM     35  O   LIG    1       20.880 -17.348   2.875  0.00  0.00    -0.270 OA
BRANCH  33  36
ATOM     36  C   LIG    1       21.274 -20.467   4.689  0.00  0.00    +0.138 C 
BRANCH  36  37
ATOM     37  C   LIG    1       22.698 -20.843   4.377  0.00  0.00    +0.157 C 
BRANCH  37  38
ATOM     38  O   LIG    1       23.326 -21.469   5.486  0.00  0.00    -0.388 OA
ATOM     39  H   LIG    1       23.142 -22.423   5.396  0.00  0.00    +0.210 HD
ENDBRANCH  37  38
BRANCH  37  40
ATOM     40  C   LIG    1       22.945 -21.563   3.070  0.00  0.00    +0.188 C 
BRANCH  40  41
ATOM     41  O   LIG    1       24.307 -21.418   2.659  0.00  0.00    -0.392 OA
ATOM     42  H   LIG    1       24.400 -21.917   1.826  0.00  0.00    +0.209 HD
ENDBRANCH  40  41
ENDBRANCH  37  40
ENDBRANCH  36  37
ENDBRANCH  33  36
ENDBRANCH   7  32
TORSDOF 18
ENDMDL
MODEL 3
REMARK VINA RESULT:      18.0      2.392      6.337
REMARK  Name = *****
REMARK                            x       y       z     vdW  Elec       q    Type
REMARK                         _______ _______ _______ _____ _____    ______ ____
ROOT
ATOM      1  C   LIG    1       26.071 -17.241   3.961  0.00  0.00    +0.064 A 
ATOM      2  C   LIG    1       25.141 -16.168   4.117  0.00  0.00    +0.049 A 
ATOM      3  I   LIG    1       25.086 -15.310   1.813  0.00  0.00    -0.041 I 
ATOM      4  C   LIG    1       23.810 -16.396   4.431  0.00  0.00    +0.065 A 
ATOM      5  C   LIG    1       23.379 -17.754   4.445  0.00  0.00    +0.040 A 
ATOM      6  I   LIG    1       22.120 -17.729   2.243  0.00  0.00    -0.042 I 
ATOM      7  C   LIG    1       24.253 -18.856   4.425  0.00  0.00    +0.065 A 
ATOM      8  C   LIG    1       25.557 -18.575   3.989  0.00  0.00    +0.049 A 
ATOM      9  I   LIG    1       25.470 -19.648   1.812  0.00  0.00    -0.041 I 
ENDROOT
BRANCH   4  10
ATOM     10  C   LIG    1       22.911 -15.521   5.263  0.00  0.00    +0.246 C 
ATOM     11  N   LIG    1       23.298 -14.229   5.598  0.00  0.00    -0.309 N 
ATOM     12  H   LIG    1       22.569 -13.823   6.169  0.00  0.00    +0.149 HD
ATOM     13  O   LIG    1       21.850 -15.917   5.661  0.00  0.00    -0.270 OA
BRANCH  11  14
ATOM     14  C   LIG    1       24.418 -13.385   5.206  0.00  0.00    +0.138 C 
BRANCH  14  15
ATOM     15  C   LIG    1       24.043 -11.905   5.060  0.00  0.00    +0.157 C 
BRANCH  15  16
ATOM     16  O   LIG    1       22.899 -11.691   5.907  0.00  0.00    -0.388 OA
ATOM     17  H   LIG    1       22.832 -12.448   6.514  0.00  0.00    +0.210 HD
ENDBRANCH  15  16
BRANCH  15  18
ATOM     18  C   LIG    1       23.675 -11.490   3.619  0.00  0.00    +0.188 C 
BRANCH  18  19
ATOM     19  O   LIG    1       23.564 -12.472   2.596  0.00  0.00    -0.392 OA
ATOM     20  H   LIG    1       22.843 -12.309   1.971  0.00  0.00    +0.209 HD
ENDBRANCH  18  19
ENDBRANCH  15  18
ENDBRANCH  14  15
ENDBRANCH  11  14
ENDBRANCH   4  10
BRANCH   1  23
ATOM     21  C   LIG    1       29.468 -17.821   5.577  0.00  0.00    +0.110 C 
ATOM     22  C   LIG    1       28.155 -18.035   4.907  0.00  0.00    +0.217 C 
ATOM     23  N   LIG    1       27.507 -17.036   4.168  0.00  0.00    -0.267 N 
ATOM     24  O   LIG    1       27.692 -19.169   5.003  0.00  0.00    -0.276 OA
BRANCH  23  25
ATOM     25  C   LIG    1       28.123 -15.769   3.587  0.00  0.00    +0.147 C 
BRANCH  25  26
ATOM     26  C   LIG    1       28.398 -14.607   4.565  0.00  0.00    +0.158 C 
BRANCH  26  27
ATOM     27  O   LIG    1       27.164 -14.147   5.130  0.00  0.00    -0.388 OA
ATOM     28  H   LIG    1       26.509 -14.218   4.403  0.00  0.00    +0.210 HD
ENDBRANCH  26  27
BRANCH  26  29
ATOM     29  C   LIG    1       29.076 -13.345   4.059  0.00  0.00    +0.188 C 
BRANCH  29  30
ATOM     30  O   LIG    1       28.767 -12.328   5.035  0.00  0.00    -0.392 OA
ATOM     31  H   LIG    1       28.144 -11.702   4.632  0.00  0.00    +0.209 HD
ENDBRANCH  29  30
ENDBRANCH  26  29
ENDBRANCH  25  26
ENDBRANCH  23  25
ENDBRANCH   1  23
BRANCH   7  32
ATOM     32  C   LIG    1       24.112 -20.224   5.067  0.00  0.00    +0.246 C 
ATOM     33  N   LIG    1       23.203 -21.192   4.674  0.00  0.00    -0.309 N 
ATOM     34  H   LIG    1       23.376 -22.064   5.169  0.00  0.00    +0.149 HD
ATOM     35  O   LIG    1       24.830 -20.507   6.019  0.00  0.00    -0.270 OA
BRANCH  33  36
ATOM     36  C   LIG    1       22.037 -21.191   3.804  0.00  0.00    +0.138 C 
BRANCH  36  37
ATOM     37  C   LIG    1       20.780 -20.731   4.494  0.00  0.00    +0.157 C 
BRANCH  37  38
ATOM     38  O   LIG    1       21.066 -19.816   5.542  0.00  0.00    -0.388 OA
ATOM     39  H   LIG    1       20.331 -19.900   6.179  0.00  0.00    +0.210 HD
ENDBRANCH  37  38
BRANCH  37  40
ATOM     40  C   LIG    1       19.639 -20.283   3.609  0.00  0.00    +0.188 C 
BRANCH  40  41
ATOM     41  O   LIG    1       19.762 -18.895   3.282  0.00  0.00    -0.392 OA
ATOM     42  H   LIG    1       18.897 -18.616   2.931  0.00  0.00    +0.209 HD
ENDBRANCH  40  41
ENDBRANCH  37  40
ENDBRANCH  36  37
ENDBRANCH  33  36
ENDBRANCH   7  32
TORSDOF 18
ENDMDL
MODEL 4
REMARK VINA RESULT:      18.0      1.034      6.114
REMARK  Name = *****
REMARK                            x       y       z     vdW  Elec       q    Type
REMARK                         _______ _______ _______ _____ _____    ______ ____
ROOT
ATOM      1  C   LIG    1       24.888 -17.464   4.076  0.00  0.00    +0.064 A 
ATOM      2  C   LIG    1       23.624 -18.119   4.203  0.00  0.00    +0.049 A 
ATOM      3  I   LIG    1       23.732 -18.806   6.562  0.00  0.00    -0.041 I 
ATOM      4  C   LIG    1       22.428 -17.424   4.102  0.00  0.00    +0.065 A 
ATOM      5  C   LIG    1       22.518 -16.005   4.013  0.00  0.00    +0.040 A 
ATOM      6  I   LIG    1       21.806 -15.476   6.389  0.00  0.00    -0.042 I 
ATOM      7  C   LIG    1       23.713 -15.308   3.760  0.00  0.00    +0.065 A 
ATOM      8  C   LIG    1       24.889 -16.037   3.991  0.00  0.00    +0.049 A 
ATOM      9  I   LIG    1       25.633 -14.926   6.018  0.00  0.00    -0.041 I 
ENDROOT
BRANCH   4  10
ATOM     10  C   LIG    1       21.128 -17.934   3.539  0.00  0.00    +0.246 C 
ATOM     11  N   LIG    1       20.721 -19.241   3.777  0.00  0.00    -0.309 N 
ATOM     12  H   LIG    1       19.840 -19.385   3.301  0.00  0.00    +0.149 HD
ATOM     13  O   LIG    1       20.420 -17.231   2.872  0.00  0.00    -0.270 OA
BRANCH  11  14
ATOM     14  C   LIG    1       21.235 -20.314   4.616  0.00  0.00    +0.138 C 
BRANCH  14  15
ATOM     15  C   LIG    1       22.688 -20.690   4.300  0.00  0.00    +0.157 C 
BRANCH  15  16
ATOM     16  O   LIG    1       22.657 -21.422   3.062  0.00  0.00    -0.388 OA
ATOM     17  H   LIG    1       23.425 -22.019   3.050  0.00  0.00    +0.210 HD
ENDBRANCH  15  16
BRANCH  15  18
ATOM     18  C   LIG    1       23.357 -21.572   5.378  0.00  0.00    +0.188 C 
BRANCH  18  19
ATOM     19  O   LIG    1       22.880 -21.552   6.717  0.00  0.00    -0.392 OA
ATOM     20  H   LIG    1       23.407 -22.086   7.329  0.00  0.00    +0.209 HD
ENDBRANCH  18  19
ENDBRANCH  15  18
ENDBRANCH  14  15
ENDBRANCH  11  14
ENDBRANCH   4  10
BRANCH   1  23
ATOM     21  C   LIG    1       26.842 -20.435   2.720  0.00  0.00    +0.110 C 
ATOM     22  C   LIG    1       25.837 -19.348   2.885  0.00  0.00    +0.217 C 
ATOM     23  N   LIG    1       26.082 -18.197   3.647  0.00  0.00    -0.267 N 
ATOM     24  O   LIG    1       24.785 -19.502   2.269  0.00  0.00    -0.276 OA
BRANCH  23  25
ATOM     25  C   LIG    1       27.434 -17.650   4.088  0.00  0.00    +0.147 C 
BRANCH  25  26
ATOM     26  C   LIG    1       28.426 -18.650   4.718  0.00  0.00    +0.158 C 
BRANCH  26  27
ATOM     27  O   LIG    1       27.711 -19.767   5.260  0.00  0.00    -0.388 OA
ATOM     28  H   LIG    1       26.765 -19.571   5.089  0.00  0.00    +0.210 HD
ENDBRANCH  26  27
BRANCH  26  29
ATOM     29  C   LIG    1       29.332 -18.196   5.851  0.00  0.00    +0.188 C 
BRANCH  29  30
ATOM     30  O   LIG    1       28.957 -19.003   6.986  0.00  0.00    -0.392 OA
ATOM     31  H   LIG    1       28.284 -19.640   6.695  0.00  0.00    +0.209 HD
ENDBRANCH  29  30
ENDBRANCH  26  29
ENDBRANCH  25  26
ENDBRANCH  23  25
ENDBRANCH   1  23
BRANCH   7  32
ATOM     32  C   LIG    1       23.944 -14.012   3.005  0.00  0.00    +0.246 C 
ATOM     33  N   LIG    1       25.100 -13.696   2.311  0.00  0.00    -0.309 N 
ATOM     34  H   LIG    1       24.976 -12.831   1.789  0.00  0.00    +0.149 HD
ATOM     35  O   LIG    1       23.065 -13.158   3.015  0.00  0.00    -0.270 OA
BRANCH  33  36
ATOM     36  C   LIG    1       26.435 -14.272   2.253  0.00  0.00    +0.138 C 
BRANCH  36  37
ATOM     37  C   LIG    1       27.491 -13.390   2.864  0.00  0.00    +0.157 C 
BRANCH  37  38
ATOM     38  O   LIG    1       27.269 -12.021   2.556  0.00  0.00    -0.388 OA
ATOM     39  H   LIG    1       27.391 -11.940   1.591  0.00  0.00    +0.210 HD
ENDBRANCH  37  38
BRANCH  37  40
ATOM     40  C   LIG    1       27.822 -13.627   4.320  0.00  0.00    +0.188 C 
BRANCH  40  41
ATOM     41  O   LIG    1       27.246 -12.609   5.145  0.00  0.00    -0.392 OA
ATOM     42  H   LIG    1       27.928 -11.921   5.252  0.00  0.00    +0.209 HD
ENDBRANCH  40  41
ENDBRANCH  37  40
ENDBRANCH  36  37
ENDBRANCH  33  36
ENDBRANCH   7  32
TORSDOF 18
ENDMDL
MODEL 5
REMARK VINA RESULT:      18.2      1.300      6.109
REMARK  Name = *****
REMARK                            x       y       z     vdW  Elec       q    Type
REMARK                         _______ _______ _______ _____ _____    ______ ____
ROOT
ATOM      1  C   LIG    1       25.165 -17.260   4.315  0.00  0.00    +0.064 A 
ATOM      2  C   LIG    1       23.920 -17.962   4.311  0.00  0.00    +0.049 A 
ATOM      3  I   LIG    1       23.686 -18.434   6.714  0.00  0.00    -0.041 I 
ATOM      4  C   LIG    1       22.731 -17.336   3.967  0.00  0.00    +0.065 A 
ATOM      5  C   LIG    1       22.785 -15.927   3.760  0.00  0.00    +0.040 A 
ATOM      6  I   LIG    1       21.698 -15.228   5.942  0.00  0.00    -0.042 I 
ATOM      7  C   LIG    1       23.981 -15.199   3.625  0.00  0.00    +0.065 A 
ATOM      8  C   LIG    1       25.131 -15.848   4.098  0.00  0.00    +0.049 A 
ATOM      9  I   LIG    1       25.515 -14.530   6.101  0.00  0.00    -0.041 I 
ENDROOT
BRANCH   4  10
ATOM     10  C   LIG    1       21.551 -17.954   3.265  0.00  0.00    +0.246 C 
ATOM     11  N   LIG    1       21.031 -19.169   3.697  0.00  0.00    -0.309 N 
ATOM     12  H   LIG    1       20.262 -19.414   3.087  0.00  0.00    +0.149 HD
ATOM     13  O   LIG    1       21.039 -17.422   2.320  0.00  0.00    -0.270 OA
BRANCH  11  14
ATOM     14  C   LIG    1       21.297 -20.020   4.847  0.00  0.00    +0.138 C 
BRANCH  14  15
ATOM     15  C   LIG    1       21.999 -21.334   4.482  0.00  0.00    +0.157 C 
BRANCH  15  16
ATOM     16  O   LIG    1       22.977 -21.571   5.511  0.00  0.00    -0.388 OA
ATOM     17  H   LIG    1       23.550 -22.299   5.214  0.00  0.00    +0.210 HD
ENDBRANCH  15  16
BRANCH  15  18
ATOM     18  C   LIG    1       22.718 -21.303   3.116  0.00  0.00    +0.188 C 
BRANCH  18  19
ATOM     19  O   LIG    1       23.979 -20.660   2.984  0.00  0.00    -0.392 OA
ATOM     20  H   LIG    1       24.153 -19.992   3.664  0.00  0.00    +0.209 HD
ENDBRANCH  18  19
ENDBRANCH  15  18
ENDBRANCH  14  15
ENDBRANCH  11  14
ENDBRANCH   4  10
BRANCH   1  23
ATOM     21  C   LIG    1       28.925 -17.587   3.821  0.00  0.00    +0.110 C 
ATOM     22  C   LIG    1       27.586 -17.197   4.346  0.00  0.00    +0.217 C 
ATOM     23  N   LIG    1       26.435 -17.970   4.141  0.00  0.00    -0.267 N 
ATOM     24  O   LIG    1       27.561 -16.168   5.016  0.00  0.00    -0.276 OA
BRANCH  23  25
ATOM     25  C   LIG    1       26.367 -19.439   3.741  0.00  0.00    +0.147 C 
BRANCH  25  26
ATOM     26  C   LIG    1       26.787 -20.478   4.802  0.00  0.00    +0.158 C 
BRANCH  26  27
ATOM     27  O   LIG    1       25.643 -21.235   5.217  0.00  0.00    -0.388 OA
ATOM     28  H   LIG    1       26.007 -21.978   5.746  0.00  0.00    +0.210 HD
ENDBRANCH  26  27
BRANCH  26  29
ATOM     29  C   LIG    1       27.423 -20.011   6.100  0.00  0.00    +0.188 C 
BRANCH  29  30
ATOM     30  O   LIG    1       28.706 -20.669   6.155  0.00  0.00    -0.392 OA
ATOM     31  H   LIG    1       28.840 -20.994   7.061  0.00  0.00    +0.209 HD
ENDBRANCH  29  30
ENDBRANCH  26  29
ENDBRANCH  25  26
ENDBRANCH  23  25
ENDBRANCH   1  23
BRANCH   7  32
ATOM     32  C   LIG    1       24.281 -13.964   2.796  0.00  0.00    +0.246 C 
ATOM     33  N   LIG    1       25.509 -13.674   2.225  0.00  0.00    -0.309 N 
ATOM     34  H   LIG    1       25.436 -12.859   1.619  0.00  0.00    +0.149 HD
ATOM     35  O   LIG    1       23.393 -13.137   2.624  0.00  0.00    -0.270 OA
BRANCH  33  36
ATOM     36  C   LIG    1       26.850 -14.215   2.381  0.00  0.00    +0.138 C 
BRANCH  36  37
ATOM     37  C   LIG    1       27.875 -13.172   2.741  0.00  0.00    +0.157 C 
BRANCH  37  38
ATOM     38  O   LIG    1       27.318 -11.865   2.719  0.00  0.00    -0.388 OA
ATOM     39  H   LIG    1       27.613 -11.434   3.544  0.00  0.00    +0.210 HD
ENDBRANCH  37  38
BRANCH  37  40
ATOM     40  C   LIG    1       28.721 -13.437   3.966  0.00  0.00    +0.188 C 
BRANCH  40  41
ATOM     41  O   LIG    1       29.116 -12.210   4.587  0.00  0.00    -0.392 OA
ATOM     42  H   LIG    1       29.289 -11.578   3.866  0.00  0.00    +0.209 HD
ENDBRANCH  40  41
ENDBRANCH  37  40
ENDBRANCH  36  37
ENDBRANCH  33  36
ENDBRANCH   7  32
TORSDOF 18
ENDMDL
MODEL 6
REMARK VINA RESULT:      18.5      2.496      6.148
REMARK  Name = *****
REMARK                            x       y       z     vdW  Elec       q    Type
REMARK                         _______ _______ _______ _____ _____    ______ ____
ROOT
ATOM      1  C   LIG    1       23.788 -16.575   4.372  0.00  0.00    +0.064 A 
ATOM      2  C   LIG    1       23.201 -17.873   4.483  0.00  0.00    +0.049 A 
ATOM      3  I   LIG    1       21.955 -17.963   2.364  0.00  0.00    -0.041 I 
ATOM      4  C   LIG    1       23.972 -19.026   4.478  0.00  0.00    +0.065 A 
ATOM      5  C   LIG    1       25.362 -18.866   4.209  0.00  0.00    +0.040 A 
ATOM      6  I   LIG    1       25.340 -19.718   1.820  0.00  0.00    -0.042 I 
ATOM      7  C   LIG    1       26.024 -17.625   4.213  0.00  0.00    +0.065 A 
ATOM      8  C   LIG    1       25.190 -16.502   4.102  0.00  0.00    +0.049 A 
ATOM      9  I   LIG    1       25.726 -15.854   1.824  0.00  0.00    -0.041 I 
ENDROOT
BRANCH   4  10
ATOM     10  C   LIG    1       23.696 -20.305   5.222  0.00  0.00    +0.246 C 
ATOM     11  N   LIG    1       24.479 -20.672   6.310  0.00  0.00    -0.309 N 
ATOM     12  H   LIG    1       24.143 -21.562   6.651  0.00  0.00    +0.149 HD
ATOM     13  O   LIG    1       22.805 -21.038   4.892  0.00  0.00    -0.270 OA
BRANCH  11  14
ATOM     14  C   LIG    1       25.533 -20.000   7.057  0.00  0.00    +0.138 C 
BRANCH  14  15
ATOM     15  C   LIG    1       26.920 -20.620   6.843  0.00  0.00    +0.157 C 
BRANCH  15  16
ATOM     16  O   LIG    1       27.826 -19.523   6.630  0.00  0.00    -0.388 OA
ATOM     17  H   LIG    1       28.672 -19.891   6.322  0.00  0.00    +0.210 HD
ENDBRANCH  15  16
BRANCH  15  18
ATOM     18  C   LIG    1       27.002 -21.571   5.630  0.00  0.00    +0.188 C 
BRANCH  18  19
ATOM     19  O   LIG    1       27.780 -21.218   4.494  0.00  0.00    -0.392 OA
ATOM     20  H   LIG    1       28.425 -20.515   4.661  0.00  0.00    +0.209 HD
ENDBRANCH  18  19
ENDBRANCH  15  18
ENDBRANCH  14  15
ENDBRANCH  11  14
ENDBRANCH   4  10
BRANCH   1  23
ATOM     21  C   LIG    1       21.340 -14.660   6.569  0.00  0.00    +0.110 C 
ATOM     22  C   LIG    1       22.414 -15.581   6.101  0.00  0.00    +0.217 C 
ATOM     23  N   LIG    1       23.109 -15.388   4.899  0.00  0.00    -0.267 N 
ATOM     24  O   LIG    1       22.688 -16.504   6.864  0.00  0.00    -0.276 OA
BRANCH  23  25
ATOM     25  C   LIG    1       23.213 -14.104   4.086  0.00  0.00    +0.147 C 
BRANCH  25  26
ATOM     26  C   LIG    1       24.579 -13.388   4.071  0.00  0.00    +0.158 C 
BRANCH  26  27
ATOM     27  O   LIG    1       24.538 -12.248   4.940  0.00  0.00    -0.388 OA
ATOM     28  H   LIG    1       24.164 -11.524   4.393  0.00  0.00    +0.210 HD
ENDBRANCH  26  27
BRANCH  26  29
ATOM     29  C   LIG    1       25.129 -12.846   2.763  0.00  0.00    +0.188 C 
BRANCH  29  30
ATOM     30  O   LIG    1       24.232 -11.781   2.384  0.00  0.00    -0.392 OA
ATOM     31  H   LIG    1       23.886 -11.979   1.497  0.00  0.00    +0.209 HD
ENDBRANCH  29  30
ENDBRANCH  26  29
ENDBRANCH  25  26
ENDBRANCH  23  25
ENDBRANCH   1  23
BRANCH   7  32
ATOM     32  C   LIG    1       27.448 -17.282   4.610  0.00  0.00    +0.246 C 
ATOM     33  N   LIG    1       27.891 -16.016   4.955  0.00  0.00    -0.309 N 
ATOM     34  H   LIG    1       28.848 -16.055   5.297  0.00  0.00    +0.149 HD
ATOM     35  O   LIG    1       28.292 -18.172   4.611  0.00  0.00    -0.270 OA
BRANCH  33  36
ATOM     36  C   LIG    1       27.324 -14.681   4.842  0.00  0.00    +0.138 C 
BRANCH  36  37
ATOM     37  C   LIG    1       28.310 -13.654   4.353  0.00  0.00    +0.157 C 
BRANCH  37  38
ATOM     38  O   LIG    1       28.961 -14.082   3.165  0.00  0.00    -0.388 OA
ATOM     39  H   LIG    1       28.978 -15.057   3.204  0.00  0.00    +0.210 HD
ENDBRANCH  37  38
BRANCH  37  40
ATOM     40  C   LIG    1       27.831 -12.222   4.286  0.00  0.00    +0.188 C 
BRANCH  40  41
ATOM     41  O   LIG    1       27.067 -11.885   5.448  0.00  0.00    -0.392 OA
ATOM     42  H   LIG    1       27.705 -11.783   6.178  0.00  0.00    +0.209 HD
ENDBRANCH  40  41
ENDBRANCH  37  40
ENDBRANCH  36  37
ENDBRANCH  33  36
ENDBRANCH   7  32
TORSDOF 18
ENDMDL
MODEL 7
REMARK VINA RESULT:      18.6      2.250      5.682
REMARK  Name = *****
REMARK                            x       y       z     vdW  Elec       q    Type
REMARK                         _______ _______ _______ _____ _____    ______ ____
ROOT
ATOM      1  C   LIG    1       24.593 -17.471   4.167  0.00  0.00    +0.064 A 
ATOM      2  C   LIG    1       25.952 -17.913   4.149  0.00  0.00    +0.049 A 
ATOM      3  I   LIG    1       26.126 -18.669   1.815  0.00  0.00    -0.041 I 
ATOM      4  C   LIG    1       27.009 -17.029   4.303  0.00  0.00    +0.065 A 
ATOM      5  C   LIG    1       26.685 -15.642   4.333  0.00  0.00    +0.040 A 
ATOM      6  I   LIG    1       27.471 -15.065   1.991  0.00  0.00    -0.042 I 
ATOM      7  C   LIG    1       25.377 -15.144   4.480  0.00  0.00    +0.065 A 
ATOM      8  C   LIG    1       24.354 -16.062   4.198  0.00  0.00    +0.049 A 
ATOM      9  I   LIG    1       23.589 -15.141   2.086  0.00  0.00    -0.041 I 
ENDROOT
BRANCH   4  10
ATOM     10  C   LIG    1       28.331 -17.303   4.970  0.00  0.00    +0.246 C 
ATOM     11  N   LIG    1       28.608 -18.559   5.496  0.00  0.00    -0.309 N 
ATOM     12  H   LIG    1       29.530 -18.528   5.910  0.00  0.00    +0.149 HD
ATOM     13  O   LIG    1       29.168 -16.450   5.068  0.00  0.00    -0.270 OA
BRANCH  11  14
ATOM     14  C   LIG    1       27.914 -19.838   5.455  0.00  0.00    +0.138 C 
BRANCH  14  15
ATOM     15  C   LIG    1       27.828 -20.528   6.822  0.00  0.00    +0.157 C 
BRANCH  15  16
ATOM     16  O   LIG    1       28.917 -21.468   6.872  0.00  0.00    -0.388 OA
ATOM     17  H   LIG    1       28.550 -22.336   7.110  0.00  0.00    +0.210 HD
ENDBRANCH  15  16
BRANCH  15  18
ATOM     18  C   LIG    1       26.507 -21.291   7.060  0.00  0.00    +0.188 C 
BRANCH  18  19
ATOM     19  O   LIG    1       25.449 -21.203   6.115  0.00  0.00    -0.392 OA
ATOM     20  H   LIG    1       25.717 -21.396   5.205  0.00  0.00    +0.209 HD
ENDBRANCH  18  19
ENDBRANCH  15  18
ENDBRANCH  14  15
ENDBRANCH  11  14
ENDBRANCH   4  10
BRANCH   1  23
ATOM     21  C   LIG    1       22.723 -20.783   4.309  0.00  0.00    +0.110 C 
ATOM     22  C   LIG    1       23.787 -19.744   4.395  0.00  0.00    +0.217 C 
ATOM     23  N   LIG    1       23.506 -18.379   4.542  0.00  0.00    -0.267 N 
ATOM     24  O   LIG    1       24.941 -20.166   4.375  0.00  0.00    -0.276 OA
BRANCH  23  25
ATOM     25  C   LIG    1       22.203 -17.750   5.021  0.00  0.00    +0.147 C 
BRANCH  25  26
ATOM     26  C   LIG    1       20.951 -17.969   4.145  0.00  0.00    +0.158 C 
BRANCH  26  27
ATOM     27  O   LIG    1       20.306 -19.192   4.520  0.00  0.00    -0.388 OA
ATOM     28  H   LIG    1       19.561 -18.920   5.099  0.00  0.00    +0.210 HD
ENDBRANCH  26  27
BRANCH  26  29
ATOM     29  C   LIG    1       21.098 -18.066   2.636  0.00  0.00    +0.188 C 
BRANCH  29  30
ATOM     30  O   LIG    1       19.823 -17.654   2.102  0.00  0.00    -0.392 OA
ATOM     31  H   LIG    1       19.281 -18.450   1.968  0.00  0.00    +0.209 HD
ENDBRANCH  29  30
ENDBRANCH  26  29
ENDBRANCH  25  26
ENDBRANCH  23  25
ENDBRANCH   1  23
BRANCH   7  32
ATOM     32  C   LIG    1       24.886 -13.884   5.168  0.00  0.00    +0.246 C 
ATOM     33  N   LIG    1       25.692 -12.998   5.864  0.00  0.00    -0.309 N 
ATOM     34  H   LIG    1       25.162 -12.172   6.132  0.00  0.00    +0.149 HD
ATOM     35  O   LIG    1       23.689 -13.623   5.138  0.00  0.00    -0.270 OA
BRANCH  33  36
ATOM     36  C   LIG    1       27.061 -13.046   6.354  0.00  0.00    +0.138 C 
BRANCH  36  37
ATOM     37  C   LIG    1       28.032 -12.296   5.482  0.00  0.00    +0.157 C 
BRANCH  37  38
ATOM     38  O   LIG    1       29.180 -11.887   6.213  0.00  0.00    -0.388 OA
ATOM     39  H   LIG    1       29.884 -12.523   5.983  0.00  0.00    +0.210 HD
ENDBRANCH  37  38
BRANCH  37  40
ATOM     40  C   LIG    1       28.369 -12.914   4.144  0.00  0.00    +0.188 C 
BRANCH  40  41
ATOM     41  O   LIG    1       29.031 -11.969   3.298  0.00  0.00    -0.392 OA
ATOM     42  H   LIG    1       28.334 -11.406   2.914  0.00  0.00    +0.209 HD
ENDBRANCH  40  41
ENDBRANCH  37  40
ENDBRANCH  36  37
ENDBRANCH  33  36
ENDBRANCH   7  32
TORSDOF 18
ENDMDL
