MODEL 1
REMARK VINA RESULT:       2.0      0.000      0.000
REMARK  Name = *****
REMARK                            x       y       z     vdW  Elec       q    Type
REMARK                         _______ _______ _______ _____ _____    ______ ____
ROOT
ATOM      1  C   LIG    1       25.278 -17.691   3.742  0.00  0.00    +0.160 A 
ATOM      2  C   LIG    1       26.607 -18.067   3.996  0.00  0.00    +0.164 A 
ATOM      3  F   LIG    1       26.947 -19.352   4.184  0.00  0.00    -0.202 F 
ATOM      4  C   LIG    1       27.611 -17.115   4.078  0.00  0.00    +0.057 A 
ATOM      5  C   LIG    1       27.268 -15.778   3.919  0.00  0.00    +0.068 A 
ATOM      6  C   LIG    1       28.297 -14.726   4.044  0.00  0.00    +0.205 A 
ATOM      7  C   LIG    1       27.874 -13.313   3.974  0.00  0.00    +0.122 A 
ATOM      8  C   LIG    1       26.572 -13.080   3.753  0.00  0.00    +0.106 A 
ATOM      9  N   LIG    1       25.607 -14.048   3.552  0.00  0.00    -0.328 N 
ATOM     10  O   LIG    1       29.474 -15.006   4.255  0.00  0.00    -0.286 OA
ATOM     11  C   LIG    1       25.934 -15.429   3.687  0.00  0.00    +0.147 A 
ATOM     12  N   LIG    1       24.963 -16.378   3.602  0.00  0.00    -0.211 NA
ENDROOT
BRANCH   1  17
ATOM     13  N   LIG    1       20.794 -19.503   4.068  0.00  0.00    -0.092 NA
ATOM     14  C   LIG    1       22.086 -19.390   4.018  0.00  0.00    +0.081 C 
ATOM     15  C   LIG    1       23.002 -20.558   4.304  0.00  0.00    +0.069 C 
ATOM     16  C   LIG    1       24.343 -19.829   4.490  0.00  0.00    +0.117 C 
ATOM     17  N   LIG    1       24.244 -18.615   3.676  0.00  0.00    -0.307 N 
ATOM     18  C   LIG    1       22.859 -18.148   3.633  0.00  0.00    +0.161 C 
BRANCH  13  20
ATOM     19  C   LIG    1       19.351 -18.452   2.628  0.00  0.00    +0.313 C 
ATOM     20  O   LIG    1       20.188 -18.276   3.765  0.00  0.00    -0.397 OA
ENDBRANCH  13  20
BRANCH  15  21
ATOM     21  C   LIG    1       22.619 -21.362   5.544  0.00  0.00    +0.088 C 
BRANCH  21  22
ATOM     22  N   LIG    1       23.221 -20.852   6.777  0.00  0.00    -0.329 NA
ATOM     23  H   LIG    1       22.987 -21.505   7.535  0.00  0.00    +0.118 HD
ATOM     24  H   LIG    1       24.237 -20.890   6.713  0.00  0.00    +0.118 HD
ENDBRANCH  21  22
ENDBRANCH  15  21
ENDBRANCH   1  17
BRANCH   9  25
ATOM     25  C   LIG    1       24.194 -13.646   3.445  0.00  0.00    +0.089 C 
ATOM     26  C   LIG    1       23.552 -12.670   4.400  0.00  0.00    +0.027 C 
ATOM     27  C   LIG    1       23.809 -12.264   2.982  0.00  0.00    +0.027 C 
ENDBRANCH   9  25
BRANCH   7  28
ATOM     28  C   LIG    1       28.788 -12.177   4.175  0.00  0.00    +0.342 C 
ATOM     29  O   LIG    1       29.254 -11.518   3.249  0.00  0.00    -0.245 OA
BRANCH  28  30
ATOM     30  O   LIG    1       29.032 -11.878   5.466  0.00  0.00    -0.477 OA
ATOM     31  H   LIG    1       28.371 -12.250   6.098  0.00  0.00    +0.295 HD
ENDBRANCH  28  30
ENDBRANCH   7  28
TORSDOF 7
ENDMDL
MODEL 2
REMARK VINA RESULT:       4.2      2.276      7.530
REMARK  Name = *****
REMARK                            x       y       z     vdW  Elec       q    Type
REMARK                         _______ _______ _______ _____ _____    ______ ____
ROOT
ATOM      1  C   LIG    1       25.912 -16.256   3.329  0.00  0.00    +0.160 A 
ATOM      2  C   LIG    1       26.652 -17.446   3.248  0.00  0.00    +0.164 A 
ATOM      3  F   LIG    1       27.889 -17.468   2.726  0.00  0.00    -0.202 F 
ATOM      4  C   LIG    1       26.117 -18.645   3.693  0.00  0.00    +0.057 A 
ATOM      5  C   LIG    1       24.826 -18.643   4.205  0.00  0.00    +0.068 A 
ATOM      6  C   LIG    1       24.199 -19.905   4.648  0.00  0.00    +0.205 A 
ATOM      7  C   LIG    1       22.790 -19.878   5.087  0.00  0.00    +0.122 A 
ATOM      8  C   LIG    1       22.180 -18.683   5.095  0.00  0.00    +0.106 A 
ATOM      9  N   LIG    1       22.772 -17.479   4.763  0.00  0.00    -0.328 N 
ATOM     10  O   LIG    1       24.811 -20.970   4.608  0.00  0.00    -0.286 OA
ATOM     11  C   LIG    1       24.104 -17.447   4.256  0.00  0.00    +0.147 A 
ATOM     12  N   LIG    1       24.647 -16.279   3.821  0.00  0.00    -0.211 NA
ENDROOT
BRANCH   1  17
ATOM     13  N   LIG    1       28.241 -12.004   3.380  0.00  0.00    -0.092 NA
ATOM     14  C   LIG    1       27.428 -12.970   3.078  0.00  0.00    +0.081 C 
ATOM     15  C   LIG    1       26.292 -12.782   2.100  0.00  0.00    +0.069 C 
ATOM     16  C   LIG    1       25.453 -14.038   2.393  0.00  0.00    +0.117 C 
ATOM     17  N   LIG    1       26.407 -15.041   2.872  0.00  0.00    -0.307 N 
ATOM     18  C   LIG    1       27.505 -14.393   3.588  0.00  0.00    +0.161 C 
BRANCH  13  20
ATOM     19  C   LIG    1       28.727 -12.146   5.617  0.00  0.00    +0.313 C 
ATOM     20  O   LIG    1       29.195 -12.445   4.307  0.00  0.00    -0.397 OA
ENDBRANCH  13  20
BRANCH  15  21
ATOM     21  C   LIG    1       25.488 -11.503   2.315  0.00  0.00    +0.088 C 
BRANCH  21  22
ATOM     22  N   LIG    1       24.049 -11.736   2.449  0.00  0.00    -0.329 NA
ATOM     23  H   LIG    1       23.873 -12.086   3.400  0.00  0.00    +0.118 HD
ATOM     24  H   LIG    1       23.544 -10.852   2.406  0.00  0.00    +0.118 HD
ENDBRANCH  21  22
ENDBRANCH  15  21
ENDBRANCH   1  17
BRANCH   9  25
ATOM     25  C   LIG    1       21.943 -16.264   4.698  0.00  0.00    +0.089 C 
ATOM     26  C   LIG    1       21.816 -15.303   5.855  0.00  0.00    +0.027 C 
ATOM     27  C   LIG    1       22.571 -14.894   4.628  0.00  0.00    +0.027 C 
ENDBRANCH   9  25
BRANCH   7  28
ATOM     28  C   LIG    1       22.029 -21.081   5.463  0.00  0.00    +0.342 C 
ATOM     29  O   LIG    1       22.064 -21.572   6.588  0.00  0.00    -0.245 OA
BRANCH  28  30
ATOM     30  O   LIG    1       21.241 -21.572   4.486  0.00  0.00    -0.477 OA
ATOM     31  H   LIG    1       21.686 -22.233   3.903  0.00  0.00    +0.295 HD
ENDBRANCH  28  30
ENDBRANCH   7  28
TORSDOF 7
ENDMDL
