MODEL 1
REMARK VINA RESULT:      -4.9      0.000      0.000
REMARK  Name = *****
REMARK                            x       y       z     vdW  Elec       q    Type
REMARK                         _______ _______ _______ _____ _____    ______ ____
ROOT
ATOM      1  C   LIG    1       24.141 -14.678   3.909  0.00  0.00    +0.044 C 
ATOM      2  C   LIG    1       23.730 -16.118   4.069  0.00  0.00    -0.047 A 
ATOM      3  C   LIG    1       24.618 -17.194   3.812  0.00  0.00    -0.044 A 
ATOM      4  C   LIG    1       26.037 -16.928   3.365  0.00  0.00    +0.044 C 
ATOM      5  C   LIG    1       24.161 -18.533   3.972  0.00  0.00    -0.036 A 
ATOM      6  C   LIG    1       22.844 -18.750   4.429  0.00  0.00    +0.004 A 
ATOM      7  C   LIG    1       21.977 -17.688   4.666  0.00  0.00    +0.001 A 
ATOM      8  C   LIG    1       22.415 -16.383   4.479  0.00  0.00    +0.003 A 
ENDROOT
BRANCH   5   9
ATOM      9  C   LIG    1       25.068 -19.740   3.684  0.00  0.00    +0.064 C 
ATOM     10  C   LIG    1       24.286 -20.962   3.169  0.00  0.00    +0.019 C 
BRANCH   9  11
ATOM     11  C   LIG    1       25.956 -20.114   4.839  0.00  0.00    +0.043 A 
ATOM     12  N   LIG    1       27.304 -19.850   4.905  0.00  0.00    -0.348 N 
ATOM     13  H   LIG    1       27.854 -19.367   4.203  0.00  0.00    +0.167 HD
ATOM     14  C   LIG    1       27.784 -20.393   6.060  0.00  0.00    +0.196 A 
ATOM     15  N   LIG    1       26.828 -20.962   6.757  0.00  0.00    -0.244 NA
ATOM     16  C   LIG    1       25.692 -20.795   6.012  0.00  0.00    +0.134 A 
ENDBRANCH   9  11
ENDBRANCH   5   9
TORSDOF 2
ENDMDL
MODEL 2
REMARK VINA RESULT:      -4.4      3.313      5.515
REMARK  Name = *****
REMARK                            x       y       z     vdW  Elec       q    Type
REMARK                         _______ _______ _______ _____ _____    ______ ____
ROOT
ATOM      1  C   LIG    1       22.430 -18.570   4.517  0.00  0.00    +0.044 C 
ATOM      2  C   LIG    1       23.638 -17.771   4.101  0.00  0.00    -0.047 A 
ATOM      3  C   LIG    1       23.692 -16.359   4.224  0.00  0.00    -0.044 A 
ATOM      4  C   LIG    1       22.519 -15.592   4.792  0.00  0.00    +0.044 C 
ATOM      5  C   LIG    1       24.860 -15.663   3.800  0.00  0.00    -0.036 A 
ATOM      6  C   LIG    1       25.952 -16.408   3.312  0.00  0.00    +0.004 A 
ATOM      7  C   LIG    1       25.885 -17.792   3.184  0.00  0.00    +0.001 A 
ATOM      8  C   LIG    1       24.733 -18.465   3.568  0.00  0.00    +0.003 A 
ENDROOT
BRANCH   5   9
ATOM      9  C   LIG    1       24.968 -14.132   3.885  0.00  0.00    +0.064 C 
ATOM     10  C   LIG    1       24.299 -13.423   2.694  0.00  0.00    +0.019 C 
BRANCH   9  11
ATOM     11  C   LIG    1       26.373 -13.637   4.089  0.00  0.00    +0.043 A 
ATOM     12  N   LIG    1       27.272 -13.397   3.076  0.00  0.00    -0.348 N 
ATOM     13  H   LIG    1       27.098 -13.509   2.083  0.00  0.00    +0.167 HD
ATOM     14  C   LIG    1       28.456 -13.028   3.642  0.00  0.00    +0.196 A 
ATOM     15  N   LIG    1       28.370 -12.982   4.952  0.00  0.00    -0.244 NA
ATOM     16  C   LIG    1       27.085 -13.357   5.239  0.00  0.00    +0.134 A 
ENDBRANCH   9  11
ENDBRANCH   5   9
TORSDOF 2
ENDMDL
MODEL 3
REMARK VINA RESULT:      -4.1      1.667      2.583
REMARK  Name = *****
REMARK                            x       y       z     vdW  Elec       q    Type
REMARK                         _______ _______ _______ _____ _____    ______ ____
ROOT
ATOM      1  C   LIG    1       26.681 -15.260   3.292  0.00  0.00    +0.044 C 
ATOM      2  C   LIG    1       25.307 -15.719   3.706  0.00  0.00    -0.047 A 
ATOM      3  C   LIG    1       24.908 -17.079   3.637  0.00  0.00    -0.044 A 
ATOM      4  C   LIG    1       25.868 -18.135   3.140  0.00  0.00    +0.044 C 
ATOM      5  C   LIG    1       23.590 -17.444   4.032  0.00  0.00    -0.036 A 
ATOM      6  C   LIG    1       22.730 -16.442   4.529  0.00  0.00    +0.004 A 
ATOM      7  C   LIG    1       23.126 -15.110   4.581  0.00  0.00    +0.001 A 
ATOM      8  C   LIG    1       24.401 -14.751   4.164  0.00  0.00    +0.003 A 
ENDROOT
BRANCH   5   9
ATOM      9  C   LIG    1       23.092 -18.896   3.956  0.00  0.00    +0.064 C 
ATOM     10  C   LIG    1       21.562 -18.993   3.824  0.00  0.00    +0.019 C 
BRANCH   9  11
ATOM     11  C   LIG    1       23.594 -19.764   5.076  0.00  0.00    +0.043 A 
ATOM     12  N   LIG    1       22.883 -20.060   6.215  0.00  0.00    -0.348 N 
ATOM     13  H   LIG    1       21.944 -19.745   6.431  0.00  0.00    +0.167 HD
ATOM     14  C   LIG    1       23.680 -20.811   7.027  0.00  0.00    +0.196 A 
ATOM     15  N   LIG    1       24.846 -21.047   6.471  0.00  0.00    -0.244 NA
ATOM     16  C   LIG    1       24.805 -20.404   5.263  0.00  0.00    +0.134 A 
ENDBRANCH   9  11
ENDBRANCH   5   9
TORSDOF 2
ENDMDL
MODEL 4
REMARK VINA RESULT:      -4.0      3.620      6.029
REMARK  Name = *****
REMARK                            x       y       z     vdW  Elec       q    Type
REMARK                         _______ _______ _______ _____ _____    ______ ____
ROOT
ATOM      1  C   LIG    1       23.772 -19.531   3.867  0.00  0.00    +0.044 C 
ATOM      2  C   LIG    1       23.605 -18.046   4.057  0.00  0.00    -0.047 A 
ATOM      3  C   LIG    1       24.627 -17.119   3.728  0.00  0.00    -0.044 A 
ATOM      4  C   LIG    1       25.943 -17.598   3.159  0.00  0.00    +0.044 C 
ATOM      5  C   LIG    1       24.409 -15.728   3.943  0.00  0.00    -0.036 A 
ATOM      6  C   LIG    1       23.156 -15.309   4.437  0.00  0.00    +0.004 A 
ATOM      7  C   LIG    1       22.165 -16.226   4.769  0.00  0.00    +0.001 A 
ATOM      8  C   LIG    1       22.392 -17.584   4.588  0.00  0.00    +0.003 A 
ENDROOT
BRANCH   5   9
ATOM      9  C   LIG    1       25.487 -14.679   3.630  0.00  0.00    +0.064 C 
ATOM     10  C   LIG    1       26.447 -14.444   4.809  0.00  0.00    +0.019 C 
BRANCH   9  11
ATOM     11  C   LIG    1       24.931 -13.378   3.118  0.00  0.00    +0.043 A 
ATOM     12  N   LIG    1       24.256 -12.460   3.888  0.00  0.00    -0.348 N 
ATOM     13  H   LIG    1       24.064 -12.538   4.880  0.00  0.00    +0.167 HD
ATOM     14  C   LIG    1       23.846 -11.447   3.072  0.00  0.00    +0.196 A 
ATOM     15  N   LIG    1       24.242 -11.636   1.834  0.00  0.00    -0.244 NA
ATOM     16  C   LIG    1       24.915 -12.828   1.851  0.00  0.00    +0.134 A 
ENDBRANCH   9  11
ENDBRANCH   5   9
TORSDOF 2
ENDMDL
MODEL 5
REMARK VINA RESULT:      -3.4      1.453      2.856
REMARK  Name = *****
REMARK                            x       y       z     vdW  Elec       q    Type
REMARK                         _______ _______ _______ _____ _____    ______ ____
ROOT
ATOM      1  C   LIG    1       24.047 -13.864   4.301  0.00  0.00    +0.044 C 
ATOM      2  C   LIG    1       24.537 -15.252   3.980  0.00  0.00    -0.047 A 
ATOM      3  C   LIG    1       23.718 -16.400   4.130  0.00  0.00    -0.044 A 
ATOM      4  C   LIG    1       22.295 -16.268   4.623  0.00  0.00    +0.044 C 
ATOM      5  C   LIG    1       24.248 -17.685   3.820  0.00  0.00    -0.036 A 
ATOM      6  C   LIG    1       25.565 -17.772   3.325  0.00  0.00    +0.004 A 
ATOM      7  C   LIG    1       26.365 -16.641   3.193  0.00  0.00    +0.001 A 
ATOM      8  C   LIG    1       25.856 -15.393   3.526  0.00  0.00    +0.003 A 
ENDROOT
BRANCH   5   9
ATOM      9  C   LIG    1       23.417 -18.967   3.987  0.00  0.00    +0.064 C 
ATOM     10  C   LIG    1       21.923 -18.681   4.218  0.00  0.00    +0.019 C 
BRANCH   9  11
ATOM     11  C   LIG    1       23.957 -19.903   5.033  0.00  0.00    +0.043 A 
ATOM     12  N   LIG    1       23.275 -20.290   6.162  0.00  0.00    -0.348 N 
ATOM     13  H   LIG    1       22.335 -20.009   6.418  0.00  0.00    +0.167 HD
ATOM     14  C   LIG    1       24.101 -21.082   6.903  0.00  0.00    +0.196 A 
ATOM     15  N   LIG    1       25.259 -21.257   6.309  0.00  0.00    -0.244 NA
ATOM     16  C   LIG    1       25.182 -20.532   5.151  0.00  0.00    +0.134 A 
ENDBRANCH   9  11
ENDBRANCH   5   9
TORSDOF 2
ENDMDL
MODEL 6
REMARK VINA RESULT:      -3.4      0.925      2.184
REMARK  Name = *****
REMARK                            x       y       z     vdW  Elec       q    Type
REMARK                         _______ _______ _______ _____ _____    ______ ____
ROOT
ATOM      1  C   LIG    1       22.753 -15.293   4.475  0.00  0.00    +0.044 C 
ATOM      2  C   LIG    1       23.951 -16.109   4.064  0.00  0.00    -0.047 A 
ATOM      3  C   LIG    1       23.935 -17.527   4.048  0.00  0.00    -0.044 A 
ATOM      4  C   LIG    1       22.688 -18.284   4.445  0.00  0.00    +0.044 C 
ATOM      5  C   LIG    1       25.106 -18.238   3.661  0.00  0.00    -0.036 A 
ATOM      6  C   LIG    1       26.240 -17.504   3.257  0.00  0.00    +0.004 A 
ATOM      7  C   LIG    1       26.251 -16.113   3.288  0.00  0.00    +0.001 A 
ATOM      8  C   LIG    1       25.118 -15.423   3.697  0.00  0.00    +0.003 A 
ENDROOT
BRANCH   5   9
ATOM      9  C   LIG    1       25.157 -19.774   3.648  0.00  0.00    +0.064 C 
ATOM     10  C   LIG    1       23.878 -20.406   3.070  0.00  0.00    +0.019 C 
BRANCH   9  11
ATOM     11  C   LIG    1       25.502 -20.377   4.982  0.00  0.00    +0.043 A 
ATOM     12  N   LIG    1       26.771 -20.432   5.509  0.00  0.00    -0.348 N 
ATOM     13  H   LIG    1       27.613 -20.067   5.079  0.00  0.00    +0.167 HD
ATOM     14  C   LIG    1       26.706 -21.105   6.693  0.00  0.00    +0.196 A 
ATOM     15  N   LIG    1       25.474 -21.459   6.979  0.00  0.00    -0.244 NA
ATOM     16  C   LIG    1       24.720 -21.013   5.927  0.00  0.00    +0.134 A 
ENDBRANCH   9  11
ENDBRANCH   5   9
TORSDOF 2
ENDMDL
MODEL 7
REMARK VINA RESULT:      -3.4      1.630      3.164
REMARK  Name = *****
REMARK                            x       y       z     vdW  Elec       q    Type
REMARK                         _______ _______ _______ _____ _____    ______ ____
ROOT
ATOM      1  C   LIG    1       21.124 -18.878   3.936  0.00  0.00    +0.044 C 
ATOM      2  C   LIG    1       22.621 -18.973   4.077  0.00  0.00    -0.047 A 
ATOM      3  C   LIG    1       23.250 -20.005   4.818  0.00  0.00    -0.044 A 
ATOM      4  C   LIG    1       22.424 -21.071   5.502  0.00  0.00    +0.044 C 
ATOM      5  C   LIG    1       24.670 -20.029   4.921  0.00  0.00    -0.036 A 
ATOM      6  C   LIG    1       25.415 -19.045   4.239  0.00  0.00    +0.004 A 
ATOM      7  C   LIG    1       24.788 -18.029   3.525  0.00  0.00    +0.001 A 
ATOM      8  C   LIG    1       23.402 -17.990   3.452  0.00  0.00    +0.003 A 
ENDROOT
BRANCH   5   9
ATOM      9  C   LIG    1       25.407 -21.107   5.731  0.00  0.00    +0.064 C 
ATOM     10  C   LIG    1       24.704 -21.436   7.061  0.00  0.00    +0.019 C 
BRANCH   9  11
ATOM     11  C   LIG    1       26.864 -20.806   5.950  0.00  0.00    +0.043 A 
ATOM     12  N   LIG    1       27.675 -21.471   6.840  0.00  0.00    -0.348 N 
ATOM     13  H   LIG    1       27.399 -22.241   7.439  0.00  0.00    +0.167 HD
ATOM     14  C   LIG    1       28.904 -20.881   6.812  0.00  0.00    +0.196 A 
ATOM     15  N   LIG    1       28.948 -19.901   5.939  0.00  0.00    -0.244 NA
ATOM     16  C   LIG    1       27.691 -19.846   5.399  0.00  0.00    +0.134 A 
ENDBRANCH   9  11
ENDBRANCH   5   9
TORSDOF 2
ENDMDL
MODEL 8
REMARK VINA RESULT:      -3.1      2.627      4.674
REMARK  Name = *****
REMARK                            x       y       z     vdW  Elec       q    Type
REMARK                         _______ _______ _______ _____ _____    ______ ____
ROOT
ATOM      1  C   LIG    1       22.187 -19.782   4.483  0.00  0.00    +0.044 C 
ATOM      2  C   LIG    1       22.872 -18.447   4.346  0.00  0.00    -0.047 A 
ATOM      3  C   LIG    1       24.202 -18.322   3.870  0.00  0.00    -0.044 A 
ATOM      4  C   LIG    1       24.993 -19.548   3.472  0.00  0.00    +0.044 C 
ATOM      5  C   LIG    1       24.795 -17.031   3.776  0.00  0.00    -0.036 A 
ATOM      6  C   LIG    1       24.020 -15.904   4.117  0.00  0.00    +0.004 A 
ATOM      7  C   LIG    1       22.720 -16.037   4.595  0.00  0.00    +0.001 A 
ATOM      8  C   LIG    1       22.155 -17.300   4.716  0.00  0.00    +0.003 A 
ENDROOT
BRANCH   5   9
ATOM      9  C   LIG    1       26.241 -16.835   3.292  0.00  0.00    +0.064 C 
ATOM     10  C   LIG    1       27.253 -17.676   4.089  0.00  0.00    +0.019 C 
BRANCH   9  11
ATOM     11  C   LIG    1       26.665 -15.393   3.231  0.00  0.00    +0.043 A 
ATOM     12  N   LIG    1       27.698 -14.851   3.958  0.00  0.00    -0.348 N 
ATOM     13  H   LIG    1       28.300 -15.349   4.604  0.00  0.00    +0.167 HD
ATOM     14  C   LIG    1       27.742 -13.514   3.695  0.00  0.00    +0.196 A 
ATOM     15  N   LIG    1       26.826 -13.165   2.820  0.00  0.00    -0.244 NA
ATOM     16  C   LIG    1       26.154 -14.320   2.525  0.00  0.00    +0.134 A 
ENDBRANCH   9  11
ENDBRANCH   5   9
TORSDOF 2
ENDMDL
MODEL 9
REMARK VINA RESULT:      -3.0      2.426      4.682
REMARK  Name = *****
REMARK                            x       y       z     vdW  Elec       q    Type
REMARK                         _______ _______ _______ _____ _____    ______ ____
ROOT
ATOM      1  C   LIG    1       28.721 -18.502   5.148  0.00  0.00    +0.044 C 
ATOM      2  C   LIG    1       27.723 -19.557   5.550  0.00  0.00    -0.047 A 
ATOM      3  C   LIG    1       26.496 -19.741   4.862  0.00  0.00    -0.044 A 
ATOM      4  C   LIG    1       26.142 -18.872   3.677  0.00  0.00    +0.044 C 
ATOM      5  C   LIG    1       25.591 -20.749   5.301  0.00  0.00    -0.036 A 
ATOM      6  C   LIG    1       25.966 -21.571   6.384  0.00  0.00    +0.004 A 
ATOM      7  C   LIG    1       27.166 -21.374   7.059  0.00  0.00    +0.001 A 
ATOM      8  C   LIG    1       28.033 -20.369   6.650  0.00  0.00    +0.003 A 
ENDROOT
BRANCH   5   9
ATOM      9  C   LIG    1       24.236 -20.979   4.613  0.00  0.00    +0.064 C 
ATOM     10  C   LIG    1       24.382 -21.542   3.188  0.00  0.00    +0.019 C 
BRANCH   9  11
ATOM     11  C   LIG    1       23.340 -19.772   4.628  0.00  0.00    +0.043 A 
ATOM     12  N   LIG    1       23.081 -18.977   3.537  0.00  0.00    -0.348 N 
ATOM     13  H   LIG    1       23.444 -19.112   2.600  0.00  0.00    +0.167 HD
ATOM     14  C   LIG    1       22.286 -17.946   3.944  0.00  0.00    +0.196 A 
ATOM     15  N   LIG    1       21.990 -18.044   5.220  0.00  0.00    -0.244 NA
ATOM     16  C   LIG    1       22.636 -19.170   5.654  0.00  0.00    +0.134 A 
ENDBRANCH   9  11
ENDBRANCH   5   9
TORSDOF 2
ENDMDL
