MODEL 1
REMARK VINA RESULT:      -5.2      0.000      0.000
REMARK  Name = *****
REMARK                            x       y       z     vdW  Elec       q    Type
REMARK                         _______ _______ _______ _____ _____    ______ ____
ROOT
ATOM      1  C   LIG    1       28.099 -32.799   7.708  0.00  0.00    +0.040 C 
ATOM      2  C   LIG    1       26.863 -31.939   7.967  0.00  0.00    +0.150 C 
ATOM      3  C   LIG    1       25.834 -32.652   8.878  0.00  0.00    +0.178 C 
ATOM      4  C   LIG    1       24.426 -32.009   8.726  0.00  0.00    +0.151 C 
ATOM      5  C   LIG    1       24.045 -31.663   7.306  0.00  0.00    +0.095 C 
ATOM      6  C   LIG    1       25.157 -30.804   6.779  0.00  0.00    +0.253 C 
ATOM      7  O   LIG    1       26.321 -31.629   6.676  0.00  0.00    -0.346 OA
ENDROOT
BRANCH   4   8
ATOM      8  O   LIG    1       24.368 -30.803   9.514  0.00  0.00    -0.389 OA
ATOM      9  H   LIG    1       25.181 -30.311   9.274  0.00  0.00    +0.210 HD
ENDBRANCH   4   8
BRANCH   6  10
ATOM     10  O   LIG    1       24.790 -30.202   5.528  0.00  0.00    -0.348 OA
BRANCH  10  11
ATOM     11  C   LIG    1       25.205 -28.833   5.524  0.00  0.00    +0.122 C 
ATOM     12  C   LIG    1       24.122 -27.913   6.138  0.00  0.00    +0.035 C 
ATOM     13  C   LIG    1       24.178 -26.563   5.485  0.00  0.00    -0.002 C 
ATOM     14  C   LIG    1       22.955 -25.677   5.713  0.00  0.00    +0.004 C 
ATOM     15  C   LIG    1       23.239 -24.275   6.156  0.00  0.00    +0.007 C 
ATOM     16  C   LIG    1       24.403 -23.642   5.414  0.00  0.00    +0.025 C 
ATOM     17  C   LIG    1       24.696 -22.174   5.832  0.00  0.00    +0.077 C 
ATOM     18  C   LIG    1       24.885 -21.965   7.371  0.00  0.00    +0.029 C 
ATOM     19  C   LIG    1       23.543 -21.858   8.213  0.00  0.00    +0.017 C 
ATOM     20  C   LIG    1       25.462 -20.514   7.416  0.00  0.00    +0.030 C 
ATOM     21  C   LIG    1       24.568 -19.817   6.320  0.00  0.00    +0.011 C 
ATOM     22  C   LIG    1       25.636 -23.147   7.988  0.00  0.00    +0.124 C 
ATOM     23  C   LIG    1       26.417 -24.017   7.005  0.00  0.00    +0.036 C 
ATOM     24  C   LIG    1       23.866 -20.949   5.479  0.00  0.00    +0.036 C 
ATOM     25  C   LIG    1       25.728 -24.474   5.627  0.00  0.00    +0.003 C 
ATOM     26  C   LIG    1       25.659 -26.044   5.410  0.00  0.00    -0.026 C 
ATOM     27  C   LIG    1       26.842 -26.633   6.275  0.00  0.00    +0.012 C 
ATOM     28  C   LIG    1       26.033 -26.739   4.035  0.00  0.00    +0.009 C 
ATOM     29  C   LIG    1       25.709 -28.327   4.124  0.00  0.00    +0.032 C 
BRANCH  20  30
ATOM     30  C   LIG    1       26.968 -20.298   7.282  0.00  0.00    -0.022 C 
ATOM     31  C   LIG    1       27.718 -20.105   6.045  0.00  0.00    +0.264 C 
ATOM     32  O   LIG    1       29.080 -19.769   6.477  0.00  0.00    -0.457 OA
ATOM     33  C   LIG    1       29.112 -19.936   7.803  0.00  0.00    +0.332 C 
ATOM     34  O   LIG    1       30.122 -19.859   8.507  0.00  0.00    -0.246 OA
ATOM     35  C   LIG    1       27.822 -20.185   8.323  0.00  0.00    +0.094 C 
ENDBRANCH  20  30
BRANCH  22  36
ATOM     36  O   LIG    1       26.441 -22.753   9.094  0.00  0.00    -0.391 OA
ATOM     37  H   LIG    1       25.934 -22.918   9.907  0.00  0.00    +0.210 HD
ENDBRANCH  22  36
BRANCH  17  38
ATOM     38  O   LIG    1       25.911 -21.899   5.099  0.00  0.00    -0.388 OA
ATOM     39  H   LIG    1       26.258 -21.039   5.396  0.00  0.00    +0.210 HD
ENDBRANCH  17  38
ENDBRANCH  10  11
ENDBRANCH   6  10
BRANCH   3  40
ATOM     40  O   LIG    1       26.306 -32.536  10.239  0.00  0.00    -0.343 OA
BRANCH  40  41
ATOM     41  C   LIG    1       25.580 -31.604  11.043  0.00  0.00    +0.254 C 
ATOM     42  O   LIG    1       26.391 -30.480  11.338  0.00  0.00    -0.346 OA
ATOM     43  C   LIG    1       25.728 -29.435  12.038  0.00  0.00    +0.150 C 
ATOM     44  C   LIG    1       26.684 -28.243  12.003  0.00  0.00    +0.040 C 
ATOM     45  C   LIG    1       25.407 -29.938  13.451  0.00  0.00    +0.178 C 
ATOM     46  C   LIG    1       24.671 -31.302  13.316  0.00  0.00    +0.151 C 
ATOM     47  C   LIG    1       25.311 -32.287  12.364  0.00  0.00    +0.095 C 
BRANCH  46  48
ATOM     48  O   LIG    1       23.331 -31.062  12.870  0.00  0.00    -0.389 OA
ATOM     49  H   LIG    1       22.770 -31.370  13.614  0.00  0.00    +0.210 HD
ENDBRANCH  46  48
BRANCH  45  50
ATOM     50  O   LIG    1       24.605 -28.959  14.157  0.00  0.00    -0.343 OA
BRANCH  50  51
ATOM     51  C   LIG    1       23.220 -29.297  14.129  0.00  0.00    +0.254 C 
ATOM     52  O   LIG    1       22.484 -28.163  13.707  0.00  0.00    -0.346 OA
ATOM     53  C   LIG    1       21.220 -28.515  13.161  0.00  0.00    +0.150 C 
ATOM     54  C   LIG    1       20.577 -27.165  12.840  0.00  0.00    +0.040 C 
ATOM     55  C   LIG    1       20.361 -29.364  14.132  0.00  0.00    +0.178 C 
ATOM     56  C   LIG    1       21.204 -30.069  15.265  0.00  0.00    +0.151 C 
ATOM     57  C   LIG    1       22.628 -29.548  15.498  0.00  0.00    +0.095 C 
BRANCH  56  58
ATOM     58  O   LIG    1       21.340 -31.470  14.967  0.00  0.00    -0.389 OA
ATOM     59  H   LIG    1       20.456 -31.752  14.663  0.00  0.00    +0.210 HD
ENDBRANCH  56  58
BRANCH  55  60
ATOM     60  O   LIG    1       19.590 -30.409  13.471  0.00  0.00    -0.340 OA
BRANCH  60  61
ATOM     61  C   LIG    1       19.863 -30.641  12.081  0.00  0.00    +0.282 C 
ATOM     62  C   LIG    1       20.606 -31.986  11.901  0.00  0.00    +0.201 C 
ATOM     63  C   LIG    1       19.635 -33.165  12.023  0.00  0.00    +0.179 C 
ATOM     64  C   LIG    1       18.498 -32.995  11.012  0.00  0.00    +0.177 C 
ATOM     65  C   LIG    1       17.816 -31.617  11.135  0.00  0.00    +0.178 C 
ATOM     66  O   LIG    1       18.713 -30.505  11.251  0.00  0.00    -0.341 OA
BRANCH  62  67
ATOM     67  O   LIG    1       21.283 -32.020  10.631  0.00  0.00    -0.384 OA
ATOM     68  H   LIG    1       21.432 -31.085  10.359  0.00  0.00    +0.210 HD
ENDBRANCH  62  67
BRANCH  63  69
ATOM     69  O   LIG    1       19.104 -33.295  13.342  0.00  0.00    -0.386 OA
ATOM     70  H   LIG    1       19.346 -34.183  13.663  0.00  0.00    +0.210 HD
ENDBRANCH  63  69
BRANCH  64  71
ATOM     71  O   LIG    1       19.054 -33.121   9.686  0.00  0.00    -0.387 OA
ATOM     72  H   LIG    1       18.487 -33.758   9.209  0.00  0.00    +0.210 HD
ENDBRANCH  64  71
BRANCH  65  73
ATOM     73  C   LIG    1       16.702 -31.562  12.187  0.00  0.00    +0.190 C 
BRANCH  73  74
ATOM     74  O   LIG    1       16.498 -30.231  12.652  0.00  0.00    -0.392 OA
ATOM     75  H   LIG    1       15.874 -30.280  13.400  0.00  0.00    +0.209 HD
ENDBRANCH  73  74
ENDBRANCH  65  73
ENDBRANCH  60  61
ENDBRANCH  55  60
ENDBRANCH  50  51
ENDBRANCH  45  50
ENDBRANCH  40  41
ENDBRANCH   3  40
TORSDOF 19
ENDMDL
MODEL 2
REMARK VINA RESULT:      -5.0      1.478      2.027
REMARK  Name = *****
REMARK                            x       y       z     vdW  Elec       q    Type
REMARK                         _______ _______ _______ _____ _____    ______ ____
ROOT
ATOM      1  C   LIG    1       28.098 -30.149  10.485  0.00  0.00    +0.040 C 
ATOM      2  C   LIG    1       26.638 -30.288  10.057  0.00  0.00    +0.150 C 
ATOM      3  C   LIG    1       25.943 -31.496  10.733  0.00  0.00    +0.178 C 
ATOM      4  C   LIG    1       24.672 -31.913   9.940  0.00  0.00    +0.151 C 
ATOM      5  C   LIG    1       24.835 -31.897   8.438  0.00  0.00    +0.095 C 
ATOM      6  C   LIG    1       25.334 -30.524   8.094  0.00  0.00    +0.253 C 
ATOM      7  O   LIG    1       26.655 -30.403   8.628  0.00  0.00    -0.346 OA
ENDROOT
BRANCH   4   8
ATOM      8  O   LIG    1       23.586 -31.029  10.283  0.00  0.00    -0.389 OA
ATOM      9  H   LIG    1       23.437 -31.181  11.240  0.00  0.00    +0.210 HD
ENDBRANCH   4   8
BRANCH   6  10
ATOM     10  O   LIG    1       25.285 -30.302   6.676  0.00  0.00    -0.348 OA
BRANCH  10  11
ATOM     11  C   LIG    1       25.572 -28.927   6.403  0.00  0.00    +0.122 C 
ATOM     12  C   LIG    1       24.465 -27.999   6.959  0.00  0.00    +0.035 C 
ATOM     13  C   LIG    1       24.343 -26.783   6.087  0.00  0.00    -0.002 C 
ATOM     14  C   LIG    1       23.068 -25.965   6.283  0.00  0.00    +0.004 C 
ATOM     15  C   LIG    1       23.260 -24.490   6.456  0.00  0.00    +0.007 C 
ATOM     16  C   LIG    1       24.295 -23.910   5.509  0.00  0.00    +0.025 C 
ATOM     17  C   LIG    1       24.488 -22.374   5.645  0.00  0.00    +0.077 C 
ATOM     18  C   LIG    1       24.785 -21.886   7.101  0.00  0.00    +0.029 C 
ATOM     19  C   LIG    1       23.514 -21.735   8.042  0.00  0.00    +0.017 C 
ATOM     20  C   LIG    1       25.230 -20.410   6.848  0.00  0.00    +0.030 C 
ATOM     21  C   LIG    1       24.187 -19.985   5.744  0.00  0.00    +0.011 C 
ATOM     22  C   LIG    1       25.689 -22.883   7.830  0.00  0.00    +0.124 C 
ATOM     23  C   LIG    1       26.461 -23.850   6.934  0.00  0.00    +0.036 C 
ATOM     24  C   LIG    1       23.523 -21.295   5.176  0.00  0.00    +0.036 C 
ATOM     25  C   LIG    1       25.703 -24.591   5.726  0.00  0.00    +0.003 C 
ATOM     26  C   LIG    1       25.759 -26.175   5.782  0.00  0.00    -0.026 C 
ATOM     27  C   LIG    1       27.059 -26.514   6.613  0.00  0.00    +0.012 C 
ATOM     28  C   LIG    1       26.078 -27.069   4.512  0.00  0.00    +0.009 C 
ATOM     29  C   LIG    1       25.909 -28.636   4.896  0.00  0.00    +0.032 C 
BRANCH  20  30
ATOM     30  C   LIG    1       26.692 -20.109   6.532  0.00  0.00    -0.022 C 
ATOM     31  C   LIG    1       27.233 -19.619   5.268  0.00  0.00    +0.264 C 
ATOM     32  O   LIG    1       28.645 -19.330   5.547  0.00  0.00    -0.457 OA
ATOM     33  C   LIG    1       28.891 -19.783   6.781  0.00  0.00    +0.332 C 
ATOM     34  O   LIG    1       30.001 -19.820   7.318  0.00  0.00    -0.246 OA
ATOM     35  C   LIG    1       27.702 -20.192   7.427  0.00  0.00    +0.094 C 
ENDBRANCH  20  30
BRANCH  22  36
ATOM     36  O   LIG    1       26.545 -22.243   8.770  0.00  0.00    -0.391 OA
ATOM     37  H   LIG    1       26.354 -22.613   9.649  0.00  0.00    +0.210 HD
ENDBRANCH  22  36
BRANCH  17  38
ATOM     38  O   LIG    1       25.607 -22.141   4.761  0.00  0.00    -0.388 OA
ATOM     39  H   LIG    1       26.344 -21.787   5.290  0.00  0.00    +0.210 HD
ENDBRANCH  17  38
ENDBRANCH  10  11
ENDBRANCH   6  10
BRANCH   3  40
ATOM     40  O   LIG    1       25.600 -31.101  12.080  0.00  0.00    -0.343 OA
BRANCH  40  41
ATOM     41  C   LIG    1       24.406 -30.323  12.186  0.00  0.00    +0.254 C 
ATOM     42  O   LIG    1       24.707 -29.041  12.710  0.00  0.00    -0.346 OA
ATOM     43  C   LIG    1       23.606 -28.142  12.750  0.00  0.00    +0.150 C 
ATOM     44  C   LIG    1       24.202 -26.773  13.076  0.00  0.00    +0.040 C 
ATOM     45  C   LIG    1       22.608 -28.656  13.796  0.00  0.00    +0.178 C 
ATOM     46  C   LIG    1       22.314 -30.151  13.480  0.00  0.00    +0.151 C 
ATOM     47  C   LIG    1       23.533 -31.004  13.214  0.00  0.00    +0.095 C 
BRANCH  46  48
ATOM     48  O   LIG    1       21.464 -30.221  12.330  0.00  0.00    -0.389 OA
ATOM     49  H   LIG    1       20.697 -30.756  12.628  0.00  0.00    +0.210 HD
ENDBRANCH  46  48
BRANCH  45  50
ATOM     50  O   LIG    1       21.403 -27.850  13.773  0.00  0.00    -0.343 OA
BRANCH  50  51
ATOM     51  C   LIG    1       20.244 -28.633  14.049  0.00  0.00    +0.254 C 
ATOM     52  O   LIG    1       19.116 -27.777  14.084  0.00  0.00    -0.346 OA
ATOM     53  C   LIG    1       17.903 -28.476  13.838  0.00  0.00    +0.150 C 
ATOM     54  C   LIG    1       16.829 -27.398  13.988  0.00  0.00    +0.040 C 
ATOM     55  C   LIG    1       17.687 -29.666  14.806  0.00  0.00    +0.178 C 
ATOM     56  C   LIG    1       19.016 -30.162  15.500  0.00  0.00    +0.151 C 
ATOM     57  C   LIG    1       20.223 -29.217  15.444  0.00  0.00    +0.095 C 
BRANCH  56  58
ATOM     58  O   LIG    1       19.449 -31.392  14.894  0.00  0.00    -0.389 OA
ATOM     59  H   LIG    1       19.170 -32.094  15.514  0.00  0.00    +0.210 HD
ENDBRANCH  56  58
BRANCH  55  60
ATOM     60  O   LIG    1       17.083 -30.833  14.176  0.00  0.00    -0.340 OA
BRANCH  60  61
ATOM     61  C   LIG    1       16.898 -30.783  12.754  0.00  0.00    +0.282 C 
ATOM     62  C   LIG    1       18.238 -31.050  12.031  0.00  0.00    +0.201 C 
ATOM     63  C   LIG    1       18.579 -32.544  12.047  0.00  0.00    +0.179 C 
ATOM     64  C   LIG    1       17.423 -33.335  11.429  0.00  0.00    +0.177 C 
ATOM     65  C   LIG    1       16.072 -33.001  12.093  0.00  0.00    +0.178 C 
ATOM     66  O   LIG    1       15.826 -31.603  12.296  0.00  0.00    -0.341 OA
BRANCH  62  67
ATOM     67  O   LIG    1       18.188 -30.560  10.678  0.00  0.00    -0.384 OA
ATOM     68  H   LIG    1       18.997 -30.889  10.223  0.00  0.00    +0.210 HD
ENDBRANCH  62  67
BRANCH  63  69
ATOM     69  O   LIG    1       18.852 -33.022  13.364  0.00  0.00    -0.386 OA
ATOM     70  H   LIG    1       18.084 -33.555  13.642  0.00  0.00    +0.210 HD
ENDBRANCH  63  69
BRANCH  64  71
ATOM     71  O   LIG    1       17.348 -32.997  10.027  0.00  0.00    -0.387 OA
ATOM     72  H   LIG    1       18.039 -32.325   9.869  0.00  0.00    +0.210 HD
ENDBRANCH  64  71
BRANCH  65  73
ATOM     73  C   LIG    1       15.775 -33.821  13.354  0.00  0.00    +0.190 C 
BRANCH  73  74
ATOM     74  O   LIG    1       16.394 -33.245  14.501  0.00  0.00    -0.392 OA
ATOM     75  H   LIG    1       17.294 -33.614  14.558  0.00  0.00    +0.209 HD
ENDBRANCH  73  74
ENDBRANCH  65  73
ENDBRANCH  60  61
ENDBRANCH  55  60
ENDBRANCH  50  51
ENDBRANCH  45  50
ENDBRANCH  40  41
ENDBRANCH   3  40
TORSDOF 19
ENDMDL
MODEL 3
REMARK VINA RESULT:      -3.5      1.330      2.081
REMARK  Name = *****
REMARK                            x       y       z     vdW  Elec       q    Type
REMARK                         _______ _______ _______ _____ _____    ______ ____
ROOT
ATOM      1  C   LIG    1       27.417 -29.484  10.057  0.00  0.00    +0.040 C 
ATOM      2  C   LIG    1       26.442 -30.484   9.439  0.00  0.00    +0.150 C 
ATOM      3  C   LIG    1       27.058 -31.899   9.310  0.00  0.00    +0.178 C 
ATOM      4  C   LIG    1       26.279 -32.745   8.263  0.00  0.00    +0.151 C 
ATOM      5  C   LIG    1       25.885 -31.991   7.014  0.00  0.00    +0.095 C 
ATOM      6  C   LIG    1       25.136 -30.779   7.485  0.00  0.00    +0.253 C 
ATOM      7  O   LIG    1       26.070 -29.937   8.167  0.00  0.00    -0.346 OA
ENDROOT
BRANCH   4   8
ATOM      8  O   LIG    1       25.080 -33.265   8.871  0.00  0.00    -0.389 OA
ATOM      9  H   LIG    1       24.959 -32.725   9.680  0.00  0.00    +0.210 HD
ENDBRANCH   4   8
BRANCH   6  10
ATOM     10  O   LIG    1       24.491 -30.118   6.386  0.00  0.00    -0.348 OA
BRANCH  10  11
ATOM     11  C   LIG    1       25.020 -28.795   6.255  0.00  0.00    +0.122 C 
ATOM     12  C   LIG    1       23.962 -27.725   6.619  0.00  0.00    +0.035 C 
ATOM     13  C   LIG    1       24.202 -26.484   5.809  0.00  0.00    -0.002 C 
ATOM     14  C   LIG    1       23.043 -25.489   5.782  0.00  0.00    +0.004 C 
ATOM     15  C   LIG    1       23.399 -24.064   6.072  0.00  0.00    +0.007 C 
ATOM     16  C   LIG    1       24.684 -23.623   5.393  0.00  0.00    +0.025 C 
ATOM     17  C   LIG    1       25.058 -22.137   5.651  0.00  0.00    +0.077 C 
ATOM     18  C   LIG    1       25.104 -21.734   7.162  0.00  0.00    +0.029 C 
ATOM     19  C   LIG    1       23.696 -21.418   7.825  0.00  0.00    +0.017 C 
ATOM     20  C   LIG    1       25.796 -20.336   7.088  0.00  0.00    +0.030 C 
ATOM     21  C   LIG    1       25.083 -19.733   5.817  0.00  0.00    +0.011 C 
ATOM     22  C   LIG    1       25.682 -22.872   8.006  0.00  0.00    +0.124 C 
ATOM     23  C   LIG    1       26.483 -23.922   7.237  0.00  0.00    +0.036 C 
ATOM     24  C   LIG    1       24.377 -20.915   5.053  0.00  0.00    +0.036 C 
ATOM     25  C   LIG    1       25.903 -24.512   5.860  0.00  0.00    +0.003 C 
ATOM     26  C   LIG    1       25.722 -26.088   5.838  0.00  0.00    -0.026 C 
ATOM     27  C   LIG    1       26.754 -26.637   6.901  0.00  0.00    +0.012 C 
ATOM     28  C   LIG    1       26.175 -26.988   4.615  0.00  0.00    +0.009 C 
ATOM     29  C   LIG    1       25.708 -28.522   4.869  0.00  0.00    +0.032 C 
BRANCH  20  30
ATOM     30  C   LIG    1       27.320 -20.249   7.099  0.00  0.00    -0.022 C 
ATOM     31  C   LIG    1       28.236 -21.019   7.935  0.00  0.00    +0.264 C 
ATOM     32  O   LIG    1       29.575 -20.688   7.434  0.00  0.00    -0.457 OA
ATOM     33  C   LIG    1       29.416 -19.707   6.539  0.00  0.00    +0.332 C 
ATOM     34  O   LIG    1       30.332 -19.090   5.988  0.00  0.00    -0.246 OA
ATOM     35  C   LIG    1       28.050 -19.476   6.264  0.00  0.00    +0.094 C 
ENDBRANCH  20  30
BRANCH  22  36
ATOM     36  O   LIG    1       26.400 -22.390   9.137  0.00  0.00    -0.391 OA
ATOM     37  H   LIG    1       26.422 -21.420   9.086  0.00  0.00    +0.210 HD
ENDBRANCH  22  36
BRANCH  17  38
ATOM     38  O   LIG    1       26.362 -22.052   5.032  0.00  0.00    -0.388 OA
ATOM     39  H   LIG    1       26.447 -22.788   4.401  0.00  0.00    +0.210 HD
ENDBRANCH  17  38
ENDBRANCH  10  11
ENDBRANCH   6  10
BRANCH   3  40
ATOM     40  O   LIG    1       27.000 -32.518  10.614  0.00  0.00    -0.343 OA
BRANCH  40  41
ATOM     41  C   LIG    1       25.969 -32.017  11.466  0.00  0.00    +0.254 C 
ATOM     42  O   LIG    1       26.505 -31.067  12.371  0.00  0.00    -0.346 OA
ATOM     43  C   LIG    1       25.542 -30.417  13.191  0.00  0.00    +0.150 C 
ATOM     44  C   LIG    1       26.285 -29.267  13.870  0.00  0.00    +0.040 C 
ATOM     45  C   LIG    1       24.968 -31.454  14.165  0.00  0.00    +0.178 C 
ATOM     46  C   LIG    1       24.502 -32.683  13.333  0.00  0.00    +0.151 C 
ATOM     47  C   LIG    1       25.495 -33.179  12.307  0.00  0.00    +0.095 C 
BRANCH  46  48
ATOM     48  O   LIG    1       23.290 -32.346  12.649  0.00  0.00    -0.389 OA
ATOM     49  H   LIG    1       22.778 -33.183  12.637  0.00  0.00    +0.210 HD
ENDBRANCH  46  48
BRANCH  45  50
ATOM     50  O   LIG    1       23.880 -30.872  14.926  0.00  0.00    -0.343 OA
BRANCH  50  51
ATOM     51  C   LIG    1       22.611 -31.321  14.454  0.00  0.00    +0.254 C 
ATOM     52  O   LIG    1       21.797 -30.191  14.197  0.00  0.00    -0.346 OA
ATOM     53  C   LIG    1       20.756 -30.478  13.273  0.00  0.00    +0.150 C 
ATOM     54  C   LIG    1       19.973 -29.167  13.193  0.00  0.00    +0.040 C 
ATOM     55  C   LIG    1       19.871 -31.671  13.713  0.00  0.00    +0.178 C 
ATOM     56  C   LIG    1       20.565 -32.609  14.777  0.00  0.00    +0.151 C 
ATOM     57  C   LIG    1       21.796 -32.048  15.500  0.00  0.00    +0.095 C 
BRANCH  56  58
ATOM     58  O   LIG    1       21.000 -33.824  14.141  0.00  0.00    -0.389 OA
ATOM     59  H   LIG    1       21.408 -34.352  14.854  0.00  0.00    +0.210 HD
ENDBRANCH  56  58
BRANCH  55  60
ATOM     60  O   LIG    1       19.449 -32.526  12.612  0.00  0.00    -0.340 OA
BRANCH  60  61
ATOM     61  C   LIG    1       18.128 -32.315  12.091  0.00  0.00    +0.282 C 
ATOM     62  C   LIG    1       17.977 -30.857  11.595  0.00  0.00    +0.201 C 
ATOM     63  C   LIG    1       18.664 -30.669  10.238  0.00  0.00    +0.179 C 
ATOM     64  C   LIG    1       18.099 -31.680   9.238  0.00  0.00    +0.177 C 
ATOM     65  C   LIG    1       18.170 -33.125   9.772  0.00  0.00    +0.178 C 
ATOM     66  O   LIG    1       17.739 -33.291  11.129  0.00  0.00    -0.341 OA
BRANCH  62  67
ATOM     67  O   LIG    1       16.586 -30.496  11.510  0.00  0.00    -0.384 OA
ATOM     68  H   LIG    1       16.090 -31.317  11.285  0.00  0.00    +0.210 HD
ENDBRANCH  62  67
BRANCH  63  69
ATOM     69  O   LIG    1       20.082 -30.806  10.327  0.00  0.00    -0.386 OA
ATOM     70  H   LIG    1       20.415 -30.037  10.825  0.00  0.00    +0.210 HD
ENDBRANCH  63  69
BRANCH  64  71
ATOM     71  O   LIG    1       16.716 -31.343   8.992  0.00  0.00    -0.387 OA
ATOM     72  H   LIG    1       16.270 -32.176   8.745  0.00  0.00    +0.210 HD
ENDBRANCH  64  71
BRANCH  65  73
ATOM     73  C   LIG    1       19.508 -33.824   9.509  0.00  0.00    +0.190 C 
BRANCH  73  74
ATOM     74  O   LIG    1       20.472 -33.481  10.501  0.00  0.00    -0.392 OA
ATOM     75  H   LIG    1       20.312 -34.059  11.269  0.00  0.00    +0.209 HD
ENDBRANCH  73  74
ENDBRANCH  65  73
ENDBRANCH  60  61
ENDBRANCH  55  60
ENDBRANCH  50  51
ENDBRANCH  45  50
ENDBRANCH  40  41
ENDBRANCH   3  40
TORSDOF 19
ENDMDL
MODEL 4
REMARK VINA RESULT:      -3.0      1.761      4.799
REMARK  Name = *****
REMARK                            x       y       z     vdW  Elec       q    Type
REMARK                         _______ _______ _______ _____ _____    ______ ____
ROOT
ATOM      1  C   LIG    1       24.423 -30.628  10.032  0.00  0.00    +0.040 C 
ATOM      2  C   LIG    1       24.104 -30.857   8.556  0.00  0.00    +0.150 C 
ATOM      3  C   LIG    1       23.368 -32.200   8.318  0.00  0.00    +0.178 C 
ATOM      4  C   LIG    1       23.497 -32.642   6.833  0.00  0.00    +0.151 C 
ATOM      5  C   LIG    1       24.867 -32.430   6.231  0.00  0.00    +0.095 C 
ATOM      6  C   LIG    1       25.196 -30.983   6.458  0.00  0.00    +0.253 C 
ATOM      7  O   LIG    1       25.360 -30.799   7.867  0.00  0.00    -0.346 OA
ENDROOT
BRANCH   4   8
ATOM      8  O   LIG    1       22.539 -31.915   6.037  0.00  0.00    -0.389 OA
ATOM      9  H   LIG    1       21.672 -32.126   6.440  0.00  0.00    +0.210 HD
ENDBRANCH   4   8
BRANCH   6  10
ATOM     10  O   LIG    1       26.358 -30.600   5.709  0.00  0.00    -0.348 OA
BRANCH  10  11
ATOM     11  C   LIG    1       26.418 -29.172   5.628  0.00  0.00    +0.122 C 
ATOM     12  C   LIG    1       25.156 -28.518   6.240  0.00  0.00    +0.035 C 
ATOM     13  C   LIG    1       24.858 -27.232   5.525  0.00  0.00    -0.002 C 
ATOM     14  C   LIG    1       23.458 -26.666   5.758  0.00  0.00    +0.004 C 
ATOM     15  C   LIG    1       23.395 -25.216   6.127  0.00  0.00    +0.007 C 
ATOM     16  C   LIG    1       24.346 -24.354   5.316  0.00  0.00    +0.025 C 
ATOM     17  C   LIG    1       24.275 -22.840   5.657  0.00  0.00    +0.077 C 
ATOM     18  C   LIG    1       24.443 -22.510   7.176  0.00  0.00    +0.029 C 
ATOM     19  C   LIG    1       23.138 -22.695   8.062  0.00  0.00    +0.017 C 
ATOM     20  C   LIG    1       24.641 -20.961   7.136  0.00  0.00    +0.030 C 
ATOM     21  C   LIG    1       23.575 -20.566   6.043  0.00  0.00    +0.011 C 
ATOM     22  C   LIG    1       25.479 -23.436   7.818  0.00  0.00    +0.124 C 
ATOM     23  C   LIG    1       26.429 -24.136   6.846  0.00  0.00    +0.036 C 
ATOM     24  C   LIG    1       23.157 -21.879   5.280  0.00  0.00    +0.036 C 
ATOM     25  C   LIG    1       25.841 -24.821   5.517  0.00  0.00    +0.003 C 
ATOM     26  C   LIG    1       26.160 -26.368   5.373  0.00  0.00    -0.026 C 
ATOM     27  C   LIG    1       27.474 -26.600   6.220  0.00  0.00    +0.012 C 
ATOM     28  C   LIG    1       26.662 -27.020   4.017  0.00  0.00    +0.009 C 
ATOM     29  C   LIG    1       26.747 -28.631   4.189  0.00  0.00    +0.032 C 
BRANCH  20  30
ATOM     30  C   LIG    1       26.042 -20.387   6.937  0.00  0.00    -0.022 C 
ATOM     31  C   LIG    1       27.101 -20.293   7.936  0.00  0.00    +0.264 C 
ATOM     32  O   LIG    1       28.283 -19.836   7.194  0.00  0.00    -0.457 OA
ATOM     33  C   LIG    1       27.866 -19.542   5.958  0.00  0.00    +0.332 C 
ATOM     34  O   LIG    1       28.556 -19.018   5.080  0.00  0.00    -0.246 OA
ATOM     35  C   LIG    1       26.525 -19.939   5.757  0.00  0.00    +0.094 C 
ENDBRANCH  20  30
BRANCH  22  36
ATOM     36  O   LIG    1       26.188 -22.798   8.875  0.00  0.00    -0.391 OA
ATOM     37  H   LIG    1       25.628 -22.823   9.669  0.00  0.00    +0.210 HD
ENDBRANCH  22  36
BRANCH  17  38
ATOM     38  O   LIG    1       25.365 -22.311   4.868  0.00  0.00    -0.388 OA
ATOM     39  H   LIG    1       25.861 -21.681   5.419  0.00  0.00    +0.210 HD
ENDBRANCH  17  38
ENDBRANCH  10  11
ENDBRANCH   6  10
BRANCH   3  40
ATOM     40  O   LIG    1       21.982 -32.004   8.676  0.00  0.00    -0.343 OA
BRANCH  40  41
ATOM     41  C   LIG    1       21.766 -31.626  10.037  0.00  0.00    +0.254 C 
ATOM     42  O   LIG    1       21.796 -32.772  10.871  0.00  0.00    -0.346 OA
ATOM     43  C   LIG    1       21.706 -32.497  12.263  0.00  0.00    +0.150 C 
ATOM     44  C   LIG    1       22.032 -33.813  12.967  0.00  0.00    +0.040 C 
ATOM     45  C   LIG    1       20.298 -31.963  12.554  0.00  0.00    +0.178 C 
ATOM     46  C   LIG    1       20.016 -30.796  11.564  0.00  0.00    +0.151 C 
ATOM     47  C   LIG    1       20.360 -31.081  10.119  0.00  0.00    +0.095 C 
BRANCH  46  48
ATOM     48  O   LIG    1       20.765 -29.647  11.978  0.00  0.00    -0.389 OA
ATOM     49  H   LIG    1       20.724 -29.673  12.958  0.00  0.00    +0.210 HD
ENDBRANCH  46  48
BRANCH  45  50
ATOM     50  O   LIG    1       20.204 -31.534  13.935  0.00  0.00    -0.343 OA
BRANCH  50  51
ATOM     51  C   LIG    1       21.252 -30.630  14.276  0.00  0.00    +0.254 C 
ATOM     52  O   LIG    1       22.313 -31.365  14.860  0.00  0.00    -0.346 OA
ATOM     53  C   LIG    1       23.557 -30.685  14.760  0.00  0.00    +0.150 C 
ATOM     54  C   LIG    1       24.531 -31.604  15.500  0.00  0.00    +0.040 C 
ATOM     55  C   LIG    1       23.514 -29.259  15.365  0.00  0.00    +0.178 C 
ATOM     56  C   LIG    1       22.053 -28.677  15.500  0.00  0.00    +0.151 C 
ATOM     57  C   LIG    1       20.894 -29.677  15.395  0.00  0.00    +0.095 C 
BRANCH  56  58
ATOM     58  O   LIG    1       21.824 -27.699  14.471  0.00  0.00    -0.389 OA
ATOM     59  H   LIG    1       22.694 -27.565  14.049  0.00  0.00    +0.210 HD
ENDBRANCH  56  58
BRANCH  55  60
ATOM     60  O   LIG    1       24.287 -28.280  14.613  0.00  0.00    -0.340 OA
BRANCH  60  61
ATOM     61  C   LIG    1       25.536 -27.858  15.181  0.00  0.00    +0.282 C 
ATOM     62  C   LIG    1       26.714 -28.366  14.318  0.00  0.00    +0.201 C 
ATOM     63  C   LIG    1       26.873 -27.513  13.056  0.00  0.00    +0.179 C 
ATOM     64  C   LIG    1       27.040 -26.044  13.452  0.00  0.00    +0.177 C 
ATOM     65  C   LIG    1       25.910 -25.564  14.385  0.00  0.00    +0.178 C 
ATOM     66  O   LIG    1       25.587 -26.461  15.456  0.00  0.00    -0.341 OA
BRANCH  62  67
ATOM     67  O   LIG    1       27.934 -28.367  15.082  0.00  0.00    -0.384 OA
ATOM     68  H   LIG    1       27.796 -27.758  15.844  0.00  0.00    +0.210 HD
ENDBRANCH  62  67
BRANCH  63  69
ATOM     69  O   LIG    1       25.768 -27.657  12.163  0.00  0.00    -0.386 OA
ATOM     70  H   LIG    1       25.516 -26.762  11.870  0.00  0.00    +0.210 HD
ENDBRANCH  63  69
BRANCH  64  71
ATOM     71  O   LIG    1       28.302 -25.906  14.141  0.00  0.00    -0.387 OA
ATOM     72  H   LIG    1       28.632 -25.011  13.934  0.00  0.00    +0.210 HD
ENDBRANCH  64  71
BRANCH  65  73
ATOM     73  C   LIG    1       24.656 -25.077  13.650  0.00  0.00    +0.190 C 
BRANCH  73  74
ATOM     74  O   LIG    1       23.854 -26.174  13.219  0.00  0.00    -0.392 OA
ATOM     75  H   LIG    1       24.362 -26.987  13.393  0.00  0.00    +0.209 HD
ENDBRANCH  73  74
ENDBRANCH  65  73
ENDBRANCH  60  61
ENDBRANCH  55  60
ENDBRANCH  50  51
ENDBRANCH  45  50
ENDBRANCH  40  41
ENDBRANCH   3  40
TORSDOF 19
ENDMDL
MODEL 5
REMARK VINA RESULT:      -3.0      1.431      2.033
REMARK  Name = *****
REMARK                            x       y       z     vdW  Elec       q    Type
REMARK                         _______ _______ _______ _____ _____    ______ ____
ROOT
ATOM      1  C   LIG    1       27.768 -29.640  10.192  0.00  0.00    +0.040 C 
ATOM      2  C   LIG    1       26.428 -30.330   9.942  0.00  0.00    +0.150 C 
ATOM      3  C   LIG    1       26.493 -31.853  10.219  0.00  0.00    +0.178 C 
ATOM      4  C   LIG    1       25.326 -32.592   9.506  0.00  0.00    +0.151 C 
ATOM      5  C   LIG    1       25.037 -32.105   8.106  0.00  0.00    +0.095 C 
ATOM      6  C   LIG    1       24.828 -30.623   8.220  0.00  0.00    +0.253 C 
ATOM      7  O   LIG    1       26.084 -30.042   8.580  0.00  0.00    -0.346 OA
ENDROOT
BRANCH   4   8
ATOM      8  O   LIG    1       24.124 -32.447  10.290  0.00  0.00    -0.389 OA
ATOM      9  H   LIG    1       24.410 -31.966  11.094  0.00  0.00    +0.210 HD
ENDBRANCH   4   8
BRANCH   6  10
ATOM     10  O   LIG    1       24.296 -30.085   7.001  0.00  0.00    -0.348 OA
BRANCH  10  11
ATOM     11  C   LIG    1       24.862 -28.792   6.768  0.00  0.00    +0.122 C 
ATOM     12  C   LIG    1       23.830 -27.668   7.027  0.00  0.00    +0.035 C 
ATOM     13  C   LIG    1       24.113 -26.505   6.121  0.00  0.00    -0.002 C 
ATOM     14  C   LIG    1       22.981 -25.487   5.995  0.00  0.00    +0.004 C 
ATOM     15  C   LIG    1       23.373 -24.052   6.171  0.00  0.00    +0.007 C 
ATOM     16  C   LIG    1       24.677 -23.703   5.477  0.00  0.00    +0.025 C 
ATOM     17  C   LIG    1       25.088 -22.211   5.617  0.00  0.00    +0.077 C 
ATOM     18  C   LIG    1       25.127 -21.685   7.090  0.00  0.00    +0.029 C 
ATOM     19  C   LIG    1       23.720 -21.278   7.704  0.00  0.00    +0.017 C 
ATOM     20  C   LIG    1       25.857 -20.316   6.910  0.00  0.00    +0.030 C 
ATOM     21  C   LIG    1       25.177 -19.802   5.584  0.00  0.00    +0.011 C 
ATOM     22  C   LIG    1       25.663 -22.764   8.033  0.00  0.00    +0.124 C 
ATOM     23  C   LIG    1       26.445 -23.894   7.366  0.00  0.00    +0.036 C 
ATOM     24  C   LIG    1       24.449 -21.025   4.910  0.00  0.00    +0.036 C 
ATOM     25  C   LIG    1       25.866 -24.581   6.033  0.00  0.00    +0.003 C 
ATOM     26  C   LIG    1       25.642 -26.148   6.140  0.00  0.00    -0.026 C 
ATOM     27  C   LIG    1       26.646 -26.634   7.259  0.00  0.00    +0.012 C 
ATOM     28  C   LIG    1       26.086 -27.159   5.002  0.00  0.00    +0.009 C 
ATOM     29  C   LIG    1       25.575 -28.653   5.374  0.00  0.00    +0.032 C 
BRANCH  20  30
ATOM     30  C   LIG    1       27.383 -20.268   6.937  0.00  0.00    -0.022 C 
ATOM     31  C   LIG    1       28.276 -21.186   7.636  0.00  0.00    +0.264 C 
ATOM     32  O   LIG    1       29.626 -20.809   7.196  0.00  0.00    -0.457 OA
ATOM     33  C   LIG    1       29.493 -19.692   6.474  0.00  0.00    +0.332 C 
ATOM     34  O   LIG    1       30.425 -19.014   6.033  0.00  0.00    -0.246 OA
ATOM     35  C   LIG    1       28.134 -19.386   6.240  0.00  0.00    +0.094 C 
ENDBRANCH  20  30
BRANCH  22  36
ATOM     36  O   LIG    1       26.379 -22.209   9.131  0.00  0.00    -0.391 OA
ATOM     37  H   LIG    1       27.167 -21.760   8.779  0.00  0.00    +0.210 HD
ENDBRANCH  22  36
BRANCH  17  38
ATOM     38  O   LIG    1       26.401 -22.211   5.012  0.00  0.00    -0.388 OA
ATOM     39  H   LIG    1       26.438 -22.939   4.366  0.00  0.00    +0.210 HD
ENDBRANCH  17  38
ENDBRANCH  10  11
ENDBRANCH   6  10
BRANCH   3  40
ATOM     40  O   LIG    1       26.418 -32.037  11.651  0.00  0.00    -0.343 OA
BRANCH  40  41
ATOM     41  C   LIG    1       25.511 -31.157  12.317  0.00  0.00    +0.254 C 
ATOM     42  O   LIG    1       26.025 -29.837  12.317  0.00  0.00    -0.346 OA
ATOM     43  C   LIG    1       25.147 -28.856  12.855  0.00  0.00    +0.150 C 
ATOM     44  C   LIG    1       25.772 -27.506  12.507  0.00  0.00    +0.040 C 
ATOM     45  C   LIG    1       25.011 -29.113  14.361  0.00  0.00    +0.178 C 
ATOM     46  C   LIG    1       24.635 -30.611  14.557  0.00  0.00    +0.151 C 
ATOM     47  C   LIG    1       25.468 -31.592  13.763  0.00  0.00    +0.095 C 
BRANCH  46  48
ATOM     48  O   LIG    1       23.263 -30.795  14.189  0.00  0.00    -0.389 OA
ATOM     49  H   LIG    1       23.066 -31.722  14.445  0.00  0.00    +0.210 HD
ENDBRANCH  46  48
BRANCH  45  50
ATOM     50  O   LIG    1       24.014 -28.227  14.929  0.00  0.00    -0.343 OA
BRANCH  50  51
ATOM     51  C   LIG    1       22.737 -28.419  14.325  0.00  0.00    +0.254 C 
ATOM     52  O   LIG    1       22.927 -28.793  12.971  0.00  0.00    -0.346 OA
ATOM     53  C   LIG    1       21.805 -29.487  12.444  0.00  0.00    +0.150 C 
ATOM     54  C   LIG    1       22.185 -29.731  10.983  0.00  0.00    +0.040 C 
ATOM     55  C   LIG    1       20.483 -28.692  12.586  0.00  0.00    +0.178 C 
ATOM     56  C   LIG    1       20.545 -27.561  13.686  0.00  0.00    +0.151 C 
ATOM     57  C   LIG    1       21.937 -27.144  14.176  0.00  0.00    +0.095 C 
BRANCH  56  58
ATOM     58  O   LIG    1       19.824 -27.983  14.857  0.00  0.00    -0.389 OA
ATOM     59  H   LIG    1       20.194 -28.859  15.081  0.00  0.00    +0.210 HD
ENDBRANCH  56  58
BRANCH  55  60
ATOM     60  O   LIG    1       19.330 -29.523  12.905  0.00  0.00    -0.340 OA
BRANCH  60  61
ATOM     61  C   LIG    1       19.582 -30.906  13.197  0.00  0.00    +0.282 C 
ATOM     62  C   LIG    1       19.845 -31.093  14.710  0.00  0.00    +0.201 C 
ATOM     63  C   LIG    1       18.533 -31.050  15.500  0.00  0.00    +0.179 C 
ATOM     64  C   LIG    1       17.572 -32.105  14.947  0.00  0.00    +0.177 C 
ATOM     65  C   LIG    1       17.380 -31.972  13.422  0.00  0.00    +0.178 C 
ATOM     66  O   LIG    1       18.589 -31.783  12.674  0.00  0.00    -0.341 OA
BRANCH  62  67
ATOM     67  O   LIG    1       20.538 -32.331  14.951  0.00  0.00    -0.384 OA
ATOM     68  H   LIG    1       19.918 -32.915  15.446  0.00  0.00    +0.210 HD
ENDBRANCH  62  67
BRANCH  63  69
ATOM     69  O   LIG    1       17.921 -29.761  15.462  0.00  0.00    -0.386 OA
ATOM     70  H   LIG    1       17.610 -29.563  16.366  0.00  0.00    +0.210 HD
ENDBRANCH  63  69
BRANCH  64  71
ATOM     71  O   LIG    1       18.123 -33.408  15.234  0.00  0.00    -0.387 OA
ATOM     72  H   LIG    1       19.019 -33.255  15.592  0.00  0.00    +0.210 HD
ENDBRANCH  64  71
BRANCH  65  73
ATOM     73  C   LIG    1       16.294 -30.971  13.014  0.00  0.00    +0.190 C 
BRANCH  73  74
ATOM     74  O   LIG    1       16.316 -30.732  11.608  0.00  0.00    -0.392 OA
ATOM     75  H   LIG    1       16.257 -31.600  11.169  0.00  0.00    +0.209 HD
ENDBRANCH  73  74
ENDBRANCH  65  73
ENDBRANCH  60  61
ENDBRANCH  55  60
ENDBRANCH  50  51
ENDBRANCH  45  50
ENDBRANCH  40  41
ENDBRANCH   3  40
TORSDOF 19
ENDMDL
