MODEL 1
REMARK VINA RESULT:      -8.3      0.000      0.000
REMARK  Name = *****
REMARK                            x       y       z     vdW  Elec       q    Type
REMARK                         _______ _______ _______ _____ _____    ______ ____
ROOT
ATOM      1  C   LIG    1       29.226 -20.632   7.345  0.00  0.00    -0.024 C 
ATOM      2  C   LIG    1       27.998 -20.730   6.661  0.00  0.00    +0.050 C 
ATOM      3  C   LIG    1       27.621 -19.856   5.637  0.00  0.00    +0.004 C 
ATOM      4  C   LIG    1       26.315 -20.233   5.230  0.00  0.00    -0.014 C 
ATOM      5  C   LIG    1       25.393 -19.647   4.229  0.00  0.00    +0.065 C 
ATOM      6  C   LIG    1       24.367 -20.718   3.827  0.00  0.00    +0.166 C 
ATOM      7  O   LIG    1       23.744 -21.347   4.972  0.00  0.00    -0.366 OA
ATOM      8  C   LIG    1       24.633 -22.081   5.870  0.00  0.00    +0.119 C 
ATOM      9  C   LIG    1       25.933 -21.329   5.972  0.00  0.00    +0.053 C 
ATOM     10  C   LIG    1       28.515 -18.844   5.245  0.00  0.00    +0.010 C 
ATOM     11  C   LIG    1       29.754 -18.742   5.881  0.00  0.00    +0.001 C 
ATOM     12  N   LIG    1       26.959 -21.624   6.831  0.00  0.00    -0.355 NA
ATOM     13  H   LIG    1       26.968 -22.376   7.505  0.00  0.00    +0.166 HD
ATOM     14  C   LIG    1       30.098 -19.617   6.910  0.00  0.00    +0.006 C 
ENDROOT
BRANCH   1  16
ATOM     15  C   LIG    1       31.084 -21.373   8.876  0.00  0.00    +0.009 C 
ATOM     16  C   LIG    1       29.623 -21.531   8.489  0.00  0.00    +0.034 C 
ENDBRANCH   1  16
BRANCH   8  17
ATOM     17  C   LIG    1       23.926 -22.158   7.246  0.00  0.00    +0.038 C 
ATOM     18  C   LIG    1       23.442 -20.809   7.779  0.00  0.00    +0.007 C 
ENDBRANCH   8  17
BRANCH   8  19
ATOM     19  C   LIG    1       24.883 -23.484   5.290  0.00  0.00    +0.161 C 
BRANCH  19  20
ATOM     20  C   LIG    1       24.929 -24.600   6.305  0.00  0.00    +0.308 C 
ATOM     21  O   LIG    1       25.911 -24.814   7.001  0.00  0.00    -0.251 OA
BRANCH  20  22
ATOM     22  O   LIG    1       23.844 -25.402   6.338  0.00  0.00    -0.480 OA
ATOM     23  H   LIG    1       23.135 -25.134   5.709  0.00  0.00    +0.295 HD
ENDBRANCH  20  22
ENDBRANCH  19  20
ENDBRANCH   8  19
TORSDOF 5
ENDMDL
MODEL 2
REMARK VINA RESULT:      -8.1      2.845      4.739
REMARK  Name = *****
REMARK                            x       y       z     vdW  Elec       q    Type
REMARK                         _______ _______ _______ _____ _____    ______ ____
ROOT
ATOM      1  C   LIG    1       24.544 -19.141   3.865  0.00  0.00    -0.024 C 
ATOM      2  C   LIG    1       24.280 -20.320   4.589  0.00  0.00    +0.050 C 
ATOM      3  C   LIG    1       23.046 -20.588   5.190  0.00  0.00    +0.004 C 
ATOM      4  C   LIG    1       23.175 -21.831   5.863  0.00  0.00    -0.014 C 
ATOM      5  C   LIG    1       22.223 -22.592   6.706  0.00  0.00    +0.065 C 
ATOM      6  C   LIG    1       22.671 -24.061   6.742  0.00  0.00    +0.166 C 
ATOM      7  O   LIG    1       24.072 -24.205   7.077  0.00  0.00    -0.366 OA
ATOM      8  C   LIG    1       25.025 -23.606   6.146  0.00  0.00    +0.119 C 
ATOM      9  C   LIG    1       24.447 -22.310   5.641  0.00  0.00    +0.053 C 
ATOM     10  C   LIG    1       22.003 -19.655   5.047  0.00  0.00    +0.010 C 
ATOM     11  C   LIG    1       22.224 -18.493   4.306  0.00  0.00    +0.001 C 
ATOM     12  N   LIG    1       25.105 -21.392   4.867  0.00  0.00    -0.355 NA
ATOM     13  H   LIG    1       26.059 -21.465   4.544  0.00  0.00    +0.166 HD
ATOM     14  C   LIG    1       23.468 -18.243   3.730  0.00  0.00    +0.006 C 
ENDROOT
BRANCH   1  16
ATOM     15  C   LIG    1       26.194 -17.324   3.302  0.00  0.00    +0.009 C 
ATOM     16  C   LIG    1       25.885 -18.811   3.259  0.00  0.00    +0.034 C 
ENDBRANCH   1  16
BRANCH   8  17
ATOM     17  C   LIG    1       26.336 -23.359   6.934  0.00  0.00    +0.038 C 
ATOM     18  C   LIG    1       26.195 -22.374   8.094  0.00  0.00    +0.007 C 
ENDBRANCH   8  17
BRANCH   8  19
ATOM     19  C   LIG    1       25.251 -24.572   4.970  0.00  0.00    +0.161 C 
BRANCH  19  20
ATOM     20  C   LIG    1       25.556 -25.998   5.360  0.00  0.00    +0.308 C 
ATOM     21  O   LIG    1       26.693 -26.447   5.367  0.00  0.00    -0.251 OA
BRANCH  20  22
ATOM     22  O   LIG    1       24.482 -26.773   5.621  0.00  0.00    -0.480 OA
ATOM     23  H   LIG    1       23.664 -26.485   5.153  0.00  0.00    +0.295 HD
ENDBRANCH  20  22
ENDBRANCH  19  20
ENDBRANCH   8  19
TORSDOF 5
ENDMDL
MODEL 3
REMARK VINA RESULT:      -7.2      3.454      6.118
REMARK  Name = *****
REMARK                            x       y       z     vdW  Elec       q    Type
REMARK                         _______ _______ _______ _____ _____    ______ ____
ROOT
ATOM      1  C   LIG    1       25.556 -21.999   6.546  0.00  0.00    -0.024 C 
ATOM      2  C   LIG    1       26.713 -21.197   6.594  0.00  0.00    +0.050 C 
ATOM      3  C   LIG    1       26.989 -20.197   5.656  0.00  0.00    +0.004 C 
ATOM      4  C   LIG    1       28.251 -19.645   5.998  0.00  0.00    -0.014 C 
ATOM      5  C   LIG    1       29.072 -18.599   5.346  0.00  0.00    +0.065 C 
ATOM      6  C   LIG    1       30.057 -18.036   6.382  0.00  0.00    +0.166 C 
ATOM      7  O   LIG    1       30.787 -19.076   7.075  0.00  0.00    -0.366 OA
ATOM      8  C   LIG    1       29.989 -20.008   7.869  0.00  0.00    +0.119 C 
ATOM      9  C   LIG    1       28.704 -20.279   7.134  0.00  0.00    +0.053 C 
ATOM     10  C   LIG    1       26.060 -19.954   4.628  0.00  0.00    +0.010 C 
ATOM     11  C   LIG    1       24.888 -20.710   4.574  0.00  0.00    +0.001 C 
ATOM     12  N   LIG    1       27.764 -21.212   7.489  0.00  0.00    -0.355 NA
ATOM     13  H   LIG    1       27.821 -21.837   8.280  0.00  0.00    +0.166 HD
ATOM     14  C   LIG    1       24.644 -21.711   5.514  0.00  0.00    +0.006 C 
ENDROOT
BRANCH   1  16
ATOM     15  C   LIG    1       25.688 -24.477   6.978  0.00  0.00    +0.009 C 
ATOM     16  C   LIG    1       25.271 -23.118   7.516  0.00  0.00    +0.034 C 
ENDBRANCH   1  16
BRANCH   8  17
ATOM     17  C   LIG    1       30.825 -21.304   8.024  0.00  0.00    +0.038 C 
ATOM     18  C   LIG    1       30.801 -21.902   9.430  0.00  0.00    +0.007 C 
ENDBRANCH   8  17
BRANCH   8  19
ATOM     19  C   LIG    1       29.687 -19.369   9.236  0.00  0.00    +0.161 C 
BRANCH  19  20
ATOM     20  C   LIG    1       30.575 -18.207   9.611  0.00  0.00    +0.308 C 
ATOM     21  O   LIG    1       30.150 -17.066   9.721  0.00  0.00    -0.251 OA
BRANCH  20  22
ATOM     22  O   LIG    1       31.888 -18.494   9.737  0.00  0.00    -0.480 OA
ATOM     23  H   LIG    1       32.185 -18.580  10.673  0.00  0.00    +0.295 HD
ENDBRANCH  20  22
ENDBRANCH  19  20
ENDBRANCH   8  19
TORSDOF 5
ENDMDL
MODEL 4
REMARK VINA RESULT:      -6.4      1.541      3.795
REMARK  Name = *****
REMARK                            x       y       z     vdW  Elec       q    Type
REMARK                         _______ _______ _______ _____ _____    ______ ____
ROOT
ATOM      1  C   LIG    1       29.114 -19.344   6.191  0.00  0.00    -0.024 C 
ATOM      2  C   LIG    1       27.959 -20.147   6.257  0.00  0.00    +0.050 C 
ATOM      3  C   LIG    1       27.834 -21.238   7.123  0.00  0.00    +0.004 C 
ATOM      4  C   LIG    1       26.567 -21.825   6.870  0.00  0.00    -0.014 C 
ATOM      5  C   LIG    1       25.911 -23.024   7.442  0.00  0.00    +0.065 C 
ATOM      6  C   LIG    1       24.396 -22.906   7.214  0.00  0.00    +0.166 C 
ATOM      7  O   LIG    1       24.066 -22.596   5.839  0.00  0.00    -0.366 OA
ATOM      8  C   LIG    1       24.564 -21.322   5.325  0.00  0.00    +0.119 C 
ATOM      9  C   LIG    1       25.936 -21.082   5.897  0.00  0.00    +0.053 C 
ATOM     10  C   LIG    1       28.896 -21.538   7.995  0.00  0.00    +0.010 C 
ATOM     11  C   LIG    1       30.041 -20.739   7.977  0.00  0.00    +0.001 C 
ATOM     12  N   LIG    1       26.783 -20.068   5.536  0.00  0.00    -0.355 NA
ATOM     13  H   LIG    1       26.597 -19.362   4.839  0.00  0.00    +0.166 HD
ATOM     14  C   LIG    1       30.146 -19.667   7.092  0.00  0.00    +0.006 C 
ENDROOT
BRANCH   1  16
ATOM     15  C   LIG    1       27.977 -17.777   4.580  0.00  0.00    +0.009 C 
ATOM     16  C   LIG    1       29.287 -18.200   5.223  0.00  0.00    +0.034 C 
ENDBRANCH   1  16
BRANCH   8  17
ATOM     17  C   LIG    1       24.619 -21.445   3.782  0.00  0.00    +0.038 C 
ATOM     18  C   LIG    1       24.784 -20.113   3.051  0.00  0.00    +0.007 C 
ENDBRANCH   8  17
BRANCH   8  19
ATOM     19  C   LIG    1       23.609 -20.198   5.764  0.00  0.00    +0.161 C 
BRANCH  19  20
ATOM     20  C   LIG    1       22.294 -20.147   5.024  0.00  0.00    +0.308 C 
ATOM     21  O   LIG    1       21.824 -19.105   4.592  0.00  0.00    -0.251 OA
BRANCH  20  22
ATOM     22  O   LIG    1       21.626 -21.317   4.943  0.00  0.00    -0.480 OA
ATOM     23  H   LIG    1       20.847 -21.286   4.341  0.00  0.00    +0.295 HD
ENDBRANCH  20  22
ENDBRANCH  19  20
ENDBRANCH   8  19
TORSDOF 5
ENDMDL
MODEL 5
REMARK VINA RESULT:      -6.1      2.849      5.954
REMARK  Name = *****
REMARK                            x       y       z     vdW  Elec       q    Type
REMARK                         _______ _______ _______ _____ _____    ______ ____
ROOT
ATOM      1  C   LIG    1       25.061 -24.727   5.881  0.00  0.00    -0.024 C 
ATOM      2  C   LIG    1       25.597 -23.588   6.514  0.00  0.00    +0.050 C 
ATOM      3  C   LIG    1       24.819 -22.680   7.240  0.00  0.00    +0.004 C 
ATOM      4  C   LIG    1       25.690 -21.649   7.681  0.00  0.00    -0.014 C 
ATOM      5  C   LIG    1       25.428 -20.406   8.443  0.00  0.00    +0.065 C 
ATOM      6  C   LIG    1       26.745 -19.941   9.083  0.00  0.00    +0.166 C 
ATOM      7  O   LIG    1       27.835 -19.887   8.132  0.00  0.00    -0.366 OA
ATOM      8  C   LIG    1       28.215 -21.153   7.510  0.00  0.00    +0.119 C 
ATOM      9  C   LIG    1       26.964 -21.953   7.257  0.00  0.00    +0.053 C 
ATOM     10  C   LIG    1       23.440 -22.921   7.373  0.00  0.00    +0.010 C 
ATOM     11  C   LIG    1       22.885 -24.059   6.785  0.00  0.00    +0.001 C 
ATOM     12  N   LIG    1       26.898 -23.128   6.556  0.00  0.00    -0.355 NA
ATOM     13  H   LIG    1       27.676 -23.600   6.118  0.00  0.00    +0.166 HD
ATOM     14  C   LIG    1       23.681 -24.940   6.053  0.00  0.00    +0.006 C 
ENDROOT
BRANCH   1  16
ATOM     15  C   LIG    1       26.341 -26.896   5.838  0.00  0.00    +0.009 C 
ATOM     16  C   LIG    1       25.876 -25.684   5.048  0.00  0.00    +0.034 C 
ENDBRANCH   1  16
BRANCH   8  17
ATOM     17  C   LIG    1       28.933 -20.809   6.181  0.00  0.00    +0.038 C 
ATOM     18  C   LIG    1       28.897 -19.326   5.814  0.00  0.00    +0.007 C 
ENDBRANCH   8  17
BRANCH   8  19
ATOM     19  C   LIG    1       29.144 -21.922   8.466  0.00  0.00    +0.161 C 
BRANCH  19  20
ATOM     20  C   LIG    1       30.475 -21.263   8.736  0.00  0.00    +0.308 C 
ATOM     21  O   LIG    1       31.531 -21.876   8.694  0.00  0.00    -0.251 OA
BRANCH  20  22
ATOM     22  O   LIG    1       30.418 -19.967   9.111  0.00  0.00    -0.480 OA
ATOM     23  H   LIG    1       29.970 -19.826   9.977  0.00  0.00    +0.295 HD
ENDBRANCH  20  22
ENDBRANCH  19  20
ENDBRANCH   8  19
TORSDOF 5
ENDMDL
MODEL 6
REMARK VINA RESULT:      -5.7      6.243      9.526
REMARK  Name = *****
REMARK                            x       y       z     vdW  Elec       q    Type
REMARK                         _______ _______ _______ _____ _____    ______ ____
ROOT
ATOM      1  C   LIG    1       25.681 -27.536   6.366  0.00  0.00    -0.024 C 
ATOM      2  C   LIG    1       25.686 -28.266   7.571  0.00  0.00    +0.050 C 
ATOM      3  C   LIG    1       24.860 -29.371   7.799  0.00  0.00    +0.004 C 
ATOM      4  C   LIG    1       25.108 -29.807   9.127  0.00  0.00    -0.014 C 
ATOM      5  C   LIG    1       24.500 -30.892   9.931  0.00  0.00    +0.065 C 
ATOM      6  C   LIG    1       25.468 -31.257  11.068  0.00  0.00    +0.166 C 
ATOM      7  O   LIG    1       25.921 -30.096  11.804  0.00  0.00    -0.366 OA
ATOM      8  C   LIG    1       26.680 -29.104  11.047  0.00  0.00    +0.119 C 
ATOM      9  C   LIG    1       26.085 -29.000   9.668  0.00  0.00    +0.053 C 
ATOM     10  C   LIG    1       23.999 -29.799   6.773  0.00  0.00    +0.010 C 
ATOM     11  C   LIG    1       23.996 -29.116   5.554  0.00  0.00    +0.001 C 
ATOM     12  N   LIG    1       26.431 -28.075   8.718  0.00  0.00    -0.355 NA
ATOM     13  H   LIG    1       27.120 -27.345   8.827  0.00  0.00    +0.166 HD
ATOM     14  C   LIG    1       24.819 -28.008   5.359  0.00  0.00    +0.006 C 
ENDROOT
BRANCH   1  16
ATOM     15  C   LIG    1       25.798 -25.023   6.483  0.00  0.00    +0.009 C 
ATOM     16  C   LIG    1       26.524 -26.309   6.125  0.00  0.00    +0.034 C 
ENDBRANCH   1  16
BRANCH   8  17
ATOM     17  C   LIG    1       26.557 -27.760  11.807  0.00  0.00    +0.038 C 
ATOM     18  C   LIG    1       25.451 -27.734  12.862  0.00  0.00    +0.007 C 
ENDBRANCH   8  17
BRANCH   8  19
ATOM     19  C   LIG    1       28.146 -29.562  10.952  0.00  0.00    +0.161 C 
BRANCH  19  20
ATOM     20  C   LIG    1       28.871 -29.671  12.272  0.00  0.00    +0.308 C 
ATOM     21  O   LIG    1       30.050 -29.375  12.399  0.00  0.00    -0.251 OA
BRANCH  20  22
ATOM     22  O   LIG    1       28.155 -30.198  13.288  0.00  0.00    -0.480 OA
ATOM     23  H   LIG    1       28.359 -31.145  13.465  0.00  0.00    +0.295 HD
ENDBRANCH  20  22
ENDBRANCH  19  20
ENDBRANCH   8  19
TORSDOF 5
ENDMDL
MODEL 7
REMARK VINA RESULT:      -5.5      8.259     10.469
REMARK  Name = *****
REMARK                            x       y       z     vdW  Elec       q    Type
REMARK                         _______ _______ _______ _____ _____    ______ ____
ROOT
ATOM      1  C   LIG    1       25.620 -29.155  10.660  0.00  0.00    -0.024 C 
ATOM      2  C   LIG    1       25.262 -30.024   9.610  0.00  0.00    +0.050 C 
ATOM      3  C   LIG    1       24.112 -30.819   9.635  0.00  0.00    +0.004 C 
ATOM      4  C   LIG    1       24.114 -31.588   8.442  0.00  0.00    -0.014 C 
ATOM      5  C   LIG    1       23.185 -32.630   7.945  0.00  0.00    +0.065 C 
ATOM      6  C   LIG    1       23.354 -32.748   6.423  0.00  0.00    +0.166 C 
ATOM      7  O   LIG    1       24.740 -32.892   6.029  0.00  0.00    -0.366 OA
ATOM      8  C   LIG    1       25.626 -31.779   6.361  0.00  0.00    +0.119 C 
ATOM      9  C   LIG    1       25.224 -31.236   7.706  0.00  0.00    +0.053 C 
ATOM     10  C   LIG    1       23.249 -30.733  10.743  0.00  0.00    +0.010 C 
ATOM     11  C   LIG    1       23.560 -29.856  11.784  0.00  0.00    +0.001 C 
ATOM     12  N   LIG    1       25.908 -30.287   8.419  0.00  0.00    -0.355 NA
ATOM     13  H   LIG    1       26.769 -29.841   8.135  0.00  0.00    +0.166 HD
ATOM     14  C   LIG    1       24.722 -29.086  11.741  0.00  0.00    +0.006 C 
ENDROOT
BRANCH   1  16
ATOM     15  C   LIG    1       26.963 -27.404  11.873  0.00  0.00    +0.009 C 
ATOM     16  C   LIG    1       26.885 -28.334  10.675  0.00  0.00    +0.034 C 
ENDBRANCH   1  16
BRANCH   8  17
ATOM     17  C   LIG    1       27.069 -32.344   6.399  0.00  0.00    +0.038 C 
ATOM     18  C   LIG    1       27.269 -33.489   7.391  0.00  0.00    +0.007 C 
ENDBRANCH   8  17
BRANCH   8  19
ATOM     19  C   LIG    1       25.480 -30.686   5.288  0.00  0.00    +0.161 C 
BRANCH  19  20
ATOM     20  C   LIG    1       24.638 -29.500   5.692  0.00  0.00    +0.308 C 
ATOM     21  O   LIG    1       25.111 -28.515   6.240  0.00  0.00    -0.251 OA
BRANCH  20  22
ATOM     22  O   LIG    1       23.310 -29.630   5.485  0.00  0.00    -0.480 OA
ATOM     23  H   LIG    1       22.792 -28.829   5.729  0.00  0.00    +0.295 HD
ENDBRANCH  20  22
ENDBRANCH  19  20
ENDBRANCH   8  19
TORSDOF 5
ENDMDL
MODEL 8
REMARK VINA RESULT:      -5.5      8.831     11.241
REMARK  Name = *****
REMARK                            x       y       z     vdW  Elec       q    Type
REMARK                         _______ _______ _______ _____ _____    ______ ____
ROOT
ATOM      1  C   LIG    1       21.826 -29.125  12.557  0.00  0.00    -0.024 C 
ATOM      2  C   LIG    1       23.068 -28.511  12.811  0.00  0.00    +0.050 C 
ATOM      3  C   LIG    1       23.197 -27.169  13.183  0.00  0.00    +0.004 C 
ATOM      4  C   LIG    1       24.586 -26.903  13.301  0.00  0.00    -0.014 C 
ATOM      5  C   LIG    1       25.321 -25.656  13.617  0.00  0.00    +0.065 C 
ATOM      6  C   LIG    1       26.724 -26.031  14.118  0.00  0.00    +0.166 C 
ATOM      7  O   LIG    1       27.398 -26.960  13.235  0.00  0.00    -0.366 OA
ATOM      8  C   LIG    1       26.763 -28.265  13.062  0.00  0.00    +0.119 C 
ATOM      9  C   LIG    1       25.271 -28.068  13.037  0.00  0.00    +0.053 C 
ATOM     10  C   LIG    1       22.034 -26.394  13.341  0.00  0.00    +0.010 C 
ATOM     11  C   LIG    1       20.786 -26.983  13.129  0.00  0.00    +0.001 C 
ATOM     12  N   LIG    1       24.344 -29.035  12.746  0.00  0.00    -0.355 NA
ATOM     13  H   LIG    1       24.547 -29.995  12.506  0.00  0.00    +0.166 HD
ATOM     14  C   LIG    1       20.687 -28.319  12.744  0.00  0.00    +0.006 C 
ENDROOT
BRANCH   1  16
ATOM     15  C   LIG    1       21.739 -30.693  10.588  0.00  0.00    +0.009 C 
ATOM     16  C   LIG    1       21.674 -30.554  12.100  0.00  0.00    +0.034 C 
ENDBRANCH   1  16
BRANCH   8  17
ATOM     17  C   LIG    1       27.270 -28.842  11.717  0.00  0.00    +0.038 C 
ATOM     18  C   LIG    1       26.766 -28.093  10.483  0.00  0.00    +0.007 C 
ENDBRANCH   8  17
BRANCH   8  19
ATOM     19  C   LIG    1       27.152 -29.171  14.243  0.00  0.00    +0.161 C 
BRANCH  19  20
ATOM     20  C   LIG    1       28.617 -29.526  14.324  0.00  0.00    +0.308 C 
ATOM     21  O   LIG    1       29.010 -30.682  14.381  0.00  0.00    -0.251 OA
BRANCH  20  22
ATOM     22  O   LIG    1       29.466 -28.480  14.414  0.00  0.00    -0.480 OA
ATOM     23  H   LIG    1       30.071 -28.396  13.641  0.00  0.00    +0.295 HD
ENDBRANCH  20  22
ENDBRANCH  19  20
ENDBRANCH   8  19
TORSDOF 5
ENDMDL
MODEL 9
REMARK VINA RESULT:      -5.4      2.096      4.761
REMARK  Name = *****
REMARK                            x       y       z     vdW  Elec       q    Type
REMARK                         _______ _______ _______ _____ _____    ______ ____
ROOT
ATOM      1  C   LIG    1       24.631 -19.207   3.899  0.00  0.00    -0.024 C 
ATOM      2  C   LIG    1       25.486 -19.895   4.782  0.00  0.00    +0.050 C 
ATOM      3  C   LIG    1       26.811 -19.513   5.017  0.00  0.00    +0.004 C 
ATOM      4  C   LIG    1       27.363 -20.463   5.915  0.00  0.00    -0.014 C 
ATOM      5  C   LIG    1       28.726 -20.602   6.479  0.00  0.00    +0.065 C 
ATOM      6  C   LIG    1       28.641 -21.452   7.756  0.00  0.00    +0.166 C 
ATOM      7  O   LIG    1       27.908 -22.684   7.554  0.00  0.00    -0.366 OA
ATOM      8  C   LIG    1       26.505 -22.548   7.170  0.00  0.00    +0.119 C 
ATOM      9  C   LIG    1       26.380 -21.374   6.235  0.00  0.00    +0.053 C 
ATOM     10  C   LIG    1       27.315 -18.372   4.367  0.00  0.00    +0.010 C 
ATOM     11  C   LIG    1       26.481 -17.650   3.511  0.00  0.00    +0.001 C 
ATOM     12  N   LIG    1       25.249 -21.019   5.548  0.00  0.00    -0.355 NA
ATOM     13  H   LIG    1       24.363 -21.503   5.578  0.00  0.00    +0.166 HD
ATOM     14  C   LIG    1       25.169 -18.062   3.283  0.00  0.00    +0.006 C 
ENDROOT
BRANCH   1  16
ATOM     15  C   LIG    1       22.234 -19.222   4.669  0.00  0.00    +0.009 C 
ATOM     16  C   LIG    1       23.220 -19.639   3.591  0.00  0.00    +0.034 C 
ENDBRANCH   1  16
BRANCH   8  17
ATOM     17  C   LIG    1       26.097 -23.865   6.464  0.00  0.00    +0.038 C 
ATOM     18  C   LIG    1       24.650 -24.289   6.714  0.00  0.00    +0.007 C 
ENDBRANCH   8  17
BRANCH   8  19
ATOM     19  C   LIG    1       25.662 -22.304   8.433  0.00  0.00    +0.161 C 
BRANCH  19  20
ATOM     20  C   LIG    1       25.330 -20.858   8.714  0.00  0.00    +0.308 C 
ATOM     21  O   LIG    1       26.006 -20.162   9.457  0.00  0.00    -0.251 OA
BRANCH  20  22
ATOM     22  O   LIG    1       24.187 -20.404   8.157  0.00  0.00    -0.480 OA
ATOM     23  H   LIG    1       24.333 -19.759   7.427  0.00  0.00    +0.295 HD
ENDBRANCH  20  22
ENDBRANCH  19  20
ENDBRANCH   8  19
TORSDOF 5
ENDMDL
