MODEL 1
REMARK VINA RESULT:      -7.9      0.000      0.000
REMARK  Name = *****
REMARK                            x       y       z     vdW  Elec       q    Type
REMARK                         _______ _______ _______ _____ _____    ______ ____
ROOT
ATOM      1  C   LIG    1       29.868 -19.358   7.903  0.00  0.00    +0.133 C 
ATOM      2  C   LIG    1       29.075 -20.682   7.639  0.00  0.00    +0.013 C 
ATOM      3  C   LIG    1       30.008 -21.914   7.445  0.00  0.00    +0.015 C 
ATOM      4  C   LIG    1       28.393 -20.406   6.261  0.00  0.00    +0.002 C 
ATOM      5  C   LIG    1       26.958 -19.824   6.311  0.00  0.00    +0.004 C 
ATOM      6  C   LIG    1       26.026 -20.486   7.337  0.00  0.00    +0.069 C 
ATOM      7  C   LIG    1       26.712 -20.485   8.693  0.00  0.00    +0.138 C 
ATOM      8  O   LIG    1       26.086 -20.186   9.713  0.00  0.00    -0.297 OA
ATOM      9  C   LIG    1       25.339 -21.845   6.952  0.00  0.00    -0.001 C 
ATOM     10  C   LIG    1       24.114 -22.023   7.894  0.00  0.00    +0.016 C 
ATOM     11  C   LIG    1       24.899 -21.846   5.478  0.00  0.00    -0.060 C 
ATOM     12  C   LIG    1       24.131 -22.855   5.010  0.00  0.00    +0.046 C 
ATOM     13  C   LIG    1       24.904 -24.145   5.161  0.00  0.00    +0.156 C 
ATOM     14  O   LIG    1       24.818 -25.010   4.294  0.00  0.00    -0.293 OA
ATOM     15  C   LIG    1       25.639 -24.376   6.474  0.00  0.00    +0.080 C 
ATOM     16  C   LIG    1       25.833 -21.193   4.482  0.00  0.00    +0.032 C 
ATOM     17  C   LIG    1       26.241 -23.099   7.082  0.00  0.00    +0.019 C 
ATOM     18  C   LIG    1       26.272 -19.807   4.933  0.00  0.00    +0.009 C 
ATOM     19  C   LIG    1       29.363 -19.438   5.530  0.00  0.00    +0.007 C 
ATOM     20  C   LIG    1       28.121 -21.014   8.799  0.00  0.00    +0.084 C 
ATOM     21  C   LIG    1       30.449 -19.025   6.529  0.00  0.00    +0.043 C 
ENDROOT
BRANCH   1  22
ATOM     22  C   LIG    1       30.979 -19.490   8.986  0.00  0.00    +0.202 C 
ATOM     23  O   LIG    1       31.174 -20.543   9.596  0.00  0.00    -0.291 OA
BRANCH  22  24
ATOM     24  C   LIG    1       31.838 -18.247   9.242  0.00  0.00    +0.309 C 
BRANCH  24  25
ATOM     25  O   LIG    1       32.032 -17.911  10.613  0.00  0.00    -0.457 OA
BRANCH  25  27
ATOM     26  C   LIG    1       31.854 -16.253  12.263  0.00  0.00    +0.136 C 
ATOM     27  C   LIG    1       31.204 -16.959  11.111  0.00  0.00    +0.304 C 
ATOM     28  O   LIG    1       30.058 -16.744  10.731  0.00  0.00    -0.251 OA
ENDBRANCH  25  27
ENDBRANCH  24  25
ENDBRANCH  22  24
ENDBRANCH   1  22
BRANCH   1  29
ATOM     29  O   LIG    1       28.925 -18.338   8.239  0.00  0.00    -0.380 OA
ATOM     30  H   LIG    1       28.293 -18.692   8.892  0.00  0.00    +0.211 HD
ENDBRANCH   1  29
TORSDOF 5
ENDMDL
MODEL 2
REMARK VINA RESULT:      -6.2      9.133     12.533
REMARK  Name = *****
REMARK                            x       y       z     vdW  Elec       q    Type
REMARK                         _______ _______ _______ _____ _____    ______ ____
ROOT
ATOM      1  C   LIG    1       25.298 -31.973   9.835  0.00  0.00    +0.133 C 
ATOM      2  C   LIG    1       24.705 -30.685  10.502  0.00  0.00    +0.013 C 
ATOM      3  C   LIG    1       23.849 -29.837   9.516  0.00  0.00    +0.015 C 
ATOM      4  C   LIG    1       25.983 -29.848  10.832  0.00  0.00    +0.002 C 
ATOM      5  C   LIG    1       26.576 -30.035  12.250  0.00  0.00    +0.004 C 
ATOM      6  C   LIG    1       25.543 -30.054  13.388  0.00  0.00    +0.069 C 
ATOM      7  C   LIG    1       24.471 -31.078  13.056  0.00  0.00    +0.138 C 
ATOM      8  O   LIG    1       24.051 -31.850  13.922  0.00  0.00    -0.297 OA
ATOM      9  C   LIG    1       24.995 -28.681  13.919  0.00  0.00    -0.001 C 
ATOM     10  C   LIG    1       24.401 -28.942  15.334  0.00  0.00    +0.016 C 
ATOM     11  C   LIG    1       26.113 -27.626  13.984  0.00  0.00    -0.060 C 
ATOM     12  C   LIG    1       25.877 -26.438  14.584  0.00  0.00    +0.046 C 
ATOM     13  C   LIG    1       24.761 -25.744  13.836  0.00  0.00    +0.156 C 
ATOM     14  O   LIG    1       24.798 -24.527  13.681  0.00  0.00    -0.293 OA
ATOM     15  C   LIG    1       23.552 -26.581  13.440  0.00  0.00    +0.080 C 
ATOM     16  C   LIG    1       27.118 -27.620  12.851  0.00  0.00    +0.032 C 
ATOM     17  C   LIG    1       23.899 -28.025  13.043  0.00  0.00    +0.019 C 
ATOM     18  C   LIG    1       27.676 -29.009  12.576  0.00  0.00    +0.009 C 
ATOM     19  C   LIG    1       27.010 -30.254   9.739  0.00  0.00    +0.007 C 
ATOM     20  C   LIG    1       23.807 -31.029  11.703  0.00  0.00    +0.084 C 
ATOM     21  C   LIG    1       26.409 -31.418   8.944  0.00  0.00    +0.043 C 
ENDROOT
BRANCH   1  22
ATOM     22  C   LIG    1       24.260 -32.801   9.022  0.00  0.00    +0.202 C 
ATOM     23  O   LIG    1       23.338 -33.409   9.570  0.00  0.00    -0.291 OA
BRANCH  22  24
ATOM     24  C   LIG    1       24.427 -32.803   7.499  0.00  0.00    +0.309 C 
BRANCH  24  25
ATOM     25  O   LIG    1       23.497 -31.996   6.783  0.00  0.00    -0.457 OA
BRANCH  25  27
ATOM     26  C   LIG    1       25.320 -31.395   5.434  0.00  0.00    +0.136 C 
ATOM     27  C   LIG    1       24.028 -30.974   6.067  0.00  0.00    +0.304 C 
ATOM     28  O   LIG    1       23.566 -29.839   6.000  0.00  0.00    -0.251 OA
ENDBRANCH  25  27
ENDBRANCH  24  25
ENDBRANCH  22  24
ENDBRANCH   1  22
BRANCH   1  29
ATOM     29  O   LIG    1       25.909 -32.758  10.861  0.00  0.00    -0.380 OA
ATOM     30  H   LIG    1       25.213 -33.157  11.414  0.00  0.00    +0.211 HD
ENDBRANCH   1  29
TORSDOF 5
ENDMDL
MODEL 3
REMARK VINA RESULT:      -6.1      8.320     12.000
REMARK  Name = *****
REMARK                            x       y       z     vdW  Elec       q    Type
REMARK                         _______ _______ _______ _____ _____    ______ ____
ROOT
ATOM      1  C   LIG    1       25.284 -31.242   7.683  0.00  0.00    +0.133 C 
ATOM      2  C   LIG    1       25.208 -30.225   8.870  0.00  0.00    +0.013 C 
ATOM      3  C   LIG    1       26.125 -28.985   8.660  0.00  0.00    +0.015 C 
ATOM      4  C   LIG    1       25.808 -31.039  10.061  0.00  0.00    +0.002 C 
ATOM      5  C   LIG    1       24.794 -31.803  10.948  0.00  0.00    +0.004 C 
ATOM      6  C   LIG    1       23.532 -31.010  11.321  0.00  0.00    +0.069 C 
ATOM      7  C   LIG    1       22.907 -30.461  10.049  0.00  0.00    +0.138 C 
ATOM      8  O   LIG    1       21.687 -30.515   9.875  0.00  0.00    -0.297 OA
ATOM      9  C   LIG    1       23.620 -29.981  12.504  0.00  0.00    -0.001 C 
ATOM     10  C   LIG    1       22.166 -29.715  12.990  0.00  0.00    +0.016 C 
ATOM     11  C   LIG    1       24.487 -30.528  13.651  0.00  0.00    -0.060 C 
ATOM     12  C   LIG    1       24.534 -29.866  14.828  0.00  0.00    +0.046 C 
ATOM     13  C   LIG    1       25.096 -28.486  14.571  0.00  0.00    +0.156 C 
ATOM     14  O   LIG    1       25.849 -27.973  15.394  0.00  0.00    -0.293 OA
ATOM     15  C   LIG    1       24.571 -27.726  13.361  0.00  0.00    +0.080 C 
ATOM     16  C   LIG    1       25.729 -31.302  13.264  0.00  0.00    +0.032 C 
ATOM     17  C   LIG    1       24.272 -28.621  12.147  0.00  0.00    +0.019 C 
ATOM     18  C   LIG    1       25.433 -32.376  12.226  0.00  0.00    +0.009 C 
ATOM     19  C   LIG    1       26.817 -32.016   9.399  0.00  0.00    +0.007 C 
ATOM     20  C   LIG    1       23.776 -29.700   9.078  0.00  0.00    +0.084 C 
ATOM     21  C   LIG    1       26.650 -31.899   7.880  0.00  0.00    +0.043 C 
ENDROOT
BRANCH   1  22
ATOM     22  C   LIG    1       25.152 -30.587   6.276  0.00  0.00    +0.202 C 
ATOM     23  O   LIG    1       25.901 -30.886   5.344  0.00  0.00    -0.291 OA
BRANCH  22  24
ATOM     24  C   LIG    1       24.025 -29.564   6.100  0.00  0.00    +0.309 C 
BRANCH  24  25
ATOM     25  O   LIG    1       24.242 -28.587   5.087  0.00  0.00    -0.457 OA
BRANCH  25  27
ATOM     26  C   LIG    1       26.035 -27.075   5.015  0.00  0.00    +0.136 C 
ATOM     27  C   LIG    1       24.654 -27.368   5.518  0.00  0.00    +0.304 C 
ATOM     28  O   LIG    1       24.025 -26.632   6.272  0.00  0.00    -0.251 OA
ENDBRANCH  25  27
ENDBRANCH  24  25
ENDBRANCH  22  24
ENDBRANCH   1  22
BRANCH   1  29
ATOM     29  O   LIG    1       24.283 -32.241   7.893  0.00  0.00    -0.380 OA
ATOM     30  H   LIG    1       24.702 -33.037   8.268  0.00  0.00    +0.211 HD
ENDBRANCH   1  29
TORSDOF 5
ENDMDL
MODEL 4
REMARK VINA RESULT:      -6.0      9.904     12.350
REMARK  Name = *****
REMARK                            x       y       z     vdW  Elec       q    Type
REMARK                         _______ _______ _______ _____ _____    ______ ____
ROOT
ATOM      1  C   LIG    1       25.983 -31.020  10.028  0.00  0.00    +0.133 C 
ATOM      2  C   LIG    1       24.571 -30.484  10.440  0.00  0.00    +0.013 C 
ATOM      3  C   LIG    1       23.645 -30.225   9.215  0.00  0.00    +0.015 C 
ATOM      4  C   LIG    1       24.898 -29.091  11.067  0.00  0.00    +0.002 C 
ATOM      5  C   LIG    1       25.107 -29.062  12.601  0.00  0.00    +0.004 C 
ATOM      6  C   LIG    1       24.083 -29.874  13.410  0.00  0.00    +0.069 C 
ATOM      7  C   LIG    1       24.024 -31.285  12.848  0.00  0.00    +0.138 C 
ATOM      8  O   LIG    1       23.994 -32.260  13.602  0.00  0.00    -0.297 OA
ATOM      9  C   LIG    1       22.681 -29.227  13.701  0.00  0.00    -0.001 C 
ATOM     10  C   LIG    1       22.065 -29.992  14.907  0.00  0.00    +0.016 C 
ATOM     11  C   LIG    1       22.818 -27.728  14.017  0.00  0.00    -0.060 C 
ATOM     12  C   LIG    1       21.746 -27.040  14.469  0.00  0.00    +0.046 C 
ATOM     13  C   LIG    1       20.669 -27.093  13.409  0.00  0.00    +0.156 C 
ATOM     14  O   LIG    1       19.964 -26.109  13.209  0.00  0.00    -0.293 OA
ATOM     15  C   LIG    1       20.408 -28.435  12.737  0.00  0.00    +0.080 C 
ATOM     16  C   LIG    1       23.828 -26.945  13.207  0.00  0.00    +0.032 C 
ATOM     17  C   LIG    1       21.674 -29.279  12.524  0.00  0.00    +0.019 C 
ATOM     18  C   LIG    1       25.185 -27.633  13.166  0.00  0.00    +0.009 C 
ATOM     19  C   LIG    1       26.176 -28.617  10.322  0.00  0.00    +0.007 C 
ATOM     20  C   LIG    1       23.835 -31.473  11.363  0.00  0.00    +0.084 C 
ATOM     21  C   LIG    1       26.666 -29.779   9.451  0.00  0.00    +0.043 C 
ENDROOT
BRANCH   1  22
ATOM     22  C   LIG    1       25.944 -32.191   9.003  0.00  0.00    +0.202 C 
ATOM     23  O   LIG    1       25.617 -33.334   9.331  0.00  0.00    -0.291 OA
BRANCH  22  24
ATOM     24  C   LIG    1       26.310 -31.847   7.556  0.00  0.00    +0.309 C 
BRANCH  24  25
ATOM     25  O   LIG    1       25.420 -32.354   6.566  0.00  0.00    -0.457 OA
BRANCH  25  27
ATOM     26  C   LIG    1       25.266 -30.198   5.654  0.00  0.00    +0.136 C 
ATOM     27  C   LIG    1       24.550 -31.458   6.036  0.00  0.00    +0.304 C 
ATOM     28  O   LIG    1       23.337 -31.615   5.945  0.00  0.00    -0.251 OA
ENDBRANCH  25  27
ENDBRANCH  24  25
ENDBRANCH  22  24
ENDBRANCH   1  22
BRANCH   1  29
ATOM     29  O   LIG    1       26.680 -31.388  11.221  0.00  0.00    -0.380 OA
ATOM     30  H   LIG    1       27.473 -31.902  10.980  0.00  0.00    +0.211 HD
ENDBRANCH   1  29
TORSDOF 5
ENDMDL
MODEL 5
REMARK VINA RESULT:      -5.8      8.456     12.325
REMARK  Name = *****
REMARK                            x       y       z     vdW  Elec       q    Type
REMARK                         _______ _______ _______ _____ _____    ______ ____
ROOT
ATOM      1  C   LIG    1       24.794 -32.105   7.987  0.00  0.00    +0.133 C 
ATOM      2  C   LIG    1       25.923 -31.688   8.989  0.00  0.00    +0.013 C 
ATOM      3  C   LIG    1       27.081 -32.726   9.056  0.00  0.00    +0.015 C 
ATOM      4  C   LIG    1       25.192 -31.731  10.369  0.00  0.00    +0.002 C 
ATOM      5  C   LIG    1       24.577 -30.397  10.860  0.00  0.00    +0.004 C 
ATOM      6  C   LIG    1       25.474 -29.163  10.678  0.00  0.00    +0.069 C 
ATOM      7  C   LIG    1       25.936 -29.104   9.232  0.00  0.00    +0.138 C 
ATOM      8  O   LIG    1       25.938 -28.035   8.617  0.00  0.00    -0.297 OA
ATOM      9  C   LIG    1       26.605 -28.902  11.737  0.00  0.00    -0.001 C 
ATOM     10  C   LIG    1       27.001 -27.401  11.623  0.00  0.00    +0.016 C 
ATOM     11  C   LIG    1       26.119 -29.231  13.159  0.00  0.00    -0.060 C 
ATOM     12  C   LIG    1       26.887 -28.900  14.222  0.00  0.00    +0.046 C 
ATOM     13  C   LIG    1       28.200 -29.640  14.103  0.00  0.00    +0.156 C 
ATOM     14  O   LIG    1       28.744 -30.079  15.112  0.00  0.00    -0.293 OA
ATOM     15  C   LIG    1       28.871 -29.669  12.736  0.00  0.00    +0.080 C 
ATOM     16  C   LIG    1       25.240 -30.453  13.319  0.00  0.00    +0.032 C 
ATOM     17  C   LIG    1       27.884 -29.759  11.561  0.00  0.00    +0.019 C 
ATOM     18  C   LIG    1       24.092 -30.465  12.319  0.00  0.00    +0.009 C 
ATOM     19  C   LIG    1       24.099 -32.821  10.200  0.00  0.00    +0.007 C 
ATOM     20  C   LIG    1       26.549 -30.334   8.609  0.00  0.00    +0.084 C 
ATOM     21  C   LIG    1       24.080 -33.237   8.725  0.00  0.00    +0.043 C 
ENDROOT
BRANCH   1  22
ATOM     22  C   LIG    1       25.320 -32.561   6.594  0.00  0.00    +0.202 C 
ATOM     23  O   LIG    1       25.899 -33.637   6.435  0.00  0.00    -0.291 OA
BRANCH  22  24
ATOM     24  C   LIG    1       25.058 -31.612   5.419  0.00  0.00    +0.309 C 
BRANCH  24  25
ATOM     25  O   LIG    1       25.643 -30.318   5.539  0.00  0.00    -0.457 OA
BRANCH  25  27
ATOM     26  C   LIG    1       25.514 -28.002   5.188  0.00  0.00    +0.136 C 
ATOM     27  C   LIG    1       24.781 -29.272   5.495  0.00  0.00    +0.304 C 
ATOM     28  O   LIG    1       23.580 -29.331   5.741  0.00  0.00    -0.251 OA
ENDBRANCH  25  27
ENDBRANCH  24  25
ENDBRANCH  22  24
ENDBRANCH   1  22
BRANCH   1  29
ATOM     29  O   LIG    1       23.881 -31.012   7.872  0.00  0.00    -0.380 OA
ATOM     30  H   LIG    1       24.377 -30.206   7.639  0.00  0.00    +0.211 HD
ENDBRANCH   1  29
TORSDOF 5
ENDMDL
MODEL 6
REMARK VINA RESULT:      -5.8      9.953     13.005
REMARK  Name = *****
REMARK                            x       y       z     vdW  Elec       q    Type
REMARK                         _______ _______ _______ _____ _____    ______ ____
ROOT
ATOM      1  C   LIG    1       21.239 -31.003  13.224  0.00  0.00    +0.133 C 
ATOM      2  C   LIG    1       21.823 -30.707  11.801  0.00  0.00    +0.013 C 
ATOM      3  C   LIG    1       20.731 -30.702  10.692  0.00  0.00    +0.015 C 
ATOM      4  C   LIG    1       22.736 -31.947  11.537  0.00  0.00    +0.002 C 
ATOM      5  C   LIG    1       24.226 -31.797  11.932  0.00  0.00    +0.004 C 
ATOM      6  C   LIG    1       24.872 -30.462  11.530  0.00  0.00    +0.069 C 
ATOM      7  C   LIG    1       24.007 -29.325  12.047  0.00  0.00    +0.138 C 
ATOM      8  O   LIG    1       24.520 -28.339  12.582  0.00  0.00    -0.297 OA
ATOM      9  C   LIG    1       25.364 -30.289  10.048  0.00  0.00    -0.001 C 
ATOM     10  C   LIG    1       26.390 -29.119  10.039  0.00  0.00    +0.016 C 
ATOM     11  C   LIG    1       26.007 -31.583   9.522  0.00  0.00    -0.060 C 
ATOM     12  C   LIG    1       26.650 -31.575   8.333  0.00  0.00    +0.046 C 
ATOM     13  C   LIG    1       25.653 -31.200   7.260  0.00  0.00    +0.156 C 
ATOM     14  O   LIG    1       25.714 -31.739   6.159  0.00  0.00    -0.293 OA
ATOM     15  C   LIG    1       24.706 -30.043   7.551  0.00  0.00    +0.080 C 
ATOM     16  C   LIG    1       25.353 -32.888   9.925  0.00  0.00    +0.032 C 
ATOM     17  C   LIG    1       24.251 -29.969   9.018  0.00  0.00    +0.019 C 
ATOM     18  C   LIG    1       25.098 -32.960  11.424  0.00  0.00    +0.009 C 
ATOM     19  C   LIG    1       22.063 -33.103  12.326  0.00  0.00    +0.007 C 
ATOM     20  C   LIG    1       22.528 -29.339  11.750  0.00  0.00    +0.084 C 
ATOM     21  C   LIG    1       20.931 -32.499  13.163  0.00  0.00    +0.043 C 
ENDROOT
BRANCH   1  22
ATOM     22  C   LIG    1       19.977 -30.163  13.579  0.00  0.00    +0.202 C 
ATOM     23  O   LIG    1       18.839 -30.548  13.303  0.00  0.00    -0.291 OA
BRANCH  22  24
ATOM     24  C   LIG    1       20.219 -28.841  14.313  0.00  0.00    +0.309 C 
BRANCH  24  25
ATOM     25  O   LIG    1       19.102 -27.958  14.362  0.00  0.00    -0.457 OA
BRANCH  25  27
ATOM     26  C   LIG    1       20.672 -26.614  13.250  0.00  0.00    +0.136 C 
ATOM     27  C   LIG    1       19.260 -26.768  13.730  0.00  0.00    +0.304 C 
ATOM     28  O   LIG    1       18.400 -25.900  13.625  0.00  0.00    -0.251 OA
ENDBRANCH  25  27
ENDBRANCH  24  25
ENDBRANCH  22  24
ENDBRANCH   1  22
BRANCH   1  29
ATOM     29  O   LIG    1       22.285 -30.810  14.179  0.00  0.00    -0.380 OA
ATOM     30  H   LIG    1       21.890 -30.677  15.060  0.00  0.00    +0.211 HD
ENDBRANCH   1  29
TORSDOF 5
ENDMDL
MODEL 7
REMARK VINA RESULT:      -5.6      9.905     13.152
REMARK  Name = *****
REMARK                            x       y       z     vdW  Elec       q    Type
REMARK                         _______ _______ _______ _____ _____    ______ ____
ROOT
ATOM      1  C   LIG    1       24.894 -31.666   7.762  0.00  0.00    +0.133 C 
ATOM      2  C   LIG    1       24.843 -30.573   8.882  0.00  0.00    +0.013 C 
ATOM      3  C   LIG    1       25.717 -29.328   8.548  0.00  0.00    +0.015 C 
ATOM      4  C   LIG    1       25.517 -31.290  10.095  0.00  0.00    +0.002 C 
ATOM      5  C   LIG    1       24.565 -32.018  11.076  0.00  0.00    +0.004 C 
ATOM      6  C   LIG    1       23.299 -31.232  11.453  0.00  0.00    +0.069 C 
ATOM      7  C   LIG    1       22.605 -30.784  10.179  0.00  0.00    +0.138 C 
ATOM      8  O   LIG    1       21.380 -30.878  10.065  0.00  0.00    -0.297 OA
ATOM      9  C   LIG    1       23.413 -30.123  12.561  0.00  0.00    -0.001 C 
ATOM     10  C   LIG    1       21.975 -29.860  13.094  0.00  0.00    +0.016 C 
ATOM     11  C   LIG    1       24.344 -30.572  13.700  0.00  0.00    -0.060 C 
ATOM     12  C   LIG    1       24.425 -29.830  14.828  0.00  0.00    +0.046 C 
ATOM     13  C   LIG    1       24.939 -28.458  14.454  0.00  0.00    +0.156 C 
ATOM     14  O   LIG    1       25.713 -27.873  15.206  0.00  0.00    -0.293 OA
ATOM     15  C   LIG    1       24.340 -27.794  13.222  0.00  0.00    +0.080 C 
ATOM     16  C   LIG    1       25.588 -31.340  13.308  0.00  0.00    +0.032 C 
ATOM     17  C   LIG    1       24.011 -28.776  12.085  0.00  0.00    +0.019 C 
ATOM     18  C   LIG    1       25.275 -32.488  12.358  0.00  0.00    +0.009 C 
ATOM     19  C   LIG    1       26.522 -32.285   9.452  0.00  0.00    +0.007 C 
ATOM     20  C   LIG    1       23.409 -30.069   9.120  0.00  0.00    +0.084 C 
ATOM     21  C   LIG    1       26.285 -32.275   7.939  0.00  0.00    +0.043 C 
ENDROOT
BRANCH   1  22
ATOM     22  C   LIG    1       24.682 -31.110   6.323  0.00  0.00    +0.202 C 
ATOM     23  O   LIG    1       23.647 -30.525   5.995  0.00  0.00    -0.291 OA
BRANCH  22  24
ATOM     24  C   LIG    1       25.838 -31.304   5.336  0.00  0.00    +0.309 C 
BRANCH  24  25
ATOM     25  O   LIG    1       25.971 -32.619   4.805  0.00  0.00    -0.457 OA
BRANCH  25  27
ATOM     26  C   LIG    1       24.188 -33.793   3.832  0.00  0.00    +0.136 C 
ATOM     27  C   LIG    1       25.335 -32.850   3.629  0.00  0.00    +0.304 C 
ATOM     28  O   LIG    1       25.682 -32.414   2.536  0.00  0.00    -0.251 OA
ENDBRANCH  25  27
ENDBRANCH  24  25
ENDBRANCH  22  24
ENDBRANCH   1  22
BRANCH   1  29
ATOM     29  O   LIG    1       23.930 -32.672   8.083  0.00  0.00    -0.380 OA
ATOM     30  H   LIG    1       23.340 -32.335   8.782  0.00  0.00    +0.211 HD
ENDBRANCH   1  29
TORSDOF 5
ENDMDL
MODEL 8
REMARK VINA RESULT:      -5.6      9.399     12.564
REMARK  Name = *****
REMARK                            x       y       z     vdW  Elec       q    Type
REMARK                         _______ _______ _______ _____ _____    ______ ____
ROOT
ATOM      1  C   LIG    1       25.675 -31.250   9.270  0.00  0.00    +0.133 C 
ATOM      2  C   LIG    1       24.799 -30.619  10.403  0.00  0.00    +0.013 C 
ATOM      3  C   LIG    1       23.347 -30.305   9.937  0.00  0.00    +0.015 C 
ATOM      4  C   LIG    1       25.501 -29.247  10.659  0.00  0.00    +0.002 C 
ATOM      5  C   LIG    1       26.569 -29.222  11.782  0.00  0.00    +0.004 C 
ATOM      6  C   LIG    1       26.171 -29.959  13.070  0.00  0.00    +0.069 C 
ATOM      7  C   LIG    1       25.723 -31.366  12.711  0.00  0.00    +0.138 C 
ATOM      8  O   LIG    1       26.090 -32.332  13.384  0.00  0.00    -0.297 OA
ATOM      9  C   LIG    1       25.238 -29.218  14.095  0.00  0.00    -0.001 C 
ATOM     10  C   LIG    1       25.406 -29.932  15.467  0.00  0.00    +0.016 C 
ATOM     11  C   LIG    1       25.610 -27.729  14.206  0.00  0.00    -0.060 C 
ATOM     12  C   LIG    1       25.041 -26.968  15.167  0.00  0.00    +0.046 C 
ATOM     13  C   LIG    1       23.547 -26.955  14.936  0.00  0.00    +0.156 C 
ATOM     14  O   LIG    1       22.909 -25.928  15.142  0.00  0.00    -0.293 OA
ATOM     15  C   LIG    1       22.875 -28.281  14.604  0.00  0.00    +0.080 C 
ATOM     16  C   LIG    1       25.994 -27.020  12.925  0.00  0.00    +0.032 C 
ATOM     17  C   LIG    1       23.733 -29.210  13.729  0.00  0.00    +0.019 C 
ATOM     18  C   LIG    1       27.035 -27.798  12.131  0.00  0.00    +0.009 C 
ATOM     19  C   LIG    1       26.124 -28.864   9.289  0.00  0.00    +0.007 C 
ATOM     20  C   LIG    1       24.693 -31.550  11.624  0.00  0.00    +0.084 C 
ATOM     21  C   LIG    1       25.954 -30.062   8.349  0.00  0.00    +0.043 C 
ENDROOT
BRANCH   1  22
ATOM     22  C   LIG    1       24.985 -32.423   8.512  0.00  0.00    +0.202 C 
ATOM     23  O   LIG    1       24.802 -33.522   9.040  0.00  0.00    -0.291 OA
BRANCH  22  24
ATOM     24  C   LIG    1       24.519 -32.134   7.082  0.00  0.00    +0.309 C 
BRANCH  24  25
ATOM     25  O   LIG    1       25.251 -32.801   6.057  0.00  0.00    -0.457 OA
BRANCH  25  27
ATOM     26  C   LIG    1       26.427 -32.843   4.027  0.00  0.00    +0.136 C 
ATOM     27  C   LIG    1       25.699 -32.018   5.044  0.00  0.00    +0.304 C 
ATOM     28  O   LIG    1       25.593 -30.797   4.991  0.00  0.00    -0.251 OA
ENDBRANCH  25  27
ENDBRANCH  24  25
ENDBRANCH  22  24
ENDBRANCH   1  22
BRANCH   1  29
ATOM     29  O   LIG    1       26.918 -31.657   9.847  0.00  0.00    -0.380 OA
ATOM     30  H   LIG    1       27.578 -30.953   9.710  0.00  0.00    +0.211 HD
ENDBRANCH   1  29
TORSDOF 5
ENDMDL
MODEL 9
REMARK VINA RESULT:      -5.4      8.527     11.119
REMARK  Name = *****
REMARK                            x       y       z     vdW  Elec       q    Type
REMARK                         _______ _______ _______ _____ _____    ______ ____
ROOT
ATOM      1  C   LIG    1       23.986 -28.344  14.850  0.00  0.00    +0.133 C 
ATOM      2  C   LIG    1       23.816 -28.593  13.314  0.00  0.00    +0.013 C 
ATOM      3  C   LIG    1       22.462 -28.056  12.763  0.00  0.00    +0.015 C 
ATOM      4  C   LIG    1       23.759 -30.152  13.222  0.00  0.00    +0.002 C 
ATOM      5  C   LIG    1       25.105 -30.872  12.960  0.00  0.00    +0.004 C 
ATOM      6  C   LIG    1       25.988 -30.224  11.882  0.00  0.00    +0.069 C 
ATOM      7  C   LIG    1       26.160 -28.751  12.211  0.00  0.00    +0.138 C 
ATOM      8  O   LIG    1       27.265 -28.211  12.112  0.00  0.00    -0.297 OA
ATOM      9  C   LIG    1       25.664 -30.524  10.374  0.00  0.00    -0.001 C 
ATOM     10  C   LIG    1       26.945 -30.194   9.555  0.00  0.00    +0.016 C 
ATOM     11  C   LIG    1       25.253 -31.993  10.177  0.00  0.00    -0.060 C 
ATOM     12  C   LIG    1       25.111 -32.486   8.926  0.00  0.00    +0.046 C 
ATOM     13  C   LIG    1       24.018 -31.705   8.233  0.00  0.00    +0.156 C 
ATOM     14  O   LIG    1       23.246 -32.282   7.474  0.00  0.00    -0.293 OA
ATOM     15  C   LIG    1       24.025 -30.190   8.393  0.00  0.00    +0.080 C 
ATOM     16  C   LIG    1       24.380 -32.612  11.247  0.00  0.00    +0.032 C 
ATOM     17  C   LIG    1       24.483 -29.714   9.781  0.00  0.00    +0.019 C 
ATOM     18  C   LIG    1       24.930 -32.368  12.646  0.00  0.00    +0.009 C 
ATOM     19  C   LIG    1       23.139 -30.602  14.572  0.00  0.00    +0.007 C 
ATOM     20  C   LIG    1       24.936 -27.919  12.502  0.00  0.00    +0.084 C 
ATOM     21  C   LIG    1       23.034 -29.366  15.472  0.00  0.00    +0.043 C 
ENDROOT
BRANCH   1  22
ATOM     22  C   LIG    1       23.650 -26.890  15.298  0.00  0.00    +0.202 C 
ATOM     23  O   LIG    1       22.492 -26.521  15.500  0.00  0.00    -0.291 OA
BRANCH  22  24
ATOM     24  C   LIG    1       24.838 -25.944  15.499  0.00  0.00    +0.309 C 
BRANCH  24  25
ATOM     25  O   LIG    1       24.956 -24.900  14.537  0.00  0.00    -0.457 OA
BRANCH  25  27
ATOM     26  C   LIG    1       27.236 -25.246  14.103  0.00  0.00    +0.136 C 
ATOM     27  C   LIG    1       26.159 -24.276  14.484  0.00  0.00    +0.304 C 
ATOM     28  O   LIG    1       26.362 -23.102  14.776  0.00  0.00    -0.251 OA
ENDBRANCH  25  27
ENDBRANCH  24  25
ENDBRANCH  22  24
ENDBRANCH   1  22
BRANCH   1  29
ATOM     29  O   LIG    1       25.319 -28.710  15.212  0.00  0.00    -0.380 OA
ATOM     30  H   LIG    1       25.922 -28.480  14.481  0.00  0.00    +0.211 HD
ENDBRANCH   1  29
TORSDOF 5
ENDMDL
