MODEL 1
REMARK VINA RESULT:      -5.4      0.000      0.000
REMARK  Name = *****
REMARK                            x       y       z     vdW  Elec       q    Type
REMARK                         _______ _______ _______ _____ _____    ______ ____
ROOT
ATOM      1  C   LIG    1       25.518 -16.342   3.288  0.00  0.00    +0.264 C 
ENDROOT
BRANCH   1   2
ATOM      2  O   LIG    1       26.158 -17.628   3.259  0.00  0.00    -0.486 OA
BRANCH   2   4
ATOM      3  C   LIG    1       26.014 -19.702   4.671  0.00  0.00    +0.162 A 
ATOM      4  C   LIG    1       25.485 -18.681   3.851  0.00  0.00    +0.162 A 
ATOM      5  C   LIG    1       24.109 -18.690   3.563  0.00  0.00    +0.049 A 
ATOM      6  C   LIG    1       23.267 -19.680   4.077  0.00  0.00    +0.004 A 
ATOM      7  C   LIG    1       23.789 -20.673   4.895  0.00  0.00    +0.004 A 
ATOM      8  C   LIG    1       25.152 -20.683   5.189  0.00  0.00    +0.049 A 
BRANCH   3  10
ATOM      9  C   LIG    1       27.804 -20.172   6.197  0.00  0.00    +0.277 C 
ATOM     10  O   LIG    1       27.355 -19.695   4.938  0.00  0.00    -0.491 OA
ENDBRANCH   3  10
ENDBRANCH   2   4
ENDBRANCH   1   2
BRANCH   1  11
ATOM     11  C   LIG    1       26.555 -15.207   3.327  0.00  0.00    +0.189 C 
BRANCH  11  12
ATOM     12  O   LIG    1       26.656 -14.586   2.041  0.00  0.00    -0.385 OA
ATOM     13  H   LIG    1       26.231 -13.713   2.127  0.00  0.00    +0.210 HD
ENDBRANCH  11  12
BRANCH  11  14
ATOM     14  C   LIG    1       26.155 -14.132   4.351  0.00  0.00    +0.268 C 
BRANCH  14  15
ATOM     15  O   LIG    1       24.725 -14.077   4.457  0.00  0.00    -0.448 OA
BRANCH  15  16
ATOM     16  C   LIG    1       24.150 -12.927   4.025  0.00  0.00    +0.398 C 
ATOM     17  O   LIG    1       23.890 -11.939   4.678  0.00  0.00    -0.227 OA
ATOM     18  N   LIG    1       23.848 -13.062   2.709  0.00  0.00    -0.295 N 
ATOM     19  H   LIG    1       23.370 -12.308   2.239  0.00  0.00    +0.148 HD
ATOM     20  H   LIG    1       24.094 -13.908   2.226  0.00  0.00    +0.148 HD
ENDBRANCH  15  16
ENDBRANCH  14  15
ENDBRANCH  11  14
ENDBRANCH   1  11
TORSDOF 8
ENDMDL
MODEL 2
REMARK VINA RESULT:      -5.3      1.824      2.281
REMARK  Name = *****
REMARK                            x       y       z     vdW  Elec       q    Type
REMARK                         _______ _______ _______ _____ _____    ______ ____
ROOT
ATOM      1  C   LIG    1       26.295 -16.908   3.565  0.00  0.00    +0.264 C 
ENDROOT
BRANCH   1   2
ATOM      2  O   LIG    1       25.575 -18.006   2.984  0.00  0.00    -0.486 OA
BRANCH   2   4
ATOM      3  C   LIG    1       25.139 -19.770   4.720  0.00  0.00    +0.162 A 
ATOM      4  C   LIG    1       24.763 -18.744   3.826  0.00  0.00    +0.162 A 
ATOM      5  C   LIG    1       23.405 -18.392   3.734  0.00  0.00    +0.049 A 
ATOM      6  C   LIG    1       22.436 -19.031   4.512  0.00  0.00    +0.004 A 
ATOM      7  C   LIG    1       22.813 -20.029   5.401  0.00  0.00    +0.004 A 
ATOM      8  C   LIG    1       24.154 -20.394   5.503  0.00  0.00    +0.049 A 
BRANCH   3  10
ATOM      9  C   LIG    1       27.040 -20.323   6.075  0.00  0.00    +0.277 C 
ATOM     10  O   LIG    1       26.460 -20.117   4.796  0.00  0.00    -0.491 OA
ENDBRANCH   3  10
ENDBRANCH   2   4
ENDBRANCH   1   2
BRANCH   1  11
ATOM     11  C   LIG    1       25.735 -15.559   3.085  0.00  0.00    +0.189 C 
BRANCH  11  12
ATOM     12  O   LIG    1       24.856 -15.009   4.072  0.00  0.00    -0.385 OA
ATOM     13  H   LIG    1       24.101 -15.622   4.136  0.00  0.00    +0.210 HD
ENDBRANCH  11  12
BRANCH  11  14
ATOM     14  C   LIG    1       26.868 -14.552   2.832  0.00  0.00    +0.268 C 
BRANCH  14  15
ATOM     15  O   LIG    1       27.774 -14.557   3.946  0.00  0.00    -0.448 OA
BRANCH  15  16
ATOM     16  C   LIG    1       27.963 -13.359   4.552  0.00  0.00    +0.398 C 
ATOM     17  O   LIG    1       28.824 -12.538   4.316  0.00  0.00    -0.227 OA
ATOM     18  N   LIG    1       27.042 -13.222   5.538  0.00  0.00    -0.295 N 
ATOM     19  H   LIG    1       27.072 -12.400   6.123  0.00  0.00    +0.148 HD
ATOM     20  H   LIG    1       26.354 -13.940   5.680  0.00  0.00    +0.148 HD
ENDBRANCH  15  16
ENDBRANCH  14  15
ENDBRANCH  11  14
ENDBRANCH   1  11
TORSDOF 8
ENDMDL
MODEL 3
REMARK VINA RESULT:      -5.0      2.898      5.950
REMARK  Name = *****
REMARK                            x       y       z     vdW  Elec       q    Type
REMARK                         _______ _______ _______ _____ _____    ______ ____
ROOT
ATOM      1  C   LIG    1       25.126 -17.758   3.414  0.00  0.00    +0.264 C 
ENDROOT
BRANCH   1   2
ATOM      2  O   LIG    1       26.100 -16.715   3.254  0.00  0.00    -0.486 OA
BRANCH   2   4
ATOM      3  C   LIG    1       26.554 -14.312   3.832  0.00  0.00    +0.162 A 
ATOM      4  C   LIG    1       25.728 -15.439   3.636  0.00  0.00    +0.162 A 
ATOM      5  C   LIG    1       24.344 -15.308   3.849  0.00  0.00    +0.049 A 
ATOM      6  C   LIG    1       23.783 -14.090   4.240  0.00  0.00    +0.004 A 
ATOM      7  C   LIG    1       24.598 -12.979   4.416  0.00  0.00    +0.004 A 
ATOM      8  C   LIG    1       25.973 -13.091   4.213  0.00  0.00    +0.049 A 
BRANCH   3  10
ATOM      9  C   LIG    1       28.720 -13.291   3.689  0.00  0.00    +0.277 C 
ATOM     10  O   LIG    1       27.901 -14.448   3.636  0.00  0.00    -0.491 OA
ENDBRANCH   3  10
ENDBRANCH   2   4
ENDBRANCH   1   2
BRANCH   1  11
ATOM     11  C   LIG    1       25.793 -19.143   3.423  0.00  0.00    +0.189 C 
BRANCH  11  12
ATOM     12  O   LIG    1       26.724 -19.238   4.507  0.00  0.00    -0.385 OA
ATOM     13  H   LIG    1       27.550 -18.825   4.192  0.00  0.00    +0.210 HD
ENDBRANCH  11  12
BRANCH  11  14
ATOM     14  C   LIG    1       24.746 -20.257   3.589  0.00  0.00    +0.268 C 
BRANCH  14  15
ATOM     15  O   LIG    1       24.324 -20.319   4.960  0.00  0.00    -0.448 OA
BRANCH  15  16
ATOM     16  C   LIG    1       22.991 -20.187   5.168  0.00  0.00    +0.398 C 
ATOM     17  O   LIG    1       22.368 -19.162   5.347  0.00  0.00    -0.227 OA
ATOM     18  N   LIG    1       22.433 -21.423   5.200  0.00  0.00    -0.295 N 
ATOM     19  H   LIG    1       21.447 -21.507   5.394  0.00  0.00    +0.148 HD
ATOM     20  H   LIG    1       23.007 -22.232   5.042  0.00  0.00    +0.148 HD
ENDBRANCH  15  16
ENDBRANCH  14  15
ENDBRANCH  11  14
ENDBRANCH   1  11
TORSDOF 8
ENDMDL
MODEL 4
REMARK VINA RESULT:      -4.7      2.216      3.283
REMARK  Name = *****
REMARK                            x       y       z     vdW  Elec       q    Type
REMARK                         _______ _______ _______ _____ _____    ______ ____
ROOT
ATOM      1  C   LIG    1       26.095 -17.632   3.444  0.00  0.00    +0.264 C 
ENDROOT
BRANCH   1   2
ATOM      2  O   LIG    1       24.790 -18.172   3.182  0.00  0.00    -0.486 OA
BRANCH   2   4
ATOM      3  C   LIG    1       23.030 -19.361   4.525  0.00  0.00    +0.162 A 
ATOM      4  C   LIG    1       24.337 -19.167   4.028  0.00  0.00    +0.162 A 
ATOM      5  C   LIG    1       25.347 -20.066   4.414  0.00  0.00    +0.049 A 
ATOM      6  C   LIG    1       25.075 -21.139   5.267  0.00  0.00    +0.004 A 
ATOM      7  C   LIG    1       23.784 -21.335   5.741  0.00  0.00    +0.004 A 
ATOM      8  C   LIG    1       22.771 -20.451   5.371  0.00  0.00    +0.049 A 
BRANCH   3  10
ATOM      9  C   LIG    1       22.075 -17.168   4.704  0.00  0.00    +0.277 C 
ATOM     10  O   LIG    1       22.054 -18.476   4.156  0.00  0.00    -0.491 OA
ENDBRANCH   3  10
ENDBRANCH   2   4
ENDBRANCH   1   2
BRANCH   1  11
ATOM     11  C   LIG    1       26.128 -16.115   3.200  0.00  0.00    +0.189 C 
BRANCH  11  12
ATOM     12  O   LIG    1       24.981 -15.494   3.791  0.00  0.00    -0.385 OA
ATOM     13  H   LIG    1       24.756 -14.738   3.218  0.00  0.00    +0.210 HD
ENDBRANCH  11  12
BRANCH  11  14
ATOM     14  C   LIG    1       27.388 -15.486   3.817  0.00  0.00    +0.268 C 
BRANCH  14  15
ATOM     15  O   LIG    1       27.511 -14.125   3.375  0.00  0.00    -0.448 OA
BRANCH  15  16
ATOM     16  C   LIG    1       27.878 -13.232   4.327  0.00  0.00    +0.398 C 
ATOM     17  O   LIG    1       28.869 -12.533   4.343  0.00  0.00    -0.227 OA
ATOM     18  N   LIG    1       26.965 -13.269   5.330  0.00  0.00    -0.295 N 
ATOM     19  H   LIG    1       27.114 -12.694   6.145  0.00  0.00    +0.148 HD
ATOM     20  H   LIG    1       26.165 -13.871   5.253  0.00  0.00    +0.148 HD
ENDBRANCH  15  16
ENDBRANCH  14  15
ENDBRANCH  11  14
ENDBRANCH   1  11
TORSDOF 8
ENDMDL
MODEL 5
REMARK VINA RESULT:      -4.6      1.082      2.307
REMARK  Name = *****
REMARK                            x       y       z     vdW  Elec       q    Type
REMARK                         _______ _______ _______ _____ _____    ______ ____
ROOT
ATOM      1  C   LIG    1       25.419 -16.319   3.393  0.00  0.00    +0.264 C 
ENDROOT
BRANCH   1   2
ATOM      2  O   LIG    1       25.946 -17.598   3.006  0.00  0.00    -0.486 OA
BRANCH   2   4
ATOM      3  C   LIG    1       24.497 -19.317   4.128  0.00  0.00    +0.162 A 
ATOM      4  C   LIG    1       25.717 -18.660   3.862  0.00  0.00    +0.162 A 
ATOM      5  C   LIG    1       26.878 -19.093   4.527  0.00  0.00    +0.049 A 
ATOM      6  C   LIG    1       26.841 -20.158   5.430  0.00  0.00    +0.004 A 
ATOM      7  C   LIG    1       25.641 -20.812   5.677  0.00  0.00    +0.004 A 
ATOM      8  C   LIG    1       24.478 -20.394   5.031  0.00  0.00    +0.049 A 
BRANCH   3  10
ATOM      9  C   LIG    1       22.250 -18.488   4.267  0.00  0.00    +0.277 C 
ATOM     10  O   LIG    1       23.369 -18.883   3.488  0.00  0.00    -0.491 OA
ENDBRANCH   3  10
ENDBRANCH   2   4
ENDBRANCH   1   2
BRANCH   1  11
ATOM     11  C   LIG    1       26.513 -15.239   3.374  0.00  0.00    +0.189 C 
BRANCH  11  12
ATOM     12  O   LIG    1       26.618 -14.663   2.068  0.00  0.00    -0.385 OA
ATOM     13  H   LIG    1       26.219 -13.775   2.129  0.00  0.00    +0.210 HD
ENDBRANCH  11  12
BRANCH  11  14
ATOM     14  C   LIG    1       26.193 -14.114   4.372  0.00  0.00    +0.268 C 
BRANCH  14  15
ATOM     15  O   LIG    1       25.750 -12.949   3.658  0.00  0.00    -0.448 OA
BRANCH  15  16
ATOM     16  C   LIG    1       24.428 -12.669   3.760  0.00  0.00    +0.398 C 
ATOM     17  O   LIG    1       23.842 -12.201   4.713  0.00  0.00    -0.227 OA
ATOM     18  N   LIG    1       23.816 -13.048   2.610  0.00  0.00    -0.295 N 
ATOM     19  H   LIG    1       22.814 -12.951   2.536  0.00  0.00    +0.148 HD
ATOM     20  H   LIG    1       24.362 -13.428   1.857  0.00  0.00    +0.148 HD
ENDBRANCH  15  16
ENDBRANCH  14  15
ENDBRANCH  11  14
ENDBRANCH   1  11
TORSDOF 8
ENDMDL
MODEL 6
REMARK VINA RESULT:      -4.6      2.819      6.282
REMARK  Name = *****
REMARK                            x       y       z     vdW  Elec       q    Type
REMARK                         _______ _______ _______ _____ _____    ______ ____
ROOT
ATOM      1  C   LIG    1       24.948 -17.961   3.710  0.00  0.00    +0.264 C 
ENDROOT
BRANCH   1   2
ATOM      2  O   LIG    1       25.725 -17.021   2.951  0.00  0.00    -0.486 OA
BRANCH   2   4
ATOM      3  C   LIG    1       25.006 -14.822   3.933  0.00  0.00    +0.162 A 
ATOM      4  C   LIG    1       25.955 -15.784   3.524  0.00  0.00    +0.162 A 
ATOM      5  C   LIG    1       27.321 -15.498   3.692  0.00  0.00    +0.049 A 
ATOM      6  C   LIG    1       27.746 -14.293   4.258  0.00  0.00    +0.004 A 
ATOM      7  C   LIG    1       26.808 -13.357   4.673  0.00  0.00    +0.004 A 
ATOM      8  C   LIG    1       25.448 -13.621   4.511  0.00  0.00    +0.049 A 
BRANCH   3  10
ATOM      9  C   LIG    1       22.864 -15.303   4.901  0.00  0.00    +0.277 C 
ATOM     10  O   LIG    1       23.678 -15.100   3.757  0.00  0.00    -0.491 OA
ENDBRANCH   3  10
ENDBRANCH   2   4
ENDBRANCH   1   2
BRANCH   1  11
ATOM     11  C   LIG    1       25.390 -19.405   3.424  0.00  0.00    +0.189 C 
BRANCH  11  12
ATOM     12  O   LIG    1       26.362 -19.825   4.388  0.00  0.00    -0.385 OA
ATOM     13  H   LIG    1       25.858 -20.133   5.165  0.00  0.00    +0.210 HD
ENDBRANCH  11  12
BRANCH  11  14
ATOM     14  C   LIG    1       24.195 -20.370   3.493  0.00  0.00    +0.268 C 
BRANCH  14  15
ATOM     15  O   LIG    1       24.222 -21.082   4.739  0.00  0.00    -0.448 OA
BRANCH  15  16
ATOM     16  C   LIG    1       23.161 -20.873   5.556  0.00  0.00    +0.398 C 
ATOM     17  O   LIG    1       23.161 -20.356   6.653  0.00  0.00    -0.227 OA
ATOM     18  N   LIG    1       22.054 -21.394   4.968  0.00  0.00    -0.295 N 
ATOM     19  H   LIG    1       21.178 -21.364   5.467  0.00  0.00    +0.148 HD
ATOM     20  H   LIG    1       22.123 -21.807   4.055  0.00  0.00    +0.148 HD
ENDBRANCH  15  16
ENDBRANCH  14  15
ENDBRANCH  11  14
ENDBRANCH   1  11
TORSDOF 8
ENDMDL
MODEL 7
REMARK VINA RESULT:      -4.3      2.045      2.892
REMARK  Name = *****
REMARK                            x       y       z     vdW  Elec       q    Type
REMARK                         _______ _______ _______ _____ _____    ______ ____
ROOT
ATOM      1  C   LIG    1       23.498 -15.392   4.653  0.00  0.00    +0.264 C 
ENDROOT
BRANCH   1   2
ATOM      2  O   LIG    1       22.850 -16.416   3.882  0.00  0.00    -0.486 OA
BRANCH   2   4
ATOM      3  C   LIG    1       24.443 -18.353   3.730  0.00  0.00    +0.162 A 
ATOM      4  C   LIG    1       23.240 -17.722   4.113  0.00  0.00    +0.162 A 
ATOM      5  C   LIG    1       22.278 -18.471   4.813  0.00  0.00    +0.049 A 
ATOM      6  C   LIG    1       22.498 -19.812   5.139  0.00  0.00    +0.004 A 
ATOM      7  C   LIG    1       23.691 -20.424   4.774  0.00  0.00    +0.004 A 
ATOM      8  C   LIG    1       24.655 -19.698   4.075  0.00  0.00    +0.049 A 
BRANCH   3  10
ATOM      9  C   LIG    1       26.672 -17.477   3.584  0.00  0.00    +0.277 C 
ATOM     10  O   LIG    1       25.371 -17.623   3.038  0.00  0.00    -0.491 OA
ENDBRANCH   3  10
ENDBRANCH   2   4
ENDBRANCH   1   2
BRANCH   1  11
ATOM     11  C   LIG    1       24.317 -14.453   3.751  0.00  0.00    +0.189 C 
BRANCH  11  12
ATOM     12  O   LIG    1       23.460 -13.482   3.141  0.00  0.00    -0.385 OA
ATOM     13  H   LIG    1       23.786 -12.611   3.433  0.00  0.00    +0.210 HD
ENDBRANCH  11  12
BRANCH  11  14
ATOM     14  C   LIG    1       25.388 -13.708   4.563  0.00  0.00    +0.268 C 
BRANCH  14  15
ATOM     15  O   LIG    1       26.687 -14.228   4.238  0.00  0.00    -0.448 OA
BRANCH  15  16
ATOM     16  C   LIG    1       27.179 -13.860   3.030  0.00  0.00    +0.398 C 
ATOM     17  O   LIG    1       26.796 -14.215   1.935  0.00  0.00    -0.227 OA
ATOM     18  N   LIG    1       28.242 -13.041   3.228  0.00  0.00    -0.295 N 
ATOM     19  H   LIG    1       28.758 -12.710   2.426  0.00  0.00    +0.148 HD
ATOM     20  H   LIG    1       28.506 -12.785   4.163  0.00  0.00    +0.148 HD
ENDBRANCH  15  16
ENDBRANCH  14  15
ENDBRANCH  11  14
ENDBRANCH   1  11
TORSDOF 8
ENDMDL
MODEL 8
REMARK VINA RESULT:      -4.2      2.690      6.137
REMARK  Name = *****
REMARK                            x       y       z     vdW  Elec       q    Type
REMARK                         _______ _______ _______ _____ _____    ______ ____
ROOT
ATOM      1  C   LIG    1       25.597 -17.656   3.006  0.00  0.00    +0.264 C 
ENDROOT
BRANCH   1   2
ATOM      2  O   LIG    1       26.250 -16.598   3.724  0.00  0.00    -0.486 OA
BRANCH   2   4
ATOM      3  C   LIG    1       26.301 -14.133   3.237  0.00  0.00    +0.162 A 
ATOM      4  C   LIG    1       25.686 -15.338   3.641  0.00  0.00    +0.162 A 
ATOM      5  C   LIG    1       24.334 -15.311   4.024  0.00  0.00    +0.049 A 
ATOM      6  C   LIG    1       23.597 -14.124   4.003  0.00  0.00    +0.004 A 
ATOM      7  C   LIG    1       24.202 -12.944   3.590  0.00  0.00    +0.004 A 
ATOM      8  C   LIG    1       25.543 -12.950   3.210  0.00  0.00    +0.049 A 
BRANCH   3  10
ATOM      9  C   LIG    1       28.545 -13.371   3.606  0.00  0.00    +0.277 C 
ATOM     10  O   LIG    1       27.620 -14.162   2.877  0.00  0.00    -0.491 OA
ENDBRANCH   3  10
ENDBRANCH   2   4
ENDBRANCH   1   2
BRANCH   1  11
ATOM     11  C   LIG    1       24.812 -18.572   3.959  0.00  0.00    +0.189 C 
BRANCH  11  12
ATOM     12  O   LIG    1       23.431 -18.611   3.583  0.00  0.00    -0.385 OA
ATOM     13  H   LIG    1       23.005 -19.251   4.182  0.00  0.00    +0.210 HD
ENDBRANCH  11  12
BRANCH  11  14
ATOM     14  C   LIG    1       25.362 -20.008   3.920  0.00  0.00    +0.268 C 
BRANCH  14  15
ATOM     15  O   LIG    1       25.483 -20.513   5.258  0.00  0.00    -0.448 OA
BRANCH  15  16
ATOM     16  C   LIG    1       26.668 -20.270   5.870  0.00  0.00    +0.398 C 
ATOM     17  O   LIG    1       26.889 -20.218   7.062  0.00  0.00    -0.227 OA
ATOM     18  N   LIG    1       27.606 -20.031   4.919  0.00  0.00    -0.295 N 
ATOM     19  H   LIG    1       28.541 -19.785   5.208  0.00  0.00    +0.148 HD
ATOM     20  H   LIG    1       27.356 -20.092   3.948  0.00  0.00    +0.148 HD
ENDBRANCH  15  16
ENDBRANCH  14  15
ENDBRANCH  11  14
ENDBRANCH   1  11
TORSDOF 8
ENDMDL
MODEL 9
REMARK VINA RESULT:      -4.0      2.041      3.191
REMARK  Name = *****
REMARK                            x       y       z     vdW  Elec       q    Type
REMARK                         _______ _______ _______ _____ _____    ______ ____
ROOT
ATOM      1  C   LIG    1       24.964 -17.575   3.665  0.00  0.00    +0.264 C 
ENDROOT
BRANCH   1   2
ATOM      2  O   LIG    1       25.960 -18.603   3.555  0.00  0.00    -0.486 OA
BRANCH   2   4
ATOM      3  C   LIG    1       24.991 -20.473   4.926  0.00  0.00    +0.162 A 
ATOM      4  C   LIG    1       25.998 -19.555   4.557  0.00  0.00    +0.162 A 
ATOM      5  C   LIG    1       27.211 -19.561   5.268  0.00  0.00    +0.049 A 
ATOM      6  C   LIG    1       27.433 -20.458   6.316  0.00  0.00    +0.004 A 
ATOM      7  C   LIG    1       26.445 -21.369   6.665  0.00  0.00    +0.004 A 
ATOM      8  C   LIG    1       25.234 -21.375   5.974  0.00  0.00    +0.049 A 
BRANCH   3  10
ATOM      9  C   LIG    1       22.604 -20.238   4.958  0.00  0.00    +0.277 C 
ATOM     10  O   LIG    1       23.808 -20.454   4.239  0.00  0.00    -0.491 OA
ENDBRANCH   3  10
ENDBRANCH   2   4
ENDBRANCH   1   2
BRANCH   1  11
ATOM     11  C   LIG    1       25.519 -16.213   3.215  0.00  0.00    +0.189 C 
BRANCH  11  12
ATOM     12  O   LIG    1       24.741 -15.151   3.777  0.00  0.00    -0.385 OA
ATOM     13  H   LIG    1       25.146 -14.945   4.640  0.00  0.00    +0.210 HD
ENDBRANCH  11  12
BRANCH  11  14
ATOM     14  C   LIG    1       26.976 -16.036   3.669  0.00  0.00    +0.268 C 
BRANCH  14  15
ATOM     15  O   LIG    1       27.497 -14.805   3.145  0.00  0.00    -0.448 OA
BRANCH  15  16
ATOM     16  C   LIG    1       27.755 -13.841   4.062  0.00  0.00    +0.398 C 
ATOM     17  O   LIG    1       27.156 -13.622   5.094  0.00  0.00    -0.227 OA
ATOM     18  N   LIG    1       28.793 -13.088   3.618  0.00  0.00    -0.295 N 
ATOM     19  H   LIG    1       29.085 -12.292   4.165  0.00  0.00    +0.148 HD
ATOM     20  H   LIG    1       29.246 -13.325   2.754  0.00  0.00    +0.148 HD
ENDBRANCH  15  16
ENDBRANCH  14  15
ENDBRANCH  11  14
ENDBRANCH   1  11
TORSDOF 8
ENDMDL
