MODEL 1
REMARK VINA RESULT:      -5.7      0.000      0.000
REMARK  Name = *****
REMARK                            x       y       z     vdW  Elec       q    Type
REMARK                         _______ _______ _______ _____ _____    ______ ____
ROOT
ATOM      1  C   LIG    1       28.567 -19.366   5.747  0.00  0.00    +0.050 C 
ATOM      2  C   LIG    1       27.593 -20.079   6.662  0.00  0.00    +0.173 C 
ATOM      3  S   LIG    1       28.326 -21.367   7.697  0.00  0.00    -0.127 S 
ATOM      4  C   LIG    1       26.970 -22.523   7.344  0.00  0.00    +0.108 C 
ATOM      5  C   LIG    1       25.864 -21.658   6.718  0.00  0.00    +0.095 C 
ATOM      6  C   LIG    1       24.887 -22.479   5.821  0.00  0.00    +0.026 C 
ATOM      7  C   LIG    1       24.152 -21.471   4.916  0.00  0.00    +0.022 C 
ATOM      8  C   LIG    1       23.634 -20.327   5.807  0.00  0.00    +0.085 C 
ATOM      9  N   LIG    1       23.575 -20.730   7.239  0.00  0.00    -0.299 NA
ATOM     10  C   LIG    1       22.906 -22.042   7.323  0.00  0.00    +0.085 C 
ATOM     11  C   LIG    1       23.789 -23.139   6.695  0.00  0.00    +0.022 C 
ATOM     12  C   LIG    1       24.966 -20.914   7.761  0.00  0.00    +0.120 C 
ATOM     13  O   LIG    1       26.564 -20.696   5.883  0.00  0.00    -0.358 OA
ENDROOT
TORSDOF 0
ENDMDL
MODEL 2
REMARK VINA RESULT:      -5.6      2.128      3.044
REMARK  Name = *****
REMARK                            x       y       z     vdW  Elec       q    Type
REMARK                         _______ _______ _______ _____ _____    ______ ____
ROOT
ATOM      1  C   LIG    1       27.423 -19.201   5.016  0.00  0.00    +0.050 C 
ATOM      2  C   LIG    1       26.320 -20.214   4.790  0.00  0.00    +0.173 C 
ATOM      3  S   LIG    1       24.904 -19.600   3.850  0.00  0.00    -0.127 S 
ATOM      4  C   LIG    1       23.720 -20.365   4.996  0.00  0.00    +0.108 C 
ATOM      5  C   LIG    1       24.555 -21.349   5.831  0.00  0.00    +0.095 C 
ATOM      6  C   LIG    1       23.912 -21.665   7.217  0.00  0.00    +0.026 C 
ATOM      7  C   LIG    1       25.025 -22.254   8.106  0.00  0.00    +0.022 C 
ATOM      8  C   LIG    1       25.743 -23.352   7.299  0.00  0.00    +0.085 C 
ATOM      9  N   LIG    1       24.911 -23.826   6.158  0.00  0.00    -0.299 NA
ATOM     10  C   LIG    1       23.552 -24.100   6.660  0.00  0.00    +0.085 C 
ATOM     11  C   LIG    1       22.853 -22.788   7.070  0.00  0.00    +0.022 C 
ATOM     12  C   LIG    1       24.791 -22.734   5.142  0.00  0.00    +0.120 C 
ATOM     13  O   LIG    1       25.824 -20.675   6.050  0.00  0.00    -0.358 OA
ENDROOT
TORSDOF 0
ENDMDL
MODEL 3
REMARK VINA RESULT:      -5.5      2.514      3.618
REMARK  Name = *****
REMARK                            x       y       z     vdW  Elec       q    Type
REMARK                         _______ _______ _______ _____ _____    ______ ____
ROOT
ATOM      1  C   LIG    1       21.801 -18.786   4.181  0.00  0.00    +0.050 C 
ATOM      2  C   LIG    1       23.117 -19.246   4.774  0.00  0.00    +0.173 C 
ATOM      3  S   LIG    1       24.530 -19.151   3.652  0.00  0.00    -0.127 S 
ATOM      4  C   LIG    1       25.119 -20.800   4.139  0.00  0.00    +0.108 C 
ATOM      5  C   LIG    1       24.338 -21.138   5.419  0.00  0.00    +0.095 C 
ATOM      6  C   LIG    1       24.229 -22.673   5.675  0.00  0.00    +0.026 C 
ATOM      7  C   LIG    1       23.074 -22.882   6.674  0.00  0.00    +0.022 C 
ATOM      8  C   LIG    1       23.276 -21.899   7.842  0.00  0.00    +0.085 C 
ATOM      9  N   LIG    1       24.679 -21.403   7.906  0.00  0.00    -0.299 NA
ATOM     10  C   LIG    1       25.583 -22.563   7.802  0.00  0.00    +0.085 C 
ATOM     11  C   LIG    1       25.505 -23.185   6.393  0.00  0.00    +0.022 C 
ATOM     12  C   LIG    1       24.952 -20.528   6.723  0.00  0.00    +0.120 C 
ATOM     13  O   LIG    1       23.003 -20.608   5.198  0.00  0.00    -0.358 OA
ENDROOT
TORSDOF 0
ENDMDL
MODEL 4
REMARK VINA RESULT:      -5.4      2.187      3.335
REMARK  Name = *****
REMARK                            x       y       z     vdW  Elec       q    Type
REMARK                         _______ _______ _______ _____ _____    ______ ____
ROOT
ATOM      1  C   LIG    1       25.840 -24.320   6.966  0.00  0.00    +0.050 C 
ATOM      2  C   LIG    1       25.781 -22.832   6.684  0.00  0.00    +0.173 C 
ATOM      3  S   LIG    1       25.995 -21.775   8.133  0.00  0.00    -0.127 S 
ATOM      4  C   LIG    1       24.617 -20.698   7.641  0.00  0.00    +0.108 C 
ATOM      5  C   LIG    1       24.333 -21.063   6.175  0.00  0.00    +0.095 C 
ATOM      6  C   LIG    1       22.875 -20.723   5.737  0.00  0.00    +0.026 C 
ATOM      7  C   LIG    1       22.587 -21.535   4.459  0.00  0.00    +0.022 C 
ATOM      8  C   LIG    1       23.770 -21.333   3.494  0.00  0.00    +0.085 C 
ATOM      9  N   LIG    1       24.563 -20.121   3.844  0.00  0.00    -0.299 NA
ATOM     10  C   LIG    1       23.626 -19.001   4.051  0.00  0.00    +0.085 C 
ATOM     11  C   LIG    1       22.779 -19.232   5.318  0.00  0.00    +0.022 C 
ATOM     12  C   LIG    1       25.269 -20.348   5.143  0.00  0.00    +0.120 C 
ATOM     13  O   LIG    1       24.516 -22.503   6.102  0.00  0.00    -0.358 OA
ENDROOT
TORSDOF 0
ENDMDL
MODEL 5
REMARK VINA RESULT:      -5.4      2.395      3.695
REMARK  Name = *****
REMARK                            x       y       z     vdW  Elec       q    Type
REMARK                         _______ _______ _______ _____ _____    ______ ____
ROOT
ATOM      1  C   LIG    1       24.799 -19.028   3.399  0.00  0.00    +0.050 C 
ATOM      2  C   LIG    1       24.574 -20.183   4.354  0.00  0.00    +0.173 C 
ATOM      3  S   LIG    1       22.856 -20.429   4.857  0.00  0.00    -0.127 S 
ATOM      4  C   LIG    1       23.323 -20.659   6.598  0.00  0.00    +0.108 C 
ATOM      5  C   LIG    1       24.844 -20.878   6.574  0.00  0.00    +0.095 C 
ATOM      6  C   LIG    1       25.530 -20.513   7.927  0.00  0.00    +0.026 C 
ATOM      7  C   LIG    1       27.033 -20.328   7.635  0.00  0.00    +0.022 C 
ATOM      8  C   LIG    1       27.506 -21.539   6.810  0.00  0.00    +0.085 C 
ATOM      9  N   LIG    1       26.567 -22.688   6.933  0.00  0.00    -0.299 NA
ATOM     10  C   LIG    1       26.267 -22.887   8.363  0.00  0.00    +0.085 C 
ATOM     11  C   LIG    1       25.437 -21.708   8.911  0.00  0.00    +0.022 C 
ATOM     12  C   LIG    1       25.275 -22.349   6.258  0.00  0.00    +0.120 C 
ATOM     13  O   LIG    1       25.339 -19.979   5.545  0.00  0.00    -0.358 OA
ENDROOT
TORSDOF 0
ENDMDL
MODEL 6
REMARK VINA RESULT:      -5.4      2.122      3.148
REMARK  Name = *****
REMARK                            x       y       z     vdW  Elec       q    Type
REMARK                         _______ _______ _______ _____ _____    ______ ____
ROOT
ATOM      1  C   LIG    1       29.963 -18.608   9.026  0.00  0.00    +0.050 C 
ATOM      2  C   LIG    1       29.460 -19.641   8.039  0.00  0.00    +0.173 C 
ATOM      3  S   LIG    1       29.929 -19.342   6.320  0.00  0.00    -0.127 S 
ATOM      4  C   LIG    1       28.256 -19.720   5.722  0.00  0.00    +0.108 C 
ATOM      5  C   LIG    1       27.556 -20.403   6.907  0.00  0.00    +0.095 C 
ATOM      6  C   LIG    1       26.002 -20.280   6.846  0.00  0.00    +0.026 C 
ATOM      7  C   LIG    1       25.470 -20.571   8.264  0.00  0.00    +0.022 C 
ATOM      8  C   LIG    1       26.142 -21.863   8.764  0.00  0.00    +0.085 C 
ATOM      9  N   LIG    1       26.701 -22.663   7.639  0.00  0.00    -0.299 NA
ATOM     10  C   LIG    1       25.668 -22.769   6.591  0.00  0.00    +0.085 C 
ATOM     11  C   LIG    1       25.415 -21.394   5.941  0.00  0.00    +0.022 C 
ATOM     12  C   LIG    1       27.861 -21.932   7.038  0.00  0.00    +0.120 C 
ATOM     13  O   LIG    1       28.031 -19.695   8.085  0.00  0.00    -0.358 OA
ENDROOT
TORSDOF 0
ENDMDL
MODEL 7
REMARK VINA RESULT:      -5.4      3.955      5.146
REMARK  Name = *****
REMARK                            x       y       z     vdW  Elec       q    Type
REMARK                         _______ _______ _______ _____ _____    ______ ____
ROOT
ATOM      1  C   LIG    1       26.329 -22.049   7.552  0.00  0.00    +0.050 C 
ATOM      2  C   LIG    1       25.587 -22.968   6.603  0.00  0.00    +0.173 C 
ATOM      3  S   LIG    1       23.810 -22.666   6.485  0.00  0.00    -0.127 S 
ATOM      4  C   LIG    1       23.429 -24.440   6.582  0.00  0.00    +0.108 C 
ATOM      5  C   LIG    1       24.771 -25.148   6.338  0.00  0.00    +0.095 C 
ATOM      6  C   LIG    1       24.817 -26.585   6.942  0.00  0.00    +0.026 C 
ATOM      7  C   LIG    1       26.302 -26.984   7.045  0.00  0.00    +0.022 C 
ATOM      8  C   LIG    1       26.969 -26.674   5.692  0.00  0.00    +0.085 C 
ATOM      9  N   LIG    1       25.962 -26.540   4.602  0.00  0.00    -0.299 NA
ATOM     10  C   LIG    1       25.039 -27.687   4.682  0.00  0.00    +0.085 C 
ATOM     11  C   LIG    1       24.176 -27.598   5.957  0.00  0.00    +0.022 C 
ATOM     12  C   LIG    1       25.147 -25.305   4.827  0.00  0.00    +0.120 C 
ATOM     13  O   LIG    1       25.759 -24.327   7.017  0.00  0.00    -0.358 OA
ENDROOT
TORSDOF 0
ENDMDL
MODEL 8
REMARK VINA RESULT:      -5.1      2.651      4.022
REMARK  Name = *****
REMARK                            x       y       z     vdW  Elec       q    Type
REMARK                         _______ _______ _______ _____ _____    ______ ____
ROOT
ATOM      1  C   LIG    1       26.279 -26.631   7.230  0.00  0.00    +0.050 C 
ATOM      2  C   LIG    1       25.279 -25.567   6.824  0.00  0.00    +0.173 C 
ATOM      3  S   LIG    1       24.608 -25.752   5.157  0.00  0.00    -0.127 S 
ATOM      4  C   LIG    1       24.813 -23.983   4.800  0.00  0.00    +0.108 C 
ATOM      5  C   LIG    1       25.066 -23.329   6.168  0.00  0.00    +0.095 C 
ATOM      6  C   LIG    1       25.834 -21.976   6.060  0.00  0.00    +0.026 C 
ATOM      7  C   LIG    1       26.417 -21.676   7.455  0.00  0.00    +0.022 C 
ATOM      8  C   LIG    1       25.292 -21.866   8.489  0.00  0.00    +0.085 C 
ATOM      9  N   LIG    1       23.946 -21.816   7.851  0.00  0.00    -0.299 NA
ATOM     10  C   LIG    1       23.898 -20.635   6.969  0.00  0.00    +0.085 C 
ATOM     11  C   LIG    1       24.841 -20.822   5.763  0.00  0.00    +0.022 C 
ATOM     12  C   LIG    1       23.764 -23.020   6.981  0.00  0.00    +0.120 C 
ATOM     13  O   LIG    1       25.895 -24.278   6.892  0.00  0.00    -0.358 OA
ENDROOT
TORSDOF 0
ENDMDL
MODEL 9
REMARK VINA RESULT:      -5.0      2.642      3.855
REMARK  Name = *****
REMARK                            x       y       z     vdW  Elec       q    Type
REMARK                         _______ _______ _______ _____ _____    ______ ____
ROOT
ATOM      1  C   LIG    1       25.573 -25.878   4.089  0.00  0.00    +0.050 C 
ATOM      2  C   LIG    1       25.320 -25.126   5.380  0.00  0.00    +0.173 C 
ATOM      3  S   LIG    1       24.009 -25.814   6.415  0.00  0.00    -0.127 S 
ATOM      4  C   LIG    1       23.298 -24.172   6.731  0.00  0.00    +0.108 C 
ATOM      5  C   LIG    1       24.378 -23.178   6.277  0.00  0.00    +0.095 C 
ATOM      6  C   LIG    1       23.797 -21.780   5.903  0.00  0.00    +0.026 C 
ATOM      7  C   LIG    1       24.862 -21.062   5.050  0.00  0.00    +0.022 C 
ATOM      8  C   LIG    1       26.213 -21.187   5.778  0.00  0.00    +0.085 C 
ATOM      9  N   LIG    1       26.031 -21.518   7.219  0.00  0.00    -0.299 NA
ATOM     10  C   LIG    1       25.015 -20.608   7.777  0.00  0.00    +0.085 C 
ATOM     11  C   LIG    1       23.627 -20.915   7.179  0.00  0.00    +0.022 C 
ATOM     12  C   LIG    1       25.491 -22.908   7.345  0.00  0.00    +0.120 C 
ATOM     13  O   LIG    1       24.962 -23.773   5.086  0.00  0.00    -0.358 OA
ENDROOT
TORSDOF 0
ENDMDL
