MODEL 1
REMARK VINA RESULT:      -0.1      0.000      0.000
REMARK  Name = *****
REMARK                            x       y       z     vdW  Elec       q    Type
REMARK                         _______ _______ _______ _____ _____    ______ ____
ROOT
ATOM      1  C   LIG    1       24.818 -19.560   3.513  0.00  0.00    +0.112 C 
ATOM      2  C   LIG    1       23.314 -19.298   3.740  0.00  0.00    +0.101 C 
ATOM      3  N   LIG    1       23.062 -18.220   4.710  0.00  0.00    -0.297 NA
ATOM      4  C   LIG    1       21.644 -18.109   5.038  0.00  0.00    +0.105 C 
ATOM      5  C   LIG    1       23.674 -16.926   4.306  0.00  0.00    +0.091 C 
ATOM      6  C   LIG    1       25.126 -17.109   3.800  0.00  0.00    -0.025 C 
ATOM      7  C   LIG    1       25.876 -15.858   3.586  0.00  0.00    -0.011 C 
ATOM      8  C   LIG    1       25.058 -14.795   3.173  0.00  0.00    +0.011 C 
ATOM      9  C   LIG    1       23.650 -14.759   3.013  0.00  0.00    -0.020 C 
ATOM     10  C   LIG    1       23.333 -13.497   2.562  0.00  0.00    +0.090 C 
ATOM     11  N   LIG    1       24.513 -12.788   2.442  0.00  0.00    -0.349 NA
ATOM     12  C   LIG    1       24.620 -11.448   1.907  0.00  0.00    +0.149 C 
ATOM     13  C   LIG    1       25.583 -13.551   2.866  0.00  0.00    +0.050 C 
ATOM     14  C   LIG    1       26.954 -13.297   3.003  0.00  0.00    +0.026 C 
ATOM     15  C   LIG    1       27.767 -14.357   3.447  0.00  0.00    +0.003 C 
ATOM     16  C   LIG    1       27.244 -15.627   3.721  0.00  0.00    +0.009 C 
ATOM     17  C   LIG    1       22.840 -15.979   3.349  0.00  0.00    +0.060 C 
ATOM     18  C   LIG    1       25.641 -18.301   3.455  0.00  0.00    -0.007 C 
ENDROOT
BRANCH   1  21
ATOM     19  N   LIG    1       26.744 -20.327   4.876  0.00  0.00    -0.310 N 
ATOM     20  H   LIG    1       27.218 -19.547   4.421  0.00  0.00    +0.149 HD
ATOM     21  C   LIG    1       25.433 -20.526   4.526  0.00  0.00    +0.221 C 
ATOM     22  O   LIG    1       24.763 -21.460   4.997  0.00  0.00    -0.275 OA
BRANCH  19  23
ATOM     23  CA  LIG    1       27.529 -21.176   5.789  0.00  0.00    +0.098 C 
BRANCH  23  25
ATOM     24  C   LIG    1       25.298 -21.102   7.048  0.00  0.00    +0.005 C 
ATOM     25  C   LIG    1       26.751 -21.572   7.062  0.00  0.00    +0.021 C 
ENDBRANCH  23  25
BRANCH  23  26
ATOM     26  C   LIG    1       28.921 -20.573   6.111  0.00  0.00    +0.177 C 
BRANCH  26  27
ATOM     27  O   LIG    1       29.020 -19.164   5.956  0.00  0.00    -0.393 OA
ATOM     28  H   LIG    1       29.196 -18.772   6.839  0.00  0.00    +0.209 HD
ENDBRANCH  26  27
ENDBRANCH  23  26
ENDBRANCH  19  23
ENDBRANCH   1  21
TORSDOF 5
ENDMDL
MODEL 2
REMARK VINA RESULT:       0.9      1.362      1.687
REMARK  Name = *****
REMARK                            x       y       z     vdW  Elec       q    Type
REMARK                         _______ _______ _______ _____ _____    ______ ____
ROOT
ATOM      1  C   LIG    1       23.378 -19.008   3.276  0.00  0.00    +0.112 C 
ATOM      2  C   LIG    1       22.121 -18.162   3.571  0.00  0.00    +0.101 C 
ATOM      3  N   LIG    1       22.332 -17.182   4.648  0.00  0.00    -0.297 NA
ATOM      4  C   LIG    1       21.089 -16.519   5.027  0.00  0.00    +0.105 C 
ATOM      5  C   LIG    1       23.437 -16.231   4.355  0.00  0.00    +0.091 C 
ATOM      6  C   LIG    1       24.685 -16.955   3.790  0.00  0.00    -0.025 C 
ATOM      7  C   LIG    1       25.894 -16.121   3.677  0.00  0.00    -0.011 C 
ATOM      8  C   LIG    1       25.605 -14.777   3.394  0.00  0.00    +0.011 C 
ATOM      9  C   LIG    1       24.346 -14.137   3.280  0.00  0.00    -0.020 C 
ATOM     10  C   LIG    1       24.596 -12.820   2.962  0.00  0.00    +0.090 C 
ATOM     11  N   LIG    1       25.966 -12.664   2.877  0.00  0.00    -0.349 NA
ATOM     12  C   LIG    1       26.635 -11.447   2.473  0.00  0.00    +0.149 C 
ATOM     13  C   LIG    1       26.610 -13.844   3.194  0.00  0.00    +0.050 C 
ATOM     14  C   LIG    1       27.958 -14.205   3.314  0.00  0.00    +0.026 C 
ATOM     15  C   LIG    1       28.243 -15.546   3.630  0.00  0.00    +0.003 C 
ATOM     16  C   LIG    1       27.231 -16.500   3.794  0.00  0.00    +0.009 C 
ATOM     17  C   LIG    1       23.093 -14.931   3.518  0.00  0.00    +0.060 C 
ATOM     18  C   LIG    1       24.655 -18.212   3.316  0.00  0.00    -0.007 C 
ENDROOT
BRANCH   1  21
ATOM     19  N   LIG    1       24.636 -20.329   4.959  0.00  0.00    -0.310 N 
ATOM     20  H   LIG    1       25.305 -19.564   4.879  0.00  0.00    +0.149 HD
ATOM     21  C   LIG    1       23.516 -20.239   4.171  0.00  0.00    +0.221 C 
ATOM     22  O   LIG    1       22.645 -21.124   4.168  0.00  0.00    -0.275 OA
BRANCH  19  23
ATOM     23  CA  LIG    1       24.976 -21.455   5.845  0.00  0.00    +0.098 C 
BRANCH  23  25
ATOM     24  C   LIG    1       22.912 -20.534   7.054  0.00  0.00    +0.005 C 
ATOM     25  C   LIG    1       24.033 -21.571   7.062  0.00  0.00    +0.021 C 
ENDBRANCH  23  25
BRANCH  23  26
ATOM     26  C   LIG    1       26.471 -21.458   6.255  0.00  0.00    +0.177 C 
BRANCH  26  27
ATOM     27  O   LIG    1       27.294 -20.544   5.543  0.00  0.00    -0.393 OA
ATOM     28  H   LIG    1       27.456 -19.767   6.121  0.00  0.00    +0.209 HD
ENDBRANCH  26  27
ENDBRANCH  23  26
ENDBRANCH  19  23
ENDBRANCH   1  21
TORSDOF 5
ENDMDL
