MODEL 1
REMARK VINA RESULT:      -9.4      0.000      0.000
REMARK  Name = *****
REMARK                            x       y       z     vdW  Elec       q    Type
REMARK                         _______ _______ _______ _____ _____    ______ ____
ROOT
ATOM      1  N   LIG    1       26.278 -22.812   7.130  0.00  0.00    -0.230 N 
ATOM      2  H   LIG    1       27.046 -23.311   6.697  0.00  0.00    +0.173 HD
ATOM      3  C   LIG    1       26.452 -21.632   7.834  0.00  0.00    +0.260 C 
ATOM      4  O   LIG    1       25.621 -21.099   8.562  0.00  0.00    -0.269 OA
ENDROOT
BRANCH   1   7
ATOM      5  C   LIG    1       24.151 -21.964   5.463  0.00  0.00    +0.030 C 
ATOM      6  C   LIG    1       23.844 -22.922   6.617  0.00  0.00    +0.096 C 
ATOM      7  N   LIG    1       25.068 -23.512   7.236  0.00  0.00    -0.247 N 
ATOM      8  C   LIG    1       25.112 -24.848   6.761  0.00  0.00    +0.051 A 
ATOM      9  C   LIG    1       23.927 -25.237   6.132  0.00  0.00    -0.023 A 
ATOM     10  C   LIG    1       23.741 -26.523   5.647  0.00  0.00    +0.005 A 
ATOM     11  C   LIG    1       24.784 -27.438   5.789  0.00  0.00    +0.000 A 
ATOM     12  C   LIG    1       25.981 -27.059   6.413  0.00  0.00    +0.002 A 
ATOM     13  C   LIG    1       26.147 -25.761   6.910  0.00  0.00    +0.025 A 
ATOM     14  C   LIG    1       22.959 -24.103   6.132  0.00  0.00    +0.061 C 
ENDBRANCH   1   7
BRANCH   3  15
ATOM     15  C   LIG    1       27.788 -20.986   7.659  0.00  0.00    +0.040 A 
ATOM     16  C   LIG    1       28.901 -21.390   8.410  0.00  0.00    +0.043 A 
ATOM     17  C   LIG    1       30.144 -20.747   8.245  0.00  0.00    +0.124 A 
ATOM     18  C   LIG    1       30.283 -19.719   7.312  0.00  0.00    +0.067 A 
ATOM     19 CL   LIG    1       31.752 -18.855   7.035  0.00  0.00    -0.082 Cl
ATOM     20  C   LIG    1       29.177 -19.346   6.536  0.00  0.00    +0.022 A 
ATOM     21  C   LIG    1       27.938 -19.974   6.706  0.00  0.00    +0.014 A 
BRANCH  17  22
ATOM     22  S   LIG    1       31.476 -21.258   9.286  0.00  0.00    +0.057 S 
ATOM     23  O   LIG    1       30.923 -21.939  10.435  0.00  0.00    -0.153 OA
ATOM     24  O   LIG    1       32.411 -20.164   9.432  0.00  0.00    -0.153 OA
BRANCH  22  25
ATOM     25  N   LIG    1       32.251 -22.456   8.411  0.00  0.00    -0.203 NA
ATOM     26  H   LIG    1       31.563 -23.048   7.943  0.00  0.00    +0.144 HD
ATOM     27  H   LIG    1       32.879 -22.975   9.029  0.00  0.00    +0.144 HD
ENDBRANCH  22  25
ENDBRANCH  17  22
ENDBRANCH   3  15
TORSDOF 4
ENDMDL
MODEL 2
REMARK VINA RESULT:      -9.0      1.919      1.978
REMARK  Name = *****
REMARK                            x       y       z     vdW  Elec       q    Type
REMARK                         _______ _______ _______ _____ _____    ______ ____
ROOT
ATOM      1  N   LIG    1       26.281 -22.004   7.403  0.00  0.00    -0.230 N 
ATOM      2  H   LIG    1       26.932 -22.398   6.733  0.00  0.00    +0.173 HD
ATOM      3  C   LIG    1       26.646 -21.034   8.321  0.00  0.00    +0.260 C 
ATOM      4  O   LIG    1       25.985 -20.676   9.290  0.00  0.00    -0.269 OA
ENDROOT
BRANCH   1   7
ATOM      5  C   LIG    1       24.061 -21.009   5.952  0.00  0.00    +0.030 C 
ATOM      6  C   LIG    1       23.814 -22.030   7.066  0.00  0.00    +0.096 C 
ATOM      7  N   LIG    1       25.064 -22.683   7.555  0.00  0.00    -0.247 N 
ATOM      8  C   LIG    1       25.039 -23.988   7.000  0.00  0.00    +0.051 A 
ATOM      9  C   LIG    1       23.801 -24.312   6.438  0.00  0.00    -0.023 A 
ATOM     10  C   LIG    1       23.547 -25.561   5.892  0.00  0.00    +0.005 A 
ATOM     11  C   LIG    1       24.574 -26.505   5.900  0.00  0.00    +0.000 A 
ATOM     12  C   LIG    1       25.823 -26.191   6.455  0.00  0.00    +0.002 A 
ATOM     13  C   LIG    1       26.058 -24.930   7.016  0.00  0.00    +0.025 A 
ATOM     14  C   LIG    1       22.866 -23.159   6.578  0.00  0.00    +0.061 C 
ENDBRANCH   1   7
BRANCH   3  15
ATOM     15  C   LIG    1       27.972 -20.393   8.066  0.00  0.00    +0.040 A 
ATOM     16  C   LIG    1       28.544 -19.501   8.984  0.00  0.00    +0.043 A 
ATOM     17  C   LIG    1       29.783 -18.890   8.707  0.00  0.00    +0.124 A 
ATOM     18  C   LIG    1       30.463 -19.187   7.526  0.00  0.00    +0.067 A 
ATOM     19 CL   LIG    1       31.977 -18.490   7.079  0.00  0.00    -0.082 Cl
ATOM     20  C   LIG    1       29.905 -20.110   6.629  0.00  0.00    +0.022 A 
ATOM     21  C   LIG    1       28.668 -20.710   6.896  0.00  0.00    +0.014 A 
BRANCH  17  22
ATOM     22  S   LIG    1       30.396 -17.716   9.875  0.00  0.00    +0.057 S 
ATOM     23  O   LIG    1       29.727 -17.934  11.138  0.00  0.00    -0.153 OA
ATOM     24  O   LIG    1       30.439 -16.409   9.257  0.00  0.00    -0.153 OA
BRANCH  22  25
ATOM     25  N   LIG    1       31.980 -18.187  10.144  0.00  0.00    -0.203 NA
ATOM     26  H   LIG    1       32.046 -19.206  10.146  0.00  0.00    +0.144 HD
ATOM     27  H   LIG    1       32.320 -17.757  11.007  0.00  0.00    +0.144 HD
ENDBRANCH  22  25
ENDBRANCH  17  22
ENDBRANCH   3  15
TORSDOF 4
ENDMDL
MODEL 3
REMARK VINA RESULT:      -8.9      2.548      3.929
REMARK  Name = *****
REMARK                            x       y       z     vdW  Elec       q    Type
REMARK                         _______ _______ _______ _____ _____    ______ ____
ROOT
ATOM      1  N   LIG    1       26.026 -20.722   5.955  0.00  0.00    -0.230 N 
ATOM      2  H   LIG    1       26.241 -19.791   5.618  0.00  0.00    +0.173 HD
ATOM      3  C   LIG    1       26.972 -21.540   6.550  0.00  0.00    +0.260 C 
ATOM      4  O   LIG    1       26.845 -22.739   6.776  0.00  0.00    -0.269 OA
ENDROOT
BRANCH   1   7
ATOM      5  C   LIG    1       24.242 -21.581   7.980  0.00  0.00    +0.030 C 
ATOM      6  C   LIG    1       23.970 -22.002   6.533  0.00  0.00    +0.096 C 
ATOM      7  N   LIG    1       24.802 -21.263   5.538  0.00  0.00    -0.247 N 
ATOM      8  C   LIG    1       23.916 -20.333   4.936  0.00  0.00    +0.051 A 
ATOM      9  C   LIG    1       22.578 -20.580   5.252  0.00  0.00    -0.023 A 
ATOM     10  C   LIG    1       21.546 -19.821   4.720  0.00  0.00    +0.005 A 
ATOM     11  C   LIG    1       21.873 -18.776   3.857  0.00  0.00    +0.000 A 
ATOM     12  C   LIG    1       23.213 -18.513   3.537  0.00  0.00    +0.002 A 
ATOM     13  C   LIG    1       24.241 -19.298   4.071  0.00  0.00    +0.025 A 
ATOM     14  C   LIG    1       22.483 -21.760   6.159  0.00  0.00    +0.061 C 
ENDBRANCH   1   7
BRANCH   3  15
ATOM     15  C   LIG    1       28.243 -20.856   6.934  0.00  0.00    +0.040 A 
ATOM     16  C   LIG    1       29.166 -21.456   7.802  0.00  0.00    +0.043 A 
ATOM     17  C   LIG    1       30.345 -20.778   8.170  0.00  0.00    +0.124 A 
ATOM     18  C   LIG    1       30.616 -19.511   7.652  0.00  0.00    +0.067 A 
ATOM     19 CL   LIG    1       32.019 -18.586   8.043  0.00  0.00    -0.082 Cl
ATOM     20  C   LIG    1       29.709 -18.932   6.754  0.00  0.00    +0.022 A 
ATOM     21  C   LIG    1       28.531 -19.598   6.396  0.00  0.00    +0.014 A 
BRANCH  17  22
ATOM     22  S   LIG    1       31.416 -21.568   9.331  0.00  0.00    +0.057 S 
ATOM     23  O   LIG    1       30.612 -22.096  10.410  0.00  0.00    -0.153 OA
ATOM     24  O   LIG    1       32.554 -20.711   9.585  0.00  0.00    -0.153 OA
BRANCH  22  25
ATOM     25  N   LIG    1       31.984 -22.917   8.520  0.00  0.00    -0.203 NA
ATOM     26  H   LIG    1       31.238 -23.607   8.423  0.00  0.00    +0.144 HD
ATOM     27  H   LIG    1       32.811 -23.279   9.001  0.00  0.00    +0.144 HD
ENDBRANCH  22  25
ENDBRANCH  17  22
ENDBRANCH   3  15
TORSDOF 4
ENDMDL
MODEL 4
REMARK VINA RESULT:      -8.7      5.504      8.158
REMARK  Name = *****
REMARK                            x       y       z     vdW  Elec       q    Type
REMARK                         _______ _______ _______ _____ _____    ______ ____
ROOT
ATOM      1  N   LIG    1       25.187 -25.008   6.858  0.00  0.00    -0.230 N 
ATOM      2  H   LIG    1       25.021 -24.955   7.856  0.00  0.00    +0.173 HD
ATOM      3  C   LIG    1       25.726 -26.128   6.246  0.00  0.00    +0.260 C 
ATOM      4  O   LIG    1       26.156 -26.183   5.099  0.00  0.00    -0.269 OA
ENDROOT
BRANCH   1   7
ATOM      5  C   LIG    1       22.665 -23.724   6.753  0.00  0.00    +0.030 C 
ATOM      6  C   LIG    1       23.774 -23.246   5.812  0.00  0.00    +0.096 C 
ATOM      7  N   LIG    1       25.118 -23.798   6.155  0.00  0.00    -0.247 N 
ATOM      8  C   LIG    1       25.814 -22.719   6.758  0.00  0.00    +0.051 A 
ATOM      9  C   LIG    1       25.160 -21.496   6.598  0.00  0.00    -0.023 A 
ATOM     10  C   LIG    1       25.701 -20.307   7.064  0.00  0.00    +0.005 A 
ATOM     11  C   LIG    1       26.929 -20.355   7.722  0.00  0.00    +0.000 A 
ATOM     12  C   LIG    1       27.594 -21.578   7.896  0.00  0.00    +0.002 A 
ATOM     13  C   LIG    1       27.041 -22.766   7.406  0.00  0.00    +0.025 A 
ATOM     14  C   LIG    1       23.891 -21.697   5.841  0.00  0.00    +0.061 C 
ENDBRANCH   1   7
BRANCH   3  15
ATOM     15  C   LIG    1       25.765 -27.353   7.100  0.00  0.00    +0.040 A 
ATOM     16  C   LIG    1       25.121 -28.537   6.714  0.00  0.00    +0.043 A 
ATOM     17  C   LIG    1       25.150 -29.671   7.550  0.00  0.00    +0.124 A 
ATOM     18  C   LIG    1       25.843 -29.631   8.760  0.00  0.00    +0.067 A 
ATOM     19 CL   LIG    1       25.934 -30.953   9.866  0.00  0.00    -0.082 Cl
ATOM     20  C   LIG    1       26.518 -28.458   9.124  0.00  0.00    +0.022 A 
ATOM     21  C   LIG    1       26.481 -27.326   8.301  0.00  0.00    +0.014 A 
BRANCH  17  22
ATOM     22  S   LIG    1       24.245 -31.095   7.030  0.00  0.00    +0.057 S 
ATOM     23  O   LIG    1       23.244 -31.393   8.029  0.00  0.00    -0.153 OA
ATOM     24  O   LIG    1       25.173 -32.103   6.565  0.00  0.00    -0.153 OA
BRANCH  22  25
ATOM     25  N   LIG    1       23.377 -30.572   5.698  0.00  0.00    -0.203 NA
ATOM     26  H   LIG    1       22.532 -30.086   6.000  0.00  0.00    +0.144 HD
ATOM     27  H   LIG    1       23.189 -31.366   5.082  0.00  0.00    +0.144 HD
ENDBRANCH  22  25
ENDBRANCH  17  22
ENDBRANCH   3  15
TORSDOF 4
ENDMDL
MODEL 5
REMARK VINA RESULT:      -8.7      5.057      7.508
REMARK  Name = *****
REMARK                            x       y       z     vdW  Elec       q    Type
REMARK                         _______ _______ _______ _____ _____    ______ ____
ROOT
ATOM      1  N   LIG    1       24.542 -24.793   6.405  0.00  0.00    -0.230 N 
ATOM      2  H   LIG    1       24.341 -24.975   7.382  0.00  0.00    +0.173 HD
ATOM      3  C   LIG    1       25.036 -25.763   5.548  0.00  0.00    +0.260 C 
ATOM      4  O   LIG    1       25.505 -25.565   4.432  0.00  0.00    -0.269 OA
ENDROOT
BRANCH   1   7
ATOM      5  C   LIG    1       22.168 -23.295   6.785  0.00  0.00    +0.030 C 
ATOM      6  C   LIG    1       23.280 -22.704   5.912  0.00  0.00    +0.096 C 
ATOM      7  N   LIG    1       24.571 -23.446   6.020  0.00  0.00    -0.247 N 
ATOM      8  C   LIG    1       25.404 -22.618   6.816  0.00  0.00    +0.051 A 
ATOM      9  C   LIG    1       24.877 -21.338   7.000  0.00  0.00    -0.023 A 
ATOM     10  C   LIG    1       25.562 -20.356   7.700  0.00  0.00    +0.005 A 
ATOM     11  C   LIG    1       26.806 -20.678   8.242  0.00  0.00    +0.000 A 
ATOM     12  C   LIG    1       27.344 -21.962   8.070  0.00  0.00    +0.002 A 
ATOM     13  C   LIG    1       26.646 -22.937   7.347  0.00  0.00    +0.025 A 
ATOM     14  C   LIG    1       23.562 -21.229   6.305  0.00  0.00    +0.061 C 
ENDBRANCH   1   7
BRANCH   3  15
ATOM     15  C   LIG    1       24.970 -27.160   6.075  0.00  0.00    +0.040 A 
ATOM     16  C   LIG    1       25.440 -27.483   7.355  0.00  0.00    +0.043 A 
ATOM     17  C   LIG    1       25.391 -28.813   7.819  0.00  0.00    +0.124 A 
ATOM     18  C   LIG    1       24.850 -29.816   7.013  0.00  0.00    +0.067 A 
ATOM     19 CL   LIG    1       24.751 -31.477   7.472  0.00  0.00    -0.082 Cl
ATOM     20  C   LIG    1       24.346 -29.481   5.749  0.00  0.00    +0.022 A 
ATOM     21  C   LIG    1       24.405 -28.162   5.282  0.00  0.00    +0.014 A 
BRANCH  17  22
ATOM     22  S   LIG    1       26.077 -29.152   9.410  0.00  0.00    +0.057 S 
ATOM     23  O   LIG    1       25.083 -29.840  10.201  0.00  0.00    -0.153 OA
ATOM     24  O   LIG    1       26.746 -27.966   9.900  0.00  0.00    -0.153 OA
BRANCH  22  25
ATOM     25  N   LIG    1       27.260 -30.300   9.116  0.00  0.00    -0.203 NA
ATOM     26  H   LIG    1       27.309 -30.958   9.895  0.00  0.00    +0.144 HD
ATOM     27  H   LIG    1       28.147 -29.831   8.924  0.00  0.00    +0.144 HD
ENDBRANCH  22  25
ENDBRANCH  17  22
ENDBRANCH   3  15
TORSDOF 4
ENDMDL
MODEL 6
REMARK VINA RESULT:      -8.6      3.789      5.814
REMARK  Name = *****
REMARK                            x       y       z     vdW  Elec       q    Type
REMARK                         _______ _______ _______ _____ _____    ______ ____
ROOT
ATOM      1  N   LIG    1       25.765 -27.016   7.860  0.00  0.00    -0.230 N 
ATOM      2  H   LIG    1       25.024 -26.838   8.527  0.00  0.00    +0.173 HD
ATOM      3  C   LIG    1       26.041 -26.166   6.801  0.00  0.00    +0.260 C 
ATOM      4  O   LIG    1       26.761 -26.423   5.842  0.00  0.00    -0.269 OA
ENDROOT
BRANCH   1   7
ATOM      5  C   LIG    1       26.354 -28.124  10.399  0.00  0.00    +0.030 C 
ATOM      6  C   LIG    1       26.924 -28.802   9.150  0.00  0.00    +0.096 C 
ATOM      7  N   LIG    1       26.318 -28.303   7.880  0.00  0.00    -0.247 N 
ATOM      8  C   LIG    1       25.439 -29.335   7.463  0.00  0.00    +0.051 A 
ATOM      9  C   LIG    1       25.617 -30.520   8.180  0.00  0.00    -0.023 A 
ATOM     10  C   LIG    1       24.895 -31.669   7.891  0.00  0.00    +0.005 A 
ATOM     11  C   LIG    1       23.959 -31.617   6.858  0.00  0.00    +0.000 A 
ATOM     12  C   LIG    1       23.765 -30.431   6.135  0.00  0.00    +0.002 A 
ATOM     13  C   LIG    1       24.513 -29.285   6.430  0.00  0.00    +0.025 A 
ATOM     14  C   LIG    1       26.687 -30.336   9.201  0.00  0.00    +0.061 C 
ENDBRANCH   1   7
BRANCH   3  15
ATOM     15  C   LIG    1       25.380 -24.829   6.880  0.00  0.00    +0.040 A 
ATOM     16  C   LIG    1       26.082 -23.687   7.289  0.00  0.00    +0.043 A 
ATOM     17  C   LIG    1       25.429 -22.442   7.381  0.00  0.00    +0.124 A 
ATOM     18  C   LIG    1       24.080 -22.331   7.040  0.00  0.00    +0.067 A 
ATOM     19 CL   LIG    1       23.178 -20.862   7.127  0.00  0.00    -0.082 Cl
ATOM     20  C   LIG    1       23.393 -23.468   6.594  0.00  0.00    +0.022 A 
ATOM     21  C   LIG    1       24.036 -24.709   6.513  0.00  0.00    +0.014 A 
BRANCH  17  22
ATOM     22  S   LIG    1       26.362 -21.069   7.984  0.00  0.00    +0.057 S 
ATOM     23  O   LIG    1       25.857 -20.708   9.288  0.00  0.00    -0.153 OA
ATOM     24  O   LIG    1       26.500 -20.089   6.928  0.00  0.00    -0.153 OA
BRANCH  22  25
ATOM     25  N   LIG    1       27.886 -21.699   8.275  0.00  0.00    -0.203 NA
ATOM     26  H   LIG    1       27.875 -22.712   8.148  0.00  0.00    +0.144 HD
ATOM     27  H   LIG    1       28.201 -21.409   9.203  0.00  0.00    +0.144 HD
ENDBRANCH  22  25
ENDBRANCH  17  22
ENDBRANCH   3  15
TORSDOF 4
ENDMDL
MODEL 7
REMARK VINA RESULT:      -8.5      3.850      8.198
REMARK  Name = *****
REMARK                            x       y       z     vdW  Elec       q    Type
REMARK                         _______ _______ _______ _____ _____    ______ ____
ROOT
ATOM      1  N   LIG    1       29.013 -19.935   8.240  0.00  0.00    -0.230 N 
ATOM      2  H   LIG    1       28.334 -19.273   8.598  0.00  0.00    +0.173 HD
ATOM      3  C   LIG    1       28.674 -21.223   7.857  0.00  0.00    +0.260 C 
ATOM      4  O   LIG    1       29.461 -22.135   7.629  0.00  0.00    -0.269 OA
ENDROOT
BRANCH   1   7
ATOM      5  C   LIG    1       30.358 -18.818   6.011  0.00  0.00    +0.030 C 
ATOM      6  C   LIG    1       31.186 -19.295   7.208  0.00  0.00    +0.096 C 
ATOM      7  N   LIG    1       30.361 -19.594   8.415  0.00  0.00    -0.247 N 
ATOM      8  C   LIG    1       30.589 -18.504   9.294  0.00  0.00    +0.051 A 
ATOM      9  C   LIG    1       31.653 -17.696   8.888  0.00  0.00    -0.023 A 
ATOM     10  C   LIG    1       32.077 -16.609   9.638  0.00  0.00    +0.005 A 
ATOM     11  C   LIG    1       31.400 -16.321  10.824  0.00  0.00    +0.000 A 
ATOM     12  C   LIG    1       30.326 -17.121  11.239  0.00  0.00    +0.002 A 
ATOM     13  C   LIG    1       29.920 -18.223  10.478  0.00  0.00    +0.025 A 
ATOM     14  C   LIG    1       32.230 -18.221   7.618  0.00  0.00    +0.061 C 
ENDBRANCH   1   7
BRANCH   3  15
ATOM     15  C   LIG    1       27.207 -21.473   7.721  0.00  0.00    +0.040 A 
ATOM     16  C   LIG    1       26.714 -22.680   7.207  0.00  0.00    +0.043 A 
ATOM     17  C   LIG    1       25.327 -22.881   7.064  0.00  0.00    +0.124 A 
ATOM     18  C   LIG    1       24.431 -21.886   7.457  0.00  0.00    +0.067 A 
ATOM     19 CL   LIG    1       22.715 -22.019   7.317  0.00  0.00    -0.082 Cl
ATOM     20  C   LIG    1       24.928 -20.697   8.007  0.00  0.00    +0.022 A 
ATOM     21  C   LIG    1       26.306 -20.489   8.139  0.00  0.00    +0.014 A 
BRANCH  17  22
ATOM     22  S   LIG    1       24.789 -24.396   6.333  0.00  0.00    +0.057 S 
ATOM     23  O   LIG    1       23.415 -24.628   6.716  0.00  0.00    -0.153 OA
ATOM     24  O   LIG    1       25.809 -25.404   6.527  0.00  0.00    -0.153 OA
BRANCH  22  25
ATOM     25  N   LIG    1       24.726 -24.066   4.693  0.00  0.00    -0.203 NA
ATOM     26  H   LIG    1       23.869 -23.557   4.472  0.00  0.00    +0.144 HD
ATOM     27  H   LIG    1       24.828 -24.937   4.168  0.00  0.00    +0.144 HD
ENDBRANCH  22  25
ENDBRANCH  17  22
ENDBRANCH   3  15
TORSDOF 4
ENDMDL
MODEL 8
REMARK VINA RESULT:      -8.3      4.464      8.407
REMARK  Name = *****
REMARK                            x       y       z     vdW  Elec       q    Type
REMARK                         _______ _______ _______ _____ _____    ______ ____
ROOT
ATOM      1  N   LIG    1       28.774 -19.588   7.842  0.00  0.00    -0.230 N 
ATOM      2  H   LIG    1       28.181 -18.810   8.109  0.00  0.00    +0.173 HD
ATOM      3  C   LIG    1       28.269 -20.791   7.378  0.00  0.00    +0.260 C 
ATOM      4  O   LIG    1       28.900 -21.834   7.250  0.00  0.00    -0.269 OA
ENDROOT
BRANCH   1   7
ATOM      5  C   LIG    1       30.642 -18.825   5.853  0.00  0.00    +0.030 C 
ATOM      6  C   LIG    1       31.165 -19.408   7.170  0.00  0.00    +0.096 C 
ATOM      7  N   LIG    1       30.118 -19.502   8.230  0.00  0.00    -0.247 N 
ATOM      8  C   LIG    1       30.410 -18.444   9.129  0.00  0.00    +0.051 A 
ATOM      9  C   LIG    1       31.661 -17.866   8.896  0.00  0.00    -0.023 A 
ATOM     10  C   LIG    1       32.163 -16.853   9.699  0.00  0.00    +0.005 A 
ATOM     11  C   LIG    1       31.377 -16.401  10.759  0.00  0.00    +0.000 A 
ATOM     12  C   LIG    1       30.117 -16.968  11.000  0.00  0.00    +0.002 A 
ATOM     13  C   LIG    1       29.631 -18.000  10.189  0.00  0.00    +0.025 A 
ATOM     14  C   LIG    1       32.318 -18.537   7.738  0.00  0.00    +0.061 C 
ENDBRANCH   1   7
BRANCH   3  15
ATOM     15  C   LIG    1       26.820 -20.765   7.013  0.00  0.00    +0.040 A 
ATOM     16  C   LIG    1       26.389 -20.325   5.754  0.00  0.00    +0.043 A 
ATOM     17  C   LIG    1       25.015 -20.285   5.444  0.00  0.00    +0.124 A 
ATOM     18  C   LIG    1       24.072 -20.708   6.382  0.00  0.00    +0.067 A 
ATOM     19 CL   LIG    1       22.367 -20.691   6.115  0.00  0.00    -0.082 Cl
ATOM     20  C   LIG    1       24.511 -21.184   7.625  0.00  0.00    +0.022 A 
ATOM     21  C   LIG    1       25.874 -21.214   7.940  0.00  0.00    +0.014 A 
BRANCH  17  22
ATOM     22  S   LIG    1       24.549 -19.641   3.867  0.00  0.00    +0.057 S 
ATOM     23  O   LIG    1       23.502 -18.665   4.062  0.00  0.00    -0.153 OA
ATOM     24  O   LIG    1       24.400 -20.735   2.933  0.00  0.00    -0.153 OA
BRANCH  22  25
ATOM     25  N   LIG    1       25.878 -18.749   3.374  0.00  0.00    -0.203 NA
ATOM     26  H   LIG    1       25.576 -17.956   2.807  0.00  0.00    +0.144 HD
ATOM     27  H   LIG    1       26.539 -19.364   2.894  0.00  0.00    +0.144 HD
ENDBRANCH  22  25
ENDBRANCH  17  22
ENDBRANCH   3  15
TORSDOF 4
ENDMDL
MODEL 9
REMARK VINA RESULT:      -7.9      3.332      4.417
REMARK  Name = *****
REMARK                            x       y       z     vdW  Elec       q    Type
REMARK                         _______ _______ _______ _____ _____    ______ ____
ROOT
ATOM      1  N   LIG    1       26.828 -20.269   6.580  0.00  0.00    -0.230 N 
ATOM      2  H   LIG    1       26.916 -19.336   6.193  0.00  0.00    +0.173 HD
ATOM      3  C   LIG    1       27.885 -20.933   7.181  0.00  0.00    +0.260 C 
ATOM      4  O   LIG    1       27.915 -22.126   7.466  0.00  0.00    -0.269 OA
ENDROOT
BRANCH   1   7
ATOM      5  C   LIG    1       24.978 -20.822   8.651  0.00  0.00    +0.030 C 
ATOM      6  C   LIG    1       24.827 -21.555   7.315  0.00  0.00    +0.096 C 
ATOM      7  N   LIG    1       25.672 -20.978   6.228  0.00  0.00    -0.247 N 
ATOM      8  C   LIG    1       24.767 -20.265   5.399  0.00  0.00    +0.051 A 
ATOM      9  C   LIG    1       23.430 -20.543   5.695  0.00  0.00    -0.023 A 
ATOM     10  C   LIG    1       22.387 -19.994   4.965  0.00  0.00    +0.005 A 
ATOM     11  C   LIG    1       22.700 -19.129   3.916  0.00  0.00    +0.000 A 
ATOM     12  C   LIG    1       24.038 -18.837   3.613  0.00  0.00    +0.002 A 
ATOM     13  C   LIG    1       25.079 -19.412   4.351  0.00  0.00    +0.025 A 
ATOM     14  C   LIG    1       23.354 -21.512   6.826  0.00  0.00    +0.061 C 
ENDBRANCH   1   7
BRANCH   3  15
ATOM     15  C   LIG    1       29.070 -20.078   7.491  0.00  0.00    +0.040 A 
ATOM     16  C   LIG    1       29.191 -19.411   8.718  0.00  0.00    +0.043 A 
ATOM     17  C   LIG    1       30.306 -18.588   8.976  0.00  0.00    +0.124 A 
ATOM     18  C   LIG    1       31.312 -18.451   8.019  0.00  0.00    +0.067 A 
ATOM     19 CL   LIG    1       32.712 -17.463   8.222  0.00  0.00    -0.082 Cl
ATOM     20  C   LIG    1       31.205 -19.151   6.810  0.00  0.00    +0.022 A 
ATOM     21  C   LIG    1       30.093 -19.959   6.546  0.00  0.00    +0.014 A 
BRANCH  17  22
ATOM     22  S   LIG    1       30.344 -17.719  10.513  0.00  0.00    +0.057 S 
ATOM     23  O   LIG    1       31.596 -18.010  11.173  0.00  0.00    -0.153 OA
ATOM     24  O   LIG    1       29.076 -17.890  11.187  0.00  0.00    -0.153 OA
BRANCH  22  25
ATOM     25  N   LIG    1       30.457 -16.107  10.074  0.00  0.00    -0.203 NA
ATOM     26  H   LIG    1       31.011 -15.595  10.762  0.00  0.00    +0.144 HD
ATOM     27  H   LIG    1       29.517 -15.725   9.945  0.00  0.00    +0.144 HD
ENDBRANCH  22  25
ENDBRANCH  17  22
ENDBRANCH   3  15
TORSDOF 4
ENDMDL
