MODEL 1
REMARK VINA RESULT:      -3.8      0.000      0.000
REMARK  Name = *****
REMARK                            x       y       z     vdW  Elec       q    Type
REMARK                         _______ _______ _______ _____ _____    ______ ____
ROOT
ATOM      1  C   LIG    1       25.377 -13.836   3.784  0.00  0.00    +0.129 C 
ATOM      2  C   LIG    1       26.374 -14.440   2.788  0.00  0.00    +0.236 C 
ATOM      3  O   LIG    1       26.940 -13.807   1.899  0.00  0.00    -0.274 OA
ATOM      4  N   LIG    1       26.655 -15.768   2.954  0.00  0.00    -0.239 N 
ATOM      5  H   LIG    1       27.332 -16.147   2.305  0.00  0.00    +0.159 HD
ATOM      6  C   LIG    1       25.739 -16.669   3.397  0.00  0.00    +0.312 C 
ATOM      7  O   LIG    1       25.825 -17.858   3.117  0.00  0.00    -0.252 OA
ATOM      8  N   LIG    1       24.670 -16.174   4.078  0.00  0.00    -0.239 N 
ATOM      9  H   LIG    1       23.944 -16.847   4.283  0.00  0.00    +0.159 HD
ATOM     10  C   LIG    1       24.279 -14.862   4.071  0.00  0.00    +0.236 C 
ATOM     11  O   LIG    1       23.121 -14.577   4.363  0.00  0.00    -0.274 OA
ENDROOT
BRANCH   1  12
ATOM     12  C   LIG    1       24.816 -12.480   3.226  0.00  0.00    +0.007 C 
ATOM     13  C   LIG    1       23.828 -11.750   4.149  0.00  0.00    +0.009 C 
ATOM     14  C   LIG    1       24.181 -12.621   1.833  0.00  0.00    +0.009 C 
ENDBRANCH   1  12
BRANCH   1  15
ATOM     15  C   LIG    1       26.140 -13.669   5.137  0.00  0.00    +0.052 C 
BRANCH  15  17
ATOM     16  C   LIG    1       28.316 -12.440   4.886  0.00  0.00    +0.004 C 
ATOM     17  C   LIG    1       27.639 -13.588   5.015  0.00  0.00    -0.033 C 
ENDBRANCH  15  17
ENDBRANCH   1  15
TORSDOF 3
ENDMDL
MODEL 2
REMARK VINA RESULT:      -3.7      2.114      3.955
REMARK  Name = *****
REMARK                            x       y       z     vdW  Elec       q    Type
REMARK                         _______ _______ _______ _____ _____    ______ ____
ROOT
ATOM      1  C   LIG    1       25.810 -14.082   4.112  0.00  0.00    +0.129 C 
ATOM      2  C   LIG    1       26.039 -13.172   5.325  0.00  0.00    +0.236 C 
ATOM      3  O   LIG    1       25.145 -12.737   6.047  0.00  0.00    -0.274 OA
ATOM      4  N   LIG    1       27.342 -12.875   5.611  0.00  0.00    -0.239 N 
ATOM      5  H   LIG    1       27.480 -12.293   6.427  0.00  0.00    +0.159 HD
ATOM      6  C   LIG    1       28.298 -12.731   4.655  0.00  0.00    +0.312 C 
ATOM      7  O   LIG    1       29.293 -12.044   4.844  0.00  0.00    -0.252 OA
ATOM      8  N   LIG    1       28.046 -13.300   3.445  0.00  0.00    -0.239 N 
ATOM      9  H   LIG    1       28.709 -13.071   2.717  0.00  0.00    +0.159 HD
ATOM     10  C   LIG    1       26.812 -13.710   3.017  0.00  0.00    +0.236 C 
ATOM     11  O   LIG    1       26.602 -13.831   1.813  0.00  0.00    -0.274 OA
ENDROOT
BRANCH   1  12
ATOM     12  C   LIG    1       24.317 -13.977   3.637  0.00  0.00    +0.007 C 
ATOM     13  C   LIG    1       23.756 -12.550   3.552  0.00  0.00    +0.009 C 
ATOM     14  C   LIG    1       23.358 -14.837   4.477  0.00  0.00    +0.009 C 
ENDBRANCH   1  12
BRANCH   1  15
ATOM     15  C   LIG    1       26.208 -15.526   4.554  0.00  0.00    +0.052 C 
BRANCH  15  17
ATOM     16  C   LIG    1       25.981 -17.740   3.389  0.00  0.00    +0.004 C 
ATOM     17  C   LIG    1       26.461 -16.490   3.424  0.00  0.00    -0.033 C 
ENDBRANCH  15  17
ENDBRANCH   1  15
TORSDOF 3
ENDMDL
MODEL 3
REMARK VINA RESULT:      -3.2      1.560      3.599
REMARK  Name = *****
REMARK                            x       y       z     vdW  Elec       q    Type
REMARK                         _______ _______ _______ _____ _____    ______ ____
ROOT
ATOM      1  C   LIG    1       25.926 -14.013   3.668  0.00  0.00    +0.129 C 
ATOM      2  C   LIG    1       24.654 -13.568   4.400  0.00  0.00    +0.236 C 
ATOM      3  O   LIG    1       24.577 -12.576   5.121  0.00  0.00    -0.274 OA
ATOM      4  N   LIG    1       23.541 -14.332   4.182  0.00  0.00    -0.239 N 
ATOM      5  H   LIG    1       22.704 -14.013   4.652  0.00  0.00    +0.159 HD
ATOM      6  C   LIG    1       23.592 -15.675   3.980  0.00  0.00    +0.312 C 
ATOM      7  O   LIG    1       22.638 -16.397   4.241  0.00  0.00    -0.252 OA
ATOM      8  N   LIG    1       24.784 -16.189   3.573  0.00  0.00    -0.239 N 
ATOM      9  H   LIG    1       24.830 -17.199   3.554  0.00  0.00    +0.159 HD
ATOM     10  C   LIG    1       25.986 -15.541   3.663  0.00  0.00    +0.236 C 
ATOM     11  O   LIG    1       27.025 -16.196   3.657  0.00  0.00    -0.274 OA
ENDROOT
BRANCH   1  12
ATOM     12  C   LIG    1       27.186 -13.353   4.334  0.00  0.00    +0.007 C 
ATOM     13  C   LIG    1       28.514 -13.587   3.598  0.00  0.00    +0.009 C 
ATOM     14  C   LIG    1       27.362 -13.750   5.810  0.00  0.00    +0.009 C 
ENDBRANCH   1  12
BRANCH   1  15
ATOM     15  C   LIG    1       25.747 -13.608   2.171  0.00  0.00    +0.052 C 
BRANCH  15  17
ATOM     16  C   LIG    1       24.419 -11.505   1.822  0.00  0.00    +0.004 C 
ATOM     17  C   LIG    1       24.487 -12.841   1.866  0.00  0.00    -0.033 C 
ENDBRANCH  15  17
ENDBRANCH   1  15
TORSDOF 3
ENDMDL
MODEL 4
REMARK VINA RESULT:      -2.8      5.050      6.652
REMARK  Name = *****
REMARK                            x       y       z     vdW  Elec       q    Type
REMARK                         _______ _______ _______ _____ _____    ______ ____
ROOT
ATOM      1  C   LIG    1       23.586 -20.052   4.733  0.00  0.00    +0.129 C 
ATOM      2  C   LIG    1       24.627 -20.973   4.084  0.00  0.00    +0.236 C 
ATOM      3  O   LIG    1       24.461 -21.572   3.024  0.00  0.00    -0.274 OA
ATOM      4  N   LIG    1       25.820 -21.082   4.742  0.00  0.00    -0.239 N 
ATOM      5  H   LIG    1       26.506 -21.674   4.291  0.00  0.00    +0.159 HD
ATOM      6  C   LIG    1       25.928 -21.034   6.096  0.00  0.00    +0.312 C 
ATOM      7  O   LIG    1       26.859 -21.570   6.683  0.00  0.00    -0.252 OA
ATOM      8  N   LIG    1       24.901 -20.453   6.773  0.00  0.00    -0.239 N 
ATOM      9  H   LIG    1       24.944 -20.544   7.779  0.00  0.00    +0.159 HD
ATOM     10  C   LIG    1       23.657 -20.215   6.252  0.00  0.00    +0.236 C 
ATOM     11  O   LIG    1       22.704 -20.071   7.012  0.00  0.00    -0.274 OA
ENDROOT
BRANCH   1  12
ATOM     12  C   LIG    1       22.161 -20.359   4.150  0.00  0.00    +0.007 C 
ATOM     13  C   LIG    1       21.216 -19.151   4.058  0.00  0.00    +0.009 C 
ATOM     14  C   LIG    1       21.441 -21.496   4.895  0.00  0.00    +0.009 C 
ENDBRANCH   1  12
BRANCH   1  15
ATOM     15  C   LIG    1       24.052 -18.586   4.459  0.00  0.00    +0.052 C 
BRANCH  15  17
ATOM     16  C   LIG    1       26.019 -17.526   3.311  0.00  0.00    +0.004 C 
ATOM     17  C   LIG    1       25.032 -18.432   3.326  0.00  0.00    -0.033 C 
ENDBRANCH  15  17
ENDBRANCH   1  15
TORSDOF 3
ENDMDL
MODEL 5
REMARK VINA RESULT:      -1.9      4.470      6.664
REMARK  Name = *****
REMARK                            x       y       z     vdW  Elec       q    Type
REMARK                         _______ _______ _______ _____ _____    ______ ____
ROOT
ATOM      1  C   LIG    1       23.120 -19.851   4.426  0.00  0.00    +0.129 C 
ATOM      2  C   LIG    1       23.000 -18.338   4.209  0.00  0.00    +0.236 C 
ATOM      3  O   LIG    1       21.938 -17.720   4.189  0.00  0.00    -0.274 OA
ATOM      4  N   LIG    1       24.179 -17.660   4.067  0.00  0.00    -0.239 N 
ATOM      5  H   LIG    1       24.086 -16.660   3.948  0.00  0.00    +0.159 HD
ATOM      6  C   LIG    1       25.275 -18.195   3.466  0.00  0.00    +0.312 C 
ATOM      7  O   LIG    1       26.124 -17.488   2.940  0.00  0.00    -0.252 OA
ATOM      8  N   LIG    1       25.329 -19.552   3.387  0.00  0.00    -0.239 N 
ATOM      9  H   LIG    1       26.086 -19.918   2.825  0.00  0.00    +0.159 HD
ATOM     10  C   LIG    1       24.259 -20.389   3.558  0.00  0.00    +0.236 C 
ATOM     11  O   LIG    1       24.299 -21.522   3.087  0.00  0.00    -0.274 OA
ENDROOT
BRANCH   1  12
ATOM     12  C   LIG    1       21.743 -20.546   4.128  0.00  0.00    +0.007 C 
ATOM     13  C   LIG    1       20.564 -19.590   3.893  0.00  0.00    +0.009 C 
ATOM     14  C   LIG    1       21.343 -21.572   5.202  0.00  0.00    +0.009 C 
ENDBRANCH   1  12
BRANCH   1  15
ATOM     15  C   LIG    1       23.599 -20.057   5.898  0.00  0.00    +0.052 C 
BRANCH  15  17
ATOM     16  C   LIG    1       25.725 -20.880   6.951  0.00  0.00    +0.004 C 
ATOM     17  C   LIG    1       24.730 -21.036   6.068  0.00  0.00    -0.033 C 
ENDBRANCH  15  17
ENDBRANCH   1  15
TORSDOF 3
ENDMDL
MODEL 6
REMARK VINA RESULT:      -1.8      1.970      3.865
REMARK  Name = *****
REMARK                            x       y       z     vdW  Elec       q    Type
REMARK                         _______ _______ _______ _____ _____    ______ ____
ROOT
ATOM      1  C   LIG    1       26.062 -14.409   3.724  0.00  0.00    +0.129 C 
ATOM      2  C   LIG    1       26.632 -13.228   2.929  0.00  0.00    +0.236 C 
ATOM      3  O   LIG    1       27.795 -12.837   3.001  0.00  0.00    -0.274 OA
ATOM      4  N   LIG    1       25.767 -12.615   2.067  0.00  0.00    -0.239 N 
ATOM      5  H   LIG    1       26.163 -11.853   1.532  0.00  0.00    +0.159 HD
ATOM      6  C   LIG    1       24.436 -12.493   2.313  0.00  0.00    +0.312 C 
ATOM      7  O   LIG    1       23.773 -11.592   1.814  0.00  0.00    -0.252 OA
ATOM      8  N   LIG    1       23.898 -13.353   3.220  0.00  0.00    -0.239 N 
ATOM      9  H   LIG    1       22.941 -13.158   3.480  0.00  0.00    +0.159 HD
ATOM     10  C   LIG    1       24.620 -14.090   4.121  0.00  0.00    +0.236 C 
ATOM     11  O   LIG    1       24.068 -14.512   5.133  0.00  0.00    -0.274 OA
ENDROOT
BRANCH   1  12
ATOM     12  C   LIG    1       26.982 -14.718   4.959  0.00  0.00    +0.007 C 
ATOM     13  C   LIG    1       27.182 -13.549   5.936  0.00  0.00    +0.009 C 
ATOM     14  C   LIG    1       28.360 -15.269   4.558  0.00  0.00    +0.009 C 
ENDBRANCH   1  12
BRANCH   1  15
ATOM     15  C   LIG    1       25.955 -15.608   2.730  0.00  0.00    +0.052 C 
BRANCH  15  17
ATOM     16  C   LIG    1       25.123 -17.878   3.410  0.00  0.00    +0.004 C 
ATOM     17  C   LIG    1       26.105 -16.969   3.357  0.00  0.00    -0.033 C 
ENDBRANCH  15  17
ENDBRANCH   1  15
TORSDOF 3
ENDMDL
MODEL 7
REMARK VINA RESULT:      -1.8      2.126      3.734
REMARK  Name = *****
REMARK                            x       y       z     vdW  Elec       q    Type
REMARK                         _______ _______ _______ _____ _____    ______ ____
ROOT
ATOM      1  C   LIG    1       26.045 -14.535   3.798  0.00  0.00    +0.129 C 
ATOM      2  C   LIG    1       26.152 -13.435   2.734  0.00  0.00    +0.236 C 
ATOM      3  O   LIG    1       25.331 -13.251   1.839  0.00  0.00    -0.274 OA
ATOM      4  N   LIG    1       27.230 -12.601   2.844  0.00  0.00    -0.239 N 
ATOM      5  H   LIG    1       27.276 -11.866   2.151  0.00  0.00    +0.159 HD
ATOM      6  C   LIG    1       28.442 -13.012   3.305  0.00  0.00    +0.312 C 
ATOM      7  O   LIG    1       29.475 -12.439   2.983  0.00  0.00    -0.252 OA
ATOM      8  N   LIG    1       28.461 -14.148   4.053  0.00  0.00    -0.239 N 
ATOM      9  H   LIG    1       29.383 -14.500   4.273  0.00  0.00    +0.159 HD
ATOM     10  C   LIG    1       27.446 -15.065   4.107  0.00  0.00    +0.236 C 
ATOM     11  O   LIG    1       27.691 -16.214   4.465  0.00  0.00    -0.274 OA
ENDROOT
BRANCH   1  12
ATOM     12  C   LIG    1       25.060 -15.657   3.311  0.00  0.00    +0.007 C 
ATOM     13  C   LIG    1       23.719 -15.721   4.059  0.00  0.00    +0.009 C 
ATOM     14  C   LIG    1       25.696 -17.057   3.314  0.00  0.00    +0.009 C 
ENDBRANCH   1  12
BRANCH   1  15
ATOM     15  C   LIG    1       25.574 -13.841   5.115  0.00  0.00    +0.052 C 
BRANCH  15  17
ATOM     16  C   LIG    1       23.839 -12.048   4.826  0.00  0.00    +0.004 C 
ATOM     17  C   LIG    1       25.121 -12.413   4.955  0.00  0.00    -0.033 C 
ENDBRANCH  15  17
ENDBRANCH   1  15
TORSDOF 3
ENDMDL
MODEL 8
REMARK VINA RESULT:      -1.6      5.462      6.927
REMARK  Name = *****
REMARK                            x       y       z     vdW  Elec       q    Type
REMARK                         _______ _______ _______ _____ _____    ______ ____
ROOT
ATOM      1  C   LIG    1       24.419 -20.377   4.941  0.00  0.00    +0.129 C 
ATOM      2  C   LIG    1       25.473 -20.106   3.861  0.00  0.00    +0.236 C 
ATOM      3  O   LIG    1       25.328 -20.361   2.668  0.00  0.00    -0.274 OA
ATOM      4  N   LIG    1       26.625 -19.507   4.289  0.00  0.00    -0.239 N 
ATOM      5  H   LIG    1       27.302 -19.313   3.562  0.00  0.00    +0.159 HD
ATOM      6  C   LIG    1       27.169 -19.735   5.513  0.00  0.00    +0.312 C 
ATOM      7  O   LIG    1       28.368 -19.588   5.718  0.00  0.00    -0.252 OA
ATOM      8  N   LIG    1       26.340 -20.231   6.471  0.00  0.00    -0.239 N 
ATOM      9  H   LIG    1       26.795 -20.511   7.329  0.00  0.00    +0.159 HD
ATOM     10  C   LIG    1       25.125 -20.813   6.226  0.00  0.00    +0.236 C 
ATOM     11  O   LIG    1       24.641 -21.572   7.062  0.00  0.00    -0.274 OA
ENDROOT
BRANCH   1  12
ATOM     12  C   LIG    1       23.381 -21.437   4.424  0.00  0.00    +0.007 C 
ATOM     13  C   LIG    1       23.112 -21.406   2.911  0.00  0.00    +0.009 C 
ATOM     14  C   LIG    1       22.037 -21.373   5.168  0.00  0.00    +0.009 C 
ENDBRANCH   1  12
BRANCH   1  15
ATOM     15  C   LIG    1       23.764 -19.001   5.284  0.00  0.00    +0.052 C 
BRANCH  15  17
ATOM     16  C   LIG    1       21.790 -17.866   4.224  0.00  0.00    +0.004 C 
ATOM     17  C   LIG    1       23.040 -18.339   4.141  0.00  0.00    -0.033 C 
ENDBRANCH  15  17
ENDBRANCH   1  15
TORSDOF 3
ENDMDL
MODEL 9
REMARK VINA RESULT:      -0.9      4.101      6.607
REMARK  Name = *****
REMARK                            x       y       z     vdW  Elec       q    Type
REMARK                         _______ _______ _______ _____ _____    ______ ____
ROOT
ATOM      1  C   LIG    1       23.022 -19.294   4.330  0.00  0.00    +0.129 C 
ATOM      2  C   LIG    1       24.408 -19.849   3.982  0.00  0.00    +0.236 C 
ATOM      3  O   LIG    1       24.808 -20.968   4.294  0.00  0.00    -0.274 OA
ATOM      4  N   LIG    1       25.212 -19.027   3.243  0.00  0.00    -0.239 N 
ATOM      5  H   LIG    1       26.115 -19.415   3.000  0.00  0.00    +0.159 HD
ATOM      6  C   LIG    1       25.201 -17.673   3.364  0.00  0.00    +0.312 C 
ATOM      7  O   LIG    1       26.180 -16.997   3.076  0.00  0.00    -0.252 OA
ATOM      8  N   LIG    1       24.089 -17.116   3.916  0.00  0.00    -0.239 N 
ATOM      9  H   LIG    1       24.158 -16.127   4.112  0.00  0.00    +0.159 HD
ATOM     10  C   LIG    1       23.149 -17.801   4.638  0.00  0.00    +0.236 C 
ATOM     11  O   LIG    1       22.423 -17.187   5.416  0.00  0.00    -0.274 OA
ENDROOT
BRANCH   1  12
ATOM     12  C   LIG    1       22.399 -20.112   5.517  0.00  0.00    +0.007 C 
ATOM     13  C   LIG    1       23.343 -20.368   6.703  0.00  0.00    +0.009 C 
ATOM     14  C   LIG    1       21.792 -21.452   5.069  0.00  0.00    +0.009 C 
ENDBRANCH   1  12
BRANCH   1  15
ATOM     15  C   LIG    1       22.168 -19.369   3.025  0.00  0.00    +0.052 C 
BRANCH  15  17
ATOM     16  C   LIG    1       19.709 -18.894   3.218  0.00  0.00    +0.004 C 
ATOM     17  C   LIG    1       20.961 -18.469   3.003  0.00  0.00    -0.033 C 
ENDBRANCH  15  17
ENDBRANCH   1  15
TORSDOF 3
ENDMDL
