MODEL 1
REMARK VINA RESULT:      -8.3      0.000      0.000
REMARK  Name = *****
REMARK                            x       y       z     vdW  Elec       q    Type
REMARK                         _______ _______ _______ _____ _____    ______ ____
ROOT
ATOM      1  O   LIG    1       29.528 -21.303   8.377  0.00  0.00    -0.270 OA
ATOM      2  C   LIG    1       29.040 -20.465   7.621  0.00  0.00    +0.244 C 
ATOM      3  N   LIG    1       29.786 -19.488   6.997  0.00  0.00    -0.310 N 
ATOM      4  H   LIG    1       29.406 -18.976   6.209  0.00  0.00    +0.149 HD
ENDROOT
BRANCH   2   5
ATOM      5  C   LIG    1       27.577 -20.492   7.339  0.00  0.00    +0.037 A 
ATOM      6  C   LIG    1       27.150 -20.391   6.006  0.00  0.00    +0.014 A 
ATOM      7  C   LIG    1       25.788 -20.438   5.691  0.00  0.00    +0.021 A 
ATOM      8  C   LIG    1       24.851 -20.601   6.710  0.00  0.00    +0.041 A 
ATOM      9 CL   LIG    1       23.175 -20.662   6.327  0.00  0.00    -0.084 Cl
ATOM     10  C   LIG    1       25.264 -20.720   8.037  0.00  0.00    +0.021 A 
ATOM     11  C   LIG    1       26.627 -20.667   8.354  0.00  0.00    +0.014 A 
ENDBRANCH   2   5
BRANCH   3  12
ATOM     12  C   LIG    1       31.226 -19.415   7.176  0.00  0.00    +0.120 C 
BRANCH  12  13
ATOM     13  C   LIG    1       31.621 -18.817   8.543  0.00  0.00    +0.103 C 
BRANCH  13  14
ATOM     14  N   LIG    1       31.258 -17.396   8.730  0.00  0.00    -0.296 NA
ATOM     15  C   LIG    1       30.158 -17.249   9.718  0.00  0.00    +0.112 C 
ATOM     16  C   LIG    1       30.582 -17.343  11.198  0.00  0.00    +0.175 C 
ATOM     17  O   LIG    1       31.649 -16.438  11.498  0.00  0.00    -0.377 OA
ATOM     18  C   LIG    1       32.773 -16.699  10.652  0.00  0.00    +0.175 C 
ATOM     19  C   LIG    1       32.390 -16.547   9.170  0.00  0.00    +0.112 C 
ENDBRANCH  13  14
ENDBRANCH  12  13
ENDBRANCH   3  12
TORSDOF 4
ENDMDL
MODEL 2
REMARK VINA RESULT:      -7.9      1.278      2.216
REMARK  Name = *****
REMARK                            x       y       z     vdW  Elec       q    Type
REMARK                         _______ _______ _______ _____ _____    ______ ____
ROOT
ATOM      1  O   LIG    1       27.408 -21.351   8.762  0.00  0.00    -0.270 OA
ATOM      2  C   LIG    1       27.294 -20.649   7.758  0.00  0.00    +0.244 C 
ATOM      3  N   LIG    1       28.312 -19.856   7.274  0.00  0.00    -0.310 N 
ATOM      4  H   LIG    1       28.271 -19.486   6.333  0.00  0.00    +0.149 HD
ENDROOT
BRANCH   2   5
ATOM      5  C   LIG    1       26.009 -20.647   7.004  0.00  0.00    +0.037 A 
ATOM      6  C   LIG    1       24.814 -20.824   7.718  0.00  0.00    +0.014 A 
ATOM      7  C   LIG    1       23.582 -20.804   7.055  0.00  0.00    +0.021 A 
ATOM      8  C   LIG    1       23.544 -20.592   5.679  0.00  0.00    +0.041 A 
ATOM      9 CL   LIG    1       22.031 -20.564   4.860  0.00  0.00    -0.084 Cl
ATOM     10  C   LIG    1       24.724 -20.397   4.961  0.00  0.00    +0.021 A 
ATOM     11  C   LIG    1       25.958 -20.423   5.622  0.00  0.00    +0.014 A 
ENDBRANCH   2   5
BRANCH   3  12
ATOM     12  C   LIG    1       29.615 -19.831   7.918  0.00  0.00    +0.120 C 
BRANCH  12  13
ATOM     13  C   LIG    1       29.803 -18.593   8.821  0.00  0.00    +0.103 C 
BRANCH  13  14
ATOM     14  N   LIG    1       30.918 -18.688   9.786  0.00  0.00    -0.296 NA
ATOM     15  C   LIG    1       32.167 -18.116   9.220  0.00  0.00    +0.112 C 
ATOM     16  C   LIG    1       32.263 -16.578   9.251  0.00  0.00    +0.175 C 
ATOM     17  O   LIG    1       32.026 -16.062  10.565  0.00  0.00    -0.377 OA
ATOM     18  C   LIG    1       30.742 -16.480  11.037  0.00  0.00    +0.175 C 
ATOM     19  C   LIG    1       30.645 -18.014  11.078  0.00  0.00    +0.112 C 
ENDBRANCH  13  14
ENDBRANCH  12  13
ENDBRANCH   3  12
TORSDOF 4
ENDMDL
MODEL 3
REMARK VINA RESULT:      -7.8      2.319      3.518
REMARK  Name = *****
REMARK                            x       y       z     vdW  Elec       q    Type
REMARK                         _______ _______ _______ _____ _____    ______ ____
ROOT
ATOM      1  O   LIG    1       26.437 -21.509   6.618  0.00  0.00    -0.270 OA
ATOM      2  C   LIG    1       26.406 -20.588   5.801  0.00  0.00    +0.244 C 
ATOM      3  N   LIG    1       27.538 -19.949   5.343  0.00  0.00    -0.310 N 
ATOM      4  H   LIG    1       27.501 -19.374   4.510  0.00  0.00    +0.149 HD
ENDROOT
BRANCH   2   5
ATOM      5  C   LIG    1       25.096 -20.132   5.257  0.00  0.00    +0.037 A 
ATOM      6  C   LIG    1       23.936 -20.384   6.006  0.00  0.00    +0.014 A 
ATOM      7  C   LIG    1       22.687 -19.952   5.547  0.00  0.00    +0.021 A 
ATOM      8  C   LIG    1       22.599 -19.253   4.345  0.00  0.00    +0.041 A 
ATOM      9 CL   LIG    1       21.066 -18.717   3.778  0.00  0.00    -0.084 Cl
ATOM     10  C   LIG    1       23.747 -18.981   3.601  0.00  0.00    +0.021 A 
ATOM     11  C   LIG    1       24.997 -19.419   4.055  0.00  0.00    +0.014 A 
ENDBRANCH   2   5
BRANCH   3  12
ATOM     12  C   LIG    1       28.861 -20.359   5.783  0.00  0.00    +0.120 C 
BRANCH  12  13
ATOM     13  C   LIG    1       29.619 -19.224   6.504  0.00  0.00    +0.103 C 
BRANCH  13  14
ATOM     14  N   LIG    1       29.510 -19.239   7.978  0.00  0.00    -0.296 NA
ATOM     15  C   LIG    1       29.917 -20.556   8.532  0.00  0.00    +0.112 C 
ATOM     16  C   LIG    1       31.438 -20.788   8.636  0.00  0.00    +0.175 C 
ATOM     17  O   LIG    1       32.086 -19.726   9.343  0.00  0.00    -0.377 OA
ATOM     18  C   LIG    1       31.826 -18.473   8.701  0.00  0.00    +0.175 C 
ATOM     19  C   LIG    1       30.316 -18.189   8.644  0.00  0.00    +0.112 C 
ENDBRANCH  13  14
ENDBRANCH  12  13
ENDBRANCH   3  12
TORSDOF 4
ENDMDL
MODEL 4
REMARK VINA RESULT:      -7.4      3.349      7.028
REMARK  Name = *****
REMARK                            x       y       z     vdW  Elec       q    Type
REMARK                         _______ _______ _______ _____ _____    ______ ____
ROOT
ATOM      1  O   LIG    1       31.677 -19.441   7.123  0.00  0.00    -0.270 OA
ATOM      2  C   LIG    1       30.786 -18.815   7.695  0.00  0.00    +0.244 C 
ATOM      3  N   LIG    1       29.476 -18.809   7.268  0.00  0.00    -0.310 N 
ATOM      4  H   LIG    1       28.736 -18.490   7.882  0.00  0.00    +0.149 HD
ENDROOT
BRANCH   2   5
ATOM      5  C   LIG    1       31.109 -18.027   8.918  0.00  0.00    +0.037 A 
ATOM      6  C   LIG    1       30.180 -18.012   9.969  0.00  0.00    +0.014 A 
ATOM      7  C   LIG    1       30.453 -17.308  11.147  0.00  0.00    +0.021 A 
ATOM      8  C   LIG    1       31.662 -16.630  11.280  0.00  0.00    +0.041 A 
ATOM      9 CL   LIG    1       32.002 -15.764  12.727  0.00  0.00    -0.084 Cl
ATOM     10  C   LIG    1       32.601 -16.652  10.249  0.00  0.00    +0.021 A 
ATOM     11  C   LIG    1       32.328 -17.351   9.067  0.00  0.00    +0.014 A 
ENDBRANCH   2   5
BRANCH   3  12
ATOM     12  C   LIG    1       29.060 -19.586   6.112  0.00  0.00    +0.120 C 
BRANCH  12  13
ATOM     13  C   LIG    1       28.066 -20.708   6.483  0.00  0.00    +0.103 C 
BRANCH  13  14
ATOM     14  N   LIG    1       26.705 -20.246   6.828  0.00  0.00    -0.296 NA
ATOM     15  C   LIG    1       25.693 -20.829   5.910  0.00  0.00    +0.112 C 
ATOM     16  C   LIG    1       25.283 -22.284   6.216  0.00  0.00    +0.175 C 
ATOM     17  O   LIG    1       24.874 -22.441   7.578  0.00  0.00    -0.377 OA
ATOM     18  C   LIG    1       25.924 -22.034   8.461  0.00  0.00    +0.175 C 
ATOM     19  C   LIG    1       26.305 -20.564   8.219  0.00  0.00    +0.112 C 
ENDBRANCH  13  14
ENDBRANCH  12  13
ENDBRANCH   3  12
TORSDOF 4
ENDMDL
MODEL 5
REMARK VINA RESULT:      -7.4      1.526      2.139
REMARK  Name = *****
REMARK                            x       y       z     vdW  Elec       q    Type
REMARK                         _______ _______ _______ _____ _____    ______ ____
ROOT
ATOM      1  O   LIG    1       27.560 -20.536   8.240  0.00  0.00    -0.270 OA
ATOM      2  C   LIG    1       27.295 -20.327   7.057  0.00  0.00    +0.244 C 
ATOM      3  N   LIG    1       28.238 -19.938   6.131  0.00  0.00    -0.310 N 
ATOM      4  H   LIG    1       28.044 -20.008   5.139  0.00  0.00    +0.149 HD
ENDROOT
BRANCH   2   5
ATOM      5  C   LIG    1       25.897 -20.510   6.573  0.00  0.00    +0.037 A 
ATOM      6  C   LIG    1       25.647 -20.415   5.196  0.00  0.00    +0.014 A 
ATOM      7  C   LIG    1       24.355 -20.605   4.694  0.00  0.00    +0.021 A 
ATOM      8  C   LIG    1       23.314 -20.904   5.569  0.00  0.00    +0.041 A 
ATOM      9 CL   LIG    1       21.724 -21.141   4.956  0.00  0.00    -0.084 Cl
ATOM     10  C   LIG    1       23.552 -21.018   6.939  0.00  0.00    +0.021 A 
ATOM     11  C   LIG    1       24.844 -20.823   7.443  0.00  0.00    +0.014 A 
ENDBRANCH   2   5
BRANCH   3  12
ATOM     12  C   LIG    1       29.634 -19.781   6.502  0.00  0.00    +0.120 C 
BRANCH  12  13
ATOM     13  C   LIG    1       29.959 -18.352   6.987  0.00  0.00    +0.103 C 
BRANCH  13  14
ATOM     14  N   LIG    1       31.209 -18.226   7.765  0.00  0.00    -0.296 NA
ATOM     15  C   LIG    1       31.069 -17.214   8.843  0.00  0.00    +0.112 C 
ATOM     16  C   LIG    1       30.324 -17.691  10.106  0.00  0.00    +0.175 C 
ATOM     17  O   LIG    1       30.887 -18.900  10.625  0.00  0.00    -0.377 OA
ATOM     18  C   LIG    1       30.862 -19.926   9.627  0.00  0.00    +0.175 C 
ATOM     19  C   LIG    1       31.656 -19.498   8.381  0.00  0.00    +0.112 C 
ENDBRANCH  13  14
ENDBRANCH  12  13
ENDBRANCH   3  12
TORSDOF 4
ENDMDL
MODEL 6
REMARK VINA RESULT:      -7.3      3.545      7.185
REMARK  Name = *****
REMARK                            x       y       z     vdW  Elec       q    Type
REMARK                         _______ _______ _______ _____ _____    ______ ____
ROOT
ATOM      1  O   LIG    1       30.442 -18.293   6.381  0.00  0.00    -0.270 OA
ATOM      2  C   LIG    1       30.177 -18.745   7.495  0.00  0.00    +0.244 C 
ATOM      3  N   LIG    1       29.409 -19.874   7.686  0.00  0.00    -0.310 N 
ATOM      4  H   LIG    1       29.410 -20.350   8.580  0.00  0.00    +0.149 HD
ENDROOT
BRANCH   2   5
ATOM      5  C   LIG    1       30.709 -18.067   8.710  0.00  0.00    +0.037 A 
ATOM      6  C   LIG    1       32.011 -17.544   8.669  0.00  0.00    +0.014 A 
ATOM      7  C   LIG    1       32.543 -16.876   9.777  0.00  0.00    +0.021 A 
ATOM      8  C   LIG    1       31.767 -16.717  10.923  0.00  0.00    +0.041 A 
ATOM      9 CL   LIG    1       32.416 -15.894  12.287  0.00  0.00    -0.084 Cl
ATOM     10  C   LIG    1       30.465 -17.216  10.970  0.00  0.00    +0.021 A 
ATOM     11  C   LIG    1       29.933 -17.891   9.864  0.00  0.00    +0.014 A 
ENDBRANCH   2   5
BRANCH   3  12
ATOM     12  C   LIG    1       28.888 -20.627   6.557  0.00  0.00    +0.120 C 
BRANCH  12  13
ATOM     13  C   LIG    1       27.345 -20.653   6.529  0.00  0.00    +0.103 C 
BRANCH  13  14
ATOM     14  N   LIG    1       26.714 -21.427   7.618  0.00  0.00    -0.296 NA
ATOM     15  C   LIG    1       25.498 -20.742   8.128  0.00  0.00    +0.112 C 
ATOM     16  C   LIG    1       24.232 -20.914   7.265  0.00  0.00    +0.175 C 
ATOM     17  O   LIG    1       23.957 -22.294   7.001  0.00  0.00    -0.377 OA
ATOM     18  C   LIG    1       25.076 -22.907   6.353  0.00  0.00    +0.175 C 
ATOM     19  C   LIG    1       26.338 -22.806   7.227  0.00  0.00    +0.112 C 
ENDBRANCH  13  14
ENDBRANCH  12  13
ENDBRANCH   3  12
TORSDOF 4
ENDMDL
MODEL 7
REMARK VINA RESULT:      -7.2      4.151      5.297
REMARK  Name = *****
REMARK                            x       y       z     vdW  Elec       q    Type
REMARK                         _______ _______ _______ _____ _____    ______ ____
ROOT
ATOM      1  O   LIG    1       24.321 -22.330   7.693  0.00  0.00    -0.270 OA
ATOM      2  C   LIG    1       25.158 -22.771   6.906  0.00  0.00    +0.244 C 
ATOM      3  N   LIG    1       26.159 -21.998   6.360  0.00  0.00    -0.310 N 
ATOM      4  H   LIG    1       26.960 -22.432   5.916  0.00  0.00    +0.149 HD
ENDROOT
BRANCH   2   5
ATOM      5  C   LIG    1       25.117 -24.209   6.518  0.00  0.00    +0.037 A 
ATOM      6  C   LIG    1       26.312 -24.944   6.545  0.00  0.00    +0.014 A 
ATOM      7  C   LIG    1       26.317 -26.304   6.214  0.00  0.00    +0.021 A 
ATOM      8  C   LIG    1       25.122 -26.933   5.870  0.00  0.00    +0.041 A 
ATOM      9 CL   LIG    1       25.123 -28.605   5.464  0.00  0.00    -0.084 Cl
ATOM     10  C   LIG    1       23.925 -26.217   5.856  0.00  0.00    +0.021 A 
ATOM     11  C   LIG    1       23.919 -24.855   6.181  0.00  0.00    +0.014 A 
ENDBRANCH   2   5
BRANCH   3  12
ATOM     12  C   LIG    1       26.305 -20.596   6.718  0.00  0.00    +0.120 C 
BRANCH  12  13
ATOM     13  C   LIG    1       27.520 -20.346   7.636  0.00  0.00    +0.103 C 
BRANCH  13  14
ATOM     14  N   LIG    1       28.830 -20.693   7.046  0.00  0.00    -0.296 NA
ATOM     15  C   LIG    1       29.089 -19.905   5.814  0.00  0.00    +0.112 C 
ATOM     16  C   LIG    1       29.569 -18.458   6.044  0.00  0.00    +0.175 C 
ATOM     17  O   LIG    1       30.703 -18.411   6.915  0.00  0.00    -0.377 OA
ATOM     18  C   LIG    1       30.390 -19.026   8.169  0.00  0.00    +0.175 C 
ATOM     19  C   LIG    1       29.971 -20.493   7.971  0.00  0.00    +0.112 C 
ENDBRANCH  13  14
ENDBRANCH  12  13
ENDBRANCH   3  12
TORSDOF 4
ENDMDL
MODEL 8
REMARK VINA RESULT:      -7.2      3.162      4.053
REMARK  Name = *****
REMARK                            x       y       z     vdW  Elec       q    Type
REMARK                         _______ _______ _______ _____ _____    ______ ____
ROOT
ATOM      1  O   LIG    1       25.698 -20.746   7.748  0.00  0.00    -0.270 OA
ATOM      2  C   LIG    1       26.111 -21.465   6.838  0.00  0.00    +0.244 C 
ATOM      3  N   LIG    1       27.086 -21.067   5.948  0.00  0.00    -0.310 N 
ATOM      4  H   LIG    1       27.567 -21.750   5.375  0.00  0.00    +0.149 HD
ENDROOT
BRANCH   2   5
ATOM      5  C   LIG    1       25.557 -22.838   6.677  0.00  0.00    +0.037 A 
ATOM      6  C   LIG    1       26.450 -23.920   6.643  0.00  0.00    +0.014 A 
ATOM      7  C   LIG    1       25.973 -25.230   6.519  0.00  0.00    +0.021 A 
ATOM      8  C   LIG    1       24.601 -25.459   6.444  0.00  0.00    +0.041 A 
ATOM      9 CL   LIG    1       24.011 -27.068   6.294  0.00  0.00    -0.084 Cl
ATOM     10  C   LIG    1       23.703 -24.393   6.494  0.00  0.00    +0.021 A 
ATOM     11  C   LIG    1       24.179 -23.082   6.612  0.00  0.00    +0.014 A 
ENDBRANCH   2   5
BRANCH   3  12
ATOM     12  C   LIG    1       27.717 -19.763   6.059  0.00  0.00    +0.120 C 
BRANCH  12  13
ATOM     13  C   LIG    1       29.138 -19.844   6.655  0.00  0.00    +0.103 C 
BRANCH  13  14
ATOM     14  N   LIG    1       29.195 -19.869   8.132  0.00  0.00    -0.296 NA
ATOM     15  C   LIG    1       29.814 -21.127   8.623  0.00  0.00    +0.112 C 
ATOM     16  C   LIG    1       31.354 -21.175   8.557  0.00  0.00    +0.175 C 
ATOM     17  O   LIG    1       31.945 -20.041   9.201  0.00  0.00    -0.377 OA
ATOM     18  C   LIG    1       31.468 -18.830   8.605  0.00  0.00    +0.175 C 
ATOM     19  C   LIG    1       29.938 -18.729   8.718  0.00  0.00    +0.112 C 
ENDBRANCH  13  14
ENDBRANCH  12  13
ENDBRANCH   3  12
TORSDOF 4
ENDMDL
MODEL 9
REMARK VINA RESULT:      -7.2      2.307      3.392
REMARK  Name = *****
REMARK                            x       y       z     vdW  Elec       q    Type
REMARK                         _______ _______ _______ _____ _____    ______ ____
ROOT
ATOM      1  O   LIG    1       25.887 -22.855   6.719  0.00  0.00    -0.270 OA
ATOM      2  C   LIG    1       26.085 -21.678   6.416  0.00  0.00    +0.244 C 
ATOM      3  N   LIG    1       27.304 -21.055   6.575  0.00  0.00    -0.310 N 
ATOM      4  H   LIG    1       27.499 -20.180   6.103  0.00  0.00    +0.149 HD
ENDROOT
BRANCH   2   5
ATOM      5  C   LIG    1       24.975 -20.871   5.837  0.00  0.00    +0.037 A 
ATOM      6  C   LIG    1       25.176 -20.251   4.594  0.00  0.00    +0.014 A 
ATOM      7  C   LIG    1       24.153 -19.505   4.000  0.00  0.00    +0.021 A 
ATOM      8  C   LIG    1       22.922 -19.390   4.642  0.00  0.00    +0.041 A 
ATOM      9 CL   LIG    1       21.660 -18.476   3.914  0.00  0.00    -0.084 Cl
ATOM     10  C   LIG    1       22.704 -20.016   5.869  0.00  0.00    +0.021 A 
ATOM     11  C   LIG    1       23.729 -20.759   6.469  0.00  0.00    +0.014 A 
ENDBRANCH   2   5
BRANCH   3  12
ATOM     12  C   LIG    1       28.456 -21.778   7.088  0.00  0.00    +0.120 C 
BRANCH  12  13
ATOM     13  C   LIG    1       29.189 -21.003   8.203  0.00  0.00    +0.103 C 
BRANCH  13  14
ATOM     14  N   LIG    1       30.562 -20.571   7.864  0.00  0.00    -0.296 NA
ATOM     15  C   LIG    1       30.553 -19.575   6.763  0.00  0.00    +0.112 C 
ATOM     16  C   LIG    1       30.195 -18.133   7.178  0.00  0.00    +0.175 C 
ATOM     17  O   LIG    1       31.015 -17.678   8.259  0.00  0.00    -0.377 OA
ATOM     18  C   LIG    1       30.886 -18.555   9.382  0.00  0.00    +0.175 C 
ATOM     19  C   LIG    1       31.301 -19.989   9.009  0.00  0.00    +0.112 C 
ENDBRANCH  13  14
ENDBRANCH  12  13
ENDBRANCH   3  12
TORSDOF 4
ENDMDL
