MODEL 1
REMARK VINA RESULT:      -7.9      0.000      0.000
REMARK  Name = *****
REMARK                            x       y       z     vdW  Elec       q    Type
REMARK                         _______ _______ _______ _____ _____    ______ ____
ROOT
ATOM      1  C   LIG    1       23.352 -21.303   7.440  0.00  0.00    +0.134 C 
ATOM      2  N   LIG    1       24.768 -20.969   7.235  0.00  0.00    -0.158 NA
ATOM      3  S   LIG    1       25.854 -21.851   8.156  0.00  0.00    +0.064 S 
ATOM      4  O   LIG    1       25.841 -23.215   7.674  0.00  0.00    -0.153 OA
ATOM      5  O   LIG    1       25.607 -21.552   9.550  0.00  0.00    -0.153 OA
ATOM      6  C   LIG    1       27.402 -21.154   7.714  0.00  0.00    +0.128 A 
ATOM      7  C   LIG    1       27.490 -20.340   6.587  0.00  0.00    +0.057 A 
ATOM      8  C   LIG    1       28.736 -19.757   6.316  0.00  0.00    +0.047 A 
ATOM      9  C   LIG    1       29.871 -20.040   7.097  0.00  0.00    +0.069 A 
ATOM     10  C   LIG    1       29.756 -20.898   8.190  0.00  0.00    +0.125 A 
ATOM     11 CL   LIG    1       31.349 -19.280   6.633  0.00  0.00    -0.082 Cl
ATOM     12  N   LIG    1       26.392 -19.973   5.813  0.00  0.00    -0.325 N 
ATOM     13  H   LIG    1       26.634 -19.681   4.867  0.00  0.00    +0.148 HD
ATOM     14  C   LIG    1       28.513 -21.449   8.512  0.00  0.00    +0.060 A 
ATOM     15  C   LIG    1       25.166 -20.766   5.842  0.00  0.00    +0.177 C 
ENDROOT
BRANCH  10  16
ATOM     16  S   LIG    1       31.171 -21.300   9.160  0.00  0.00    +0.057 S 
ATOM     17  O   LIG    1       30.755 -22.103  10.283  0.00  0.00    -0.153 OA
ATOM     18  O   LIG    1       31.999 -20.122   9.277  0.00  0.00    -0.153 OA
BRANCH  16  19
ATOM     19  N   LIG    1       32.060 -22.348   8.185  0.00  0.00    -0.203 NA
ATOM     20  H   LIG    1       31.420 -22.918   7.628  0.00  0.00    +0.144 HD
ATOM     21  H   LIG    1       32.697 -22.898   8.764  0.00  0.00    +0.144 HD
ENDBRANCH  16  19
ENDBRANCH  10  16
BRANCH  15  22
ATOM     22  C   LIG    1       25.284 -22.048   4.989  0.00  0.00    +0.148 C 
ATOM     23 CL   LIG    1       24.227 -21.948   3.542  0.00  0.00    -0.122 Cl
ENDBRANCH  15  22
TORSDOF 3
ENDMDL
MODEL 2
REMARK VINA RESULT:      -7.6      1.785      1.901
REMARK  Name = *****
REMARK                            x       y       z     vdW  Elec       q    Type
REMARK                         _______ _______ _______ _____ _____    ______ ____
ROOT
ATOM      1  C   LIG    1       23.251 -22.043   7.803  0.00  0.00    +0.134 C 
ATOM      2  N   LIG    1       24.474 -21.439   7.257  0.00  0.00    -0.158 NA
ATOM      3  S   LIG    1       25.831 -21.560   8.231  0.00  0.00    +0.064 S 
ATOM      4  O   LIG    1       26.229 -22.951   8.269  0.00  0.00    -0.153 OA
ATOM      5  O   LIG    1       25.576 -20.826   9.450  0.00  0.00    -0.153 OA
ATOM      6  C   LIG    1       27.051 -20.692   7.316  0.00  0.00    +0.128 A 
ATOM      7  C   LIG    1       26.815 -20.388   5.977  0.00  0.00    +0.057 A 
ATOM      8  C   LIG    1       27.795 -19.637   5.311  0.00  0.00    +0.047 A 
ATOM      9  C   LIG    1       29.000 -19.272   5.937  0.00  0.00    +0.069 A 
ATOM     10  C   LIG    1       29.222 -19.636   7.265  0.00  0.00    +0.125 A 
ATOM     11 CL   LIG    1       30.132 -18.376   4.992  0.00  0.00    -0.082 Cl
ATOM     12  N   LIG    1       25.619 -20.666   5.321  0.00  0.00    -0.325 N 
ATOM     13  H   LIG    1       25.705 -20.708   4.307  0.00  0.00    +0.148 HD
ATOM     14  C   LIG    1       28.238 -20.338   7.966  0.00  0.00    +0.060 A 
ATOM     15  C   LIG    1       24.713 -21.690   5.836  0.00  0.00    +0.177 C 
ENDROOT
BRANCH  10  16
ATOM     16  S   LIG    1       30.740 -19.225   8.059  0.00  0.00    +0.057 S 
ATOM     17  O   LIG    1       30.655 -17.877   8.563  0.00  0.00    -0.153 OA
ATOM     18  O   LIG    1       31.831 -19.713   7.247  0.00  0.00    -0.153 OA
BRANCH  16  19
ATOM     19  N   LIG    1       30.768 -20.199   9.435  0.00  0.00    -0.203 NA
ATOM     20  H   LIG    1       31.453 -19.830  10.097  0.00  0.00    +0.144 HD
ATOM     21  H   LIG    1       30.941 -21.169   9.164  0.00  0.00    +0.144 HD
ENDBRANCH  16  19
ENDBRANCH  10  16
BRANCH  15  22
ATOM     22  C   LIG    1       25.188 -23.116   5.481  0.00  0.00    +0.148 C 
ATOM     23 CL   LIG    1       24.041 -24.343   6.113  0.00  0.00    -0.122 Cl
ENDBRANCH  15  22
TORSDOF 3
ENDMDL
MODEL 3
REMARK VINA RESULT:      -6.3      2.477      6.144
REMARK  Name = *****
REMARK                            x       y       z     vdW  Elec       q    Type
REMARK                         _______ _______ _______ _____ _____    ______ ____
ROOT
ATOM      1  C   LIG    1       30.996 -20.920   8.375  0.00  0.00    +0.134 C 
ATOM      2  N   LIG    1       29.847 -20.672   7.493  0.00  0.00    -0.158 NA
ATOM      3  S   LIG    1       28.351 -20.677   8.247  0.00  0.00    +0.064 S 
ATOM      4  O   LIG    1       28.277 -19.510   9.099  0.00  0.00    -0.153 OA
ATOM      5  O   LIG    1       28.121 -22.002   8.779  0.00  0.00    -0.153 OA
ATOM      6  C   LIG    1       27.238 -20.423   6.914  0.00  0.00    +0.128 A 
ATOM      7  C   LIG    1       27.729 -19.983   5.687  0.00  0.00    +0.057 A 
ATOM      8  C   LIG    1       26.806 -19.859   4.638  0.00  0.00    +0.047 A 
ATOM      9  C   LIG    1       25.432 -20.089   4.830  0.00  0.00    +0.069 A 
ATOM     10  C   LIG    1       24.970 -20.483   6.086  0.00  0.00    +0.125 A 
ATOM     11 CL   LIG    1       24.403 -19.869   3.462  0.00  0.00    -0.082 Cl
ATOM     12  N   LIG    1       29.083 -19.799   5.418  0.00  0.00    -0.325 N 
ATOM     13  H   LIG    1       29.266 -19.171   4.637  0.00  0.00    +0.148 HD
ATOM     14  C   LIG    1       25.878 -20.665   7.133  0.00  0.00    +0.060 A 
ATOM     15  C   LIG    1       30.035 -19.606   6.509  0.00  0.00    +0.177 C 
ENDROOT
BRANCH  10  16
ATOM     16  S   LIG    1       23.249 -20.739   6.362  0.00  0.00    +0.057 S 
ATOM     17  O   LIG    1       22.512 -19.659   5.754  0.00  0.00    -0.153 OA
ATOM     18  O   LIG    1       23.062 -21.172   7.727  0.00  0.00    -0.153 OA
BRANCH  16  19
ATOM     19  N   LIG    1       22.875 -22.094   5.432  0.00  0.00    -0.203 NA
ATOM     20  H   LIG    1       23.739 -22.562   5.151  0.00  0.00    +0.144 HD
ATOM     21  H   LIG    1       22.286 -21.817   4.645  0.00  0.00    +0.144 HD
ENDBRANCH  16  19
ENDBRANCH  10  16
BRANCH  15  22
ATOM     22  C   LIG    1       29.994 -18.167   7.067  0.00  0.00    +0.148 C 
ATOM     23 CL   LIG    1       31.302 -17.916   8.270  0.00  0.00    -0.122 Cl
ENDBRANCH  15  22
TORSDOF 3
ENDMDL
MODEL 4
REMARK VINA RESULT:      -5.7      8.588      9.589
REMARK  Name = *****
REMARK                            x       y       z     vdW  Elec       q    Type
REMARK                         _______ _______ _______ _____ _____    ______ ____
ROOT
ATOM      1  C   LIG    1       26.982 -31.779   9.232  0.00  0.00    +0.134 C 
ATOM      2  N   LIG    1       26.288 -30.849  10.134  0.00  0.00    -0.158 NA
ATOM      3  S   LIG    1       27.074 -29.395  10.408  0.00  0.00    +0.064 S 
ATOM      4  O   LIG    1       27.041 -28.632   9.178  0.00  0.00    -0.153 OA
ATOM      5  O   LIG    1       28.326 -29.680  11.073  0.00  0.00    -0.153 OA
ATOM      6  C   LIG    1       26.019 -28.587  11.554  0.00  0.00    +0.128 A 
ATOM      7  C   LIG    1       24.726 -29.069  11.751  0.00  0.00    +0.057 A 
ATOM      8  C   LIG    1       23.948 -28.426  12.725  0.00  0.00    +0.047 A 
ATOM      9  C   LIG    1       24.415 -27.295  13.418  0.00  0.00    +0.069 A 
ATOM     10  C   LIG    1       25.698 -26.812  13.159  0.00  0.00    +0.125 A 
ATOM     11 CL   LIG    1       23.342 -26.583  14.567  0.00  0.00    -0.082 Cl
ATOM     12  N   LIG    1       24.230 -30.219  11.144  0.00  0.00    -0.325 N 
ATOM     13  H   LIG    1       23.213 -30.257  11.104  0.00  0.00    +0.148 HD
ATOM     14  C   LIG    1       26.512 -27.468  12.232  0.00  0.00    +0.060 A 
ATOM     15  C   LIG    1       24.844 -30.737   9.924  0.00  0.00    +0.177 C 
ENDROOT
BRANCH  10  16
ATOM     16  S   LIG    1       26.291 -25.373  13.985  0.00  0.00    +0.057 S 
ATOM     17  O   LIG    1       26.519 -25.691  15.373  0.00  0.00    -0.153 OA
ATOM     18  O   LIG    1       25.523 -24.235  13.536  0.00  0.00    -0.153 OA
BRANCH  16  19
ATOM     19  N   LIG    1       27.829 -25.128  13.340  0.00  0.00    -0.203 NA
ATOM     20  H   LIG    1       27.816 -24.301  12.739  0.00  0.00    +0.144 HD
ATOM     21  H   LIG    1       28.140 -25.976  12.863  0.00  0.00    +0.144 HD
ENDBRANCH  16  19
ENDBRANCH  10  16
BRANCH  15  22
ATOM     22  C   LIG    1       24.411 -29.941   8.673  0.00  0.00    +0.148 C 
ATOM     23 CL   LIG    1       24.066 -31.049   7.305  0.00  0.00    -0.122 Cl
ENDBRANCH  15  22
TORSDOF 3
ENDMDL
MODEL 5
REMARK VINA RESULT:      -5.6      2.816      3.317
REMARK  Name = *****
REMARK                            x       y       z     vdW  Elec       q    Type
REMARK                         _______ _______ _______ _____ _____    ______ ____
ROOT
ATOM      1  C   LIG    1       23.665 -21.894   3.705  0.00  0.00    +0.134 C 
ATOM      2  N   LIG    1       24.783 -21.897   4.659  0.00  0.00    -0.158 NA
ATOM      3  S   LIG    1       25.436 -20.393   5.003  0.00  0.00    +0.064 S 
ATOM      4  O   LIG    1       24.455 -19.644   5.760  0.00  0.00    -0.153 OA
ATOM      5  O   LIG    1       26.000 -19.859   3.783  0.00  0.00    -0.153 OA
ATOM      6  C   LIG    1       26.756 -20.777   6.093  0.00  0.00    +0.128 A 
ATOM      7  C   LIG    1       26.819 -22.042   6.674  0.00  0.00    +0.057 A 
ATOM      8  C   LIG    1       27.929 -22.317   7.485  0.00  0.00    +0.047 A 
ATOM      9  C   LIG    1       28.899 -21.339   7.769  0.00  0.00    +0.069 A 
ATOM     10  C   LIG    1       28.779 -20.068   7.208  0.00  0.00    +0.125 A 
ATOM     11 CL   LIG    1       30.197 -21.803   8.808  0.00  0.00    -0.082 Cl
ATOM     12  N   LIG    1       25.926 -23.070   6.383  0.00  0.00    -0.325 N 
ATOM     13  H   LIG    1       25.877 -23.789   7.103  0.00  0.00    +0.148 HD
ATOM     14  C   LIG    1       27.709 -19.786   6.353  0.00  0.00    +0.060 A 
ATOM     15  C   LIG    1       24.612 -22.772   5.819  0.00  0.00    +0.177 C 
ENDROOT
BRANCH  10  16
ATOM     16  S   LIG    1       29.958 -18.815   7.580  0.00  0.00    +0.057 S 
ATOM     17  O   LIG    1       29.949 -18.570   9.001  0.00  0.00    -0.153 OA
ATOM     18  O   LIG    1       29.853 -17.773   6.584  0.00  0.00    -0.153 OA
BRANCH  16  19
ATOM     19  N   LIG    1       31.449 -19.542   7.277  0.00  0.00    -0.203 NA
ATOM     20  H   LIG    1       32.198 -18.916   7.578  0.00  0.00    +0.144 HD
ATOM     21  H   LIG    1       31.507 -19.805   6.292  0.00  0.00    +0.144 HD
ENDBRANCH  16  19
ENDBRANCH  10  16
BRANCH  15  22
ATOM     22  C   LIG    1       23.620 -22.272   6.891  0.00  0.00    +0.148 C 
ATOM     23 CL   LIG    1       22.164 -23.319   6.946  0.00  0.00    -0.122 Cl
ENDBRANCH  15  22
TORSDOF 3
ENDMDL
MODEL 6
REMARK VINA RESULT:      -5.4      3.423      6.550
REMARK  Name = *****
REMARK                            x       y       z     vdW  Elec       q    Type
REMARK                         _______ _______ _______ _____ _____    ______ ____
ROOT
ATOM      1  C   LIG    1       30.942 -18.465   7.584  0.00  0.00    +0.134 C 
ATOM      2  N   LIG    1       29.588 -19.035   7.549  0.00  0.00    -0.158 NA
ATOM      3  S   LIG    1       28.970 -19.324   6.019  0.00  0.00    +0.064 S 
ATOM      4  O   LIG    1       29.722 -20.413   5.433  0.00  0.00    -0.153 OA
ATOM      5  O   LIG    1       28.847 -18.054   5.337  0.00  0.00    -0.153 OA
ATOM      6  C   LIG    1       27.355 -19.923   6.353  0.00  0.00    +0.128 A 
ATOM      7  C   LIG    1       27.027 -20.323   7.647  0.00  0.00    +0.057 A 
ATOM      8  C   LIG    1       25.705 -20.732   7.872  0.00  0.00    +0.047 A 
ATOM      9  C   LIG    1       24.767 -20.813   6.827  0.00  0.00    +0.069 A 
ATOM     10  C   LIG    1       25.144 -20.450   5.535  0.00  0.00    +0.125 A 
ATOM     11 CL   LIG    1       23.183 -21.363   7.239  0.00  0.00    -0.082 Cl
ATOM     12  N   LIG    1       27.891 -20.206   8.733  0.00  0.00    -0.325 N 
ATOM     13  H   LIG    1       27.665 -20.828   9.507  0.00  0.00    +0.148 HD
ATOM     14  C   LIG    1       26.442 -19.988   5.295  0.00  0.00    +0.060 A 
ATOM     15  C   LIG    1       29.332 -20.095   8.525  0.00  0.00    +0.177 C 
ENDROOT
BRANCH  10  16
ATOM     16  S   LIG    1       24.000 -20.581   4.203  0.00  0.00    +0.057 S 
ATOM     17  O   LIG    1       24.605 -20.038   3.011  0.00  0.00    -0.153 OA
ATOM     18  O   LIG    1       22.690 -20.205   4.682  0.00  0.00    -0.153 OA
BRANCH  16  19
ATOM     19  N   LIG    1       23.886 -22.238   3.912  0.00  0.00    -0.203 NA
ATOM     20  H   LIG    1       24.808 -22.665   4.026  0.00  0.00    +0.144 HD
ATOM     21  H   LIG    1       23.472 -22.396   2.992  0.00  0.00    +0.144 HD
ENDBRANCH  16  19
ENDBRANCH  10  16
BRANCH  15  22
ATOM     22  C   LIG    1       29.980 -21.461   8.211  0.00  0.00    +0.148 C 
ATOM     23 CL   LIG    1       31.038 -21.987   9.562  0.00  0.00    -0.122 Cl
ENDBRANCH  15  22
TORSDOF 3
ENDMDL
MODEL 7
REMARK VINA RESULT:      -5.4      9.081     10.629
REMARK  Name = *****
REMARK                            x       y       z     vdW  Elec       q    Type
REMARK                         _______ _______ _______ _____ _____    ______ ____
ROOT
ATOM      1  C   LIG    1       26.673 -30.853  13.759  0.00  0.00    +0.134 C 
ATOM      2  N   LIG    1       26.483 -30.260  12.428  0.00  0.00    -0.158 NA
ATOM      3  S   LIG    1       25.439 -31.089  11.415  0.00  0.00    +0.064 S 
ATOM      4  O   LIG    1       24.100 -30.953  11.948  0.00  0.00    -0.153 OA
ATOM      5  O   LIG    1       26.007 -32.393  11.154  0.00  0.00    -0.153 OA
ATOM      6  C   LIG    1       25.507 -30.157   9.930  0.00  0.00    +0.128 A 
ATOM      7  C   LIG    1       26.068 -28.882   9.948  0.00  0.00    +0.057 A 
ATOM      8  C   LIG    1       26.157 -28.207   8.722  0.00  0.00    +0.047 A 
ATOM      9  C   LIG    1       25.633 -28.753   7.536  0.00  0.00    +0.069 A 
ATOM     10  C   LIG    1       25.035 -30.012   7.566  0.00  0.00    +0.125 A 
ATOM     11 CL   LIG    1       25.781 -27.802   6.104  0.00  0.00    -0.082 Cl
ATOM     12  N   LIG    1       26.659 -28.314  11.073  0.00  0.00    -0.325 N 
ATOM     13  H   LIG    1       26.710 -27.297  11.043  0.00  0.00    +0.148 HD
ATOM     14  C   LIG    1       24.983 -30.727   8.765  0.00  0.00    +0.060 A 
ATOM     15  C   LIG    1       26.332 -28.805  12.409  0.00  0.00    +0.177 C 
ENDROOT
BRANCH  10  16
ATOM     16  S   LIG    1       24.336 -30.701   6.103  0.00  0.00    +0.057 S 
ATOM     17  O   LIG    1       23.454 -31.782   6.470  0.00  0.00    -0.153 OA
ATOM     18  O   LIG    1       25.374 -30.815   5.105  0.00  0.00    -0.153 OA
BRANCH  16  19
ATOM     19  N   LIG    1       23.317 -29.492   5.519  0.00  0.00    -0.203 NA
ATOM     20  H   LIG    1       23.515 -28.617   6.008  0.00  0.00    +0.144 HD
ATOM     21  H   LIG    1       22.345 -29.795   5.601  0.00  0.00    +0.144 HD
ENDBRANCH  16  19
ENDBRANCH  10  16
BRANCH  15  22
ATOM     22  C   LIG    1       24.971 -28.270  12.907  0.00  0.00    +0.148 C 
ATOM     23 CL   LIG    1       25.089 -26.529  13.326  0.00  0.00    -0.122 Cl
ENDBRANCH  15  22
TORSDOF 3
ENDMDL
MODEL 8
REMARK VINA RESULT:      -5.1      9.923     11.450
REMARK  Name = *****
REMARK                            x       y       z     vdW  Elec       q    Type
REMARK                         _______ _______ _______ _____ _____    ______ ____
ROOT
ATOM      1  C   LIG    1       20.034 -32.249  12.845  0.00  0.00    +0.134 C 
ATOM      2  N   LIG    1       21.202 -31.600  12.232  0.00  0.00    -0.158 NA
ATOM      3  S   LIG    1       21.157 -31.473  10.562  0.00  0.00    +0.064 S 
ATOM      4  O   LIG    1       20.124 -30.520  10.216  0.00  0.00    -0.153 OA
ATOM      5  O   LIG    1       21.152 -32.809  10.010  0.00  0.00    -0.153 OA
ATOM      6  C   LIG    1       22.702 -30.731  10.183  0.00  0.00    +0.128 A 
ATOM      7  C   LIG    1       23.449 -30.146  11.203  0.00  0.00    +0.057 A 
ATOM      8  C   LIG    1       24.704 -29.626  10.856  0.00  0.00    +0.047 A 
ATOM      9  C   LIG    1       25.161 -29.619   9.526  0.00  0.00    +0.069 A 
ATOM     10  C   LIG    1       24.364 -30.171   8.523  0.00  0.00    +0.125 A 
ATOM     11 CL   LIG    1       26.711 -28.918   9.234  0.00  0.00    -0.082 Cl
ATOM     12  N   LIG    1       23.081 -30.177  12.545  0.00  0.00    -0.325 N 
ATOM     13  H   LIG    1       23.513 -29.446  13.108  0.00  0.00    +0.148 HD
ATOM     14  C   LIG    1       23.132 -30.743   8.852  0.00  0.00    +0.060 A 
ATOM     15  C   LIG    1       21.690 -30.409  12.926  0.00  0.00    +0.177 C 
ENDROOT
BRANCH  10  16
ATOM     16  S   LIG    1       24.896 -30.138   6.844  0.00  0.00    +0.057 S 
ATOM     17  O   LIG    1       25.849 -31.200   6.635  0.00  0.00    -0.153 OA
ATOM     18  O   LIG    1       25.125 -28.765   6.460  0.00  0.00    -0.153 OA
BRANCH  16  19
ATOM     19  N   LIG    1       23.533 -30.602   5.967  0.00  0.00    -0.203 NA
ATOM     20  H   LIG    1       23.773 -31.390   5.361  0.00  0.00    +0.144 HD
ATOM     21  H   LIG    1       23.161 -29.796   5.461  0.00  0.00    +0.144 HD
ENDBRANCH  16  19
ENDBRANCH  10  16
BRANCH  15  22
ATOM     22  C   LIG    1       20.824 -29.140  12.763  0.00  0.00    +0.148 C 
ATOM     23 CL   LIG    1       21.819 -27.661  12.971  0.00  0.00    -0.122 Cl
ENDBRANCH  15  22
TORSDOF 3
ENDMDL
MODEL 9
REMARK VINA RESULT:      -5.1      8.851     10.474
REMARK  Name = *****
REMARK                            x       y       z     vdW  Elec       q    Type
REMARK                         _______ _______ _______ _____ _____    ______ ____
ROOT
ATOM      1  C   LIG    1       26.793 -30.462  13.818  0.00  0.00    +0.134 C 
ATOM      2  N   LIG    1       26.606 -29.924  12.464  0.00  0.00    -0.158 NA
ATOM      3  S   LIG    1       25.500 -30.746  11.511  0.00  0.00    +0.064 S 
ATOM      4  O   LIG    1       24.182 -30.517  12.061  0.00  0.00    -0.153 OA
ATOM      5  O   LIG    1       25.997 -32.089  11.304  0.00  0.00    -0.153 OA
ATOM      6  C   LIG    1       25.586 -29.890   9.981  0.00  0.00    +0.128 A 
ATOM      7  C   LIG    1       26.210 -28.646   9.927  0.00  0.00    +0.057 A 
ATOM      8  C   LIG    1       26.308 -28.036   8.668  0.00  0.00    +0.047 A 
ATOM      9  C   LIG    1       25.732 -28.611   7.520  0.00  0.00    +0.069 A 
ATOM     10  C   LIG    1       25.073 -29.836   7.622  0.00  0.00    +0.125 A 
ATOM     11 CL   LIG    1       25.899 -27.738   6.041  0.00  0.00    -0.082 Cl
ATOM     12  N   LIG    1       26.852 -28.056  11.012  0.00  0.00    -0.325 N 
ATOM     13  H   LIG    1       26.953 -27.046  10.932  0.00  0.00    +0.148 HD
ATOM     14  C   LIG    1       25.009 -30.489   8.856  0.00  0.00    +0.060 A 
ATOM     15  C   LIG    1       26.528 -28.466  12.376  0.00  0.00    +0.177 C 
ENDROOT
BRANCH  10  16
ATOM     16  S   LIG    1       24.310 -30.557   6.208  0.00  0.00    +0.057 S 
ATOM     17  O   LIG    1       25.335 -31.073   5.335  0.00  0.00    -0.153 OA
ATOM     18  O   LIG    1       23.242 -29.688   5.767  0.00  0.00    -0.153 OA
BRANCH  16  19
ATOM     19  N   LIG    1       23.525 -31.922   6.808  0.00  0.00    -0.203 NA
ATOM     20  H   LIG    1       22.755 -32.172   6.185  0.00  0.00    +0.144 HD
ATOM     21  H   LIG    1       23.233 -31.753   7.772  0.00  0.00    +0.144 HD
ENDBRANCH  16  19
ENDBRANCH  10  16
BRANCH  15  22
ATOM     22  C   LIG    1       25.206 -27.838  12.872  0.00  0.00    +0.148 C 
ATOM     23 CL   LIG    1       25.470 -26.147  13.412  0.00  0.00    -0.122 Cl
ENDBRANCH  15  22
TORSDOF 3
ENDMDL
