MODEL 1
REMARK VINA RESULT:      -8.6      0.000      0.000
REMARK  Name = *****
REMARK                            x       y       z     vdW  Elec       q    Type
REMARK                         _______ _______ _______ _____ _____    ______ ____
ROOT
ATOM      1  C   LIG    1       24.032 -30.327   6.429  0.00  0.00    +0.185 C 
ATOM      2  O   LIG    1       24.653 -29.903   7.643  0.00  0.00    -0.334 OA
ATOM      3  C   LIG    1       25.092 -31.100   8.325  0.00  0.00    +0.219 C 
ATOM      4  O   LIG    1       24.888 -32.230   7.454  0.00  0.00    -0.341 OA
ATOM      5  C   LIG    1       24.604 -31.693   6.158  0.00  0.00    +0.198 C 
ENDROOT
BRANCH   3   6
ATOM      6  C   LIG    1       24.206 -31.302   9.579  0.00  0.00    +0.031 A 
ATOM      7  C   LIG    1       24.298 -32.407  10.454  0.00  0.00    +0.051 A 
ATOM      8 CL   LIG    1       25.492 -33.645  10.287  0.00  0.00    -0.083 Cl
ATOM      9  C   LIG    1       23.409 -32.564  11.537  0.00  0.00    +0.040 A 
ATOM     10  C   LIG    1       22.423 -31.616  11.782  0.00  0.00    +0.042 A 
ATOM     11 CL   LIG    1       21.347 -31.805  13.110  0.00  0.00    -0.084 Cl
ATOM     12  C   LIG    1       22.314 -30.508  10.956  0.00  0.00    +0.020 A 
ATOM     13  C   LIG    1       23.188 -30.359   9.873  0.00  0.00    +0.012 A 
ENDBRANCH   3   6
BRANCH   1  14
ATOM     14  C   LIG    1       24.324 -29.324   5.312  0.00  0.00    +0.263 C 
BRANCH  14  15
ATOM     15  O   LIG    1       25.542 -28.608   5.553  0.00  0.00    -0.489 OA
BRANCH  15  19
ATOM     16  C   LIG    1       25.003 -24.533   6.501  0.00  0.00    +0.030 A 
ATOM     17  C   LIG    1       26.268 -25.126   6.537  0.00  0.00    +0.027 A 
ATOM     18  C   LIG    1       26.476 -26.462   6.226  0.00  0.00    +0.047 A 
ATOM     19  C   LIG    1       25.412 -27.284   5.869  0.00  0.00    +0.121 A 
ATOM     20  C   LIG    1       24.136 -26.739   5.843  0.00  0.00    +0.047 A 
ATOM     21  C   LIG    1       23.932 -25.381   6.156  0.00  0.00    +0.027 A 
BRANCH  16  25
ATOM     22  N   LIG    1       24.063 -20.334   6.373  0.00  0.00    -0.297 NA
ATOM     23  C   LIG    1       23.263 -21.236   7.238  0.00  0.00    +0.103 C 
ATOM     24  C   LIG    1       23.404 -22.743   6.922  0.00  0.00    +0.120 C 
ATOM     25  N   LIG    1       24.816 -23.177   6.837  0.00  0.00    -0.327 N 
ATOM     26  C   LIG    1       25.751 -22.215   6.198  0.00  0.00    +0.120 C 
ATOM     27  C   LIG    1       25.470 -20.752   6.579  0.00  0.00    +0.103 C 
BRANCH  22  29
ATOM     28  C   LIG    1       22.236 -19.792   4.757  0.00  0.00    +0.024 C 
ATOM     29  C   LIG    1       23.642 -20.380   4.948  0.00  0.00    +0.051 C 
ATOM     30  C   LIG    1       24.608 -19.601   4.040  0.00  0.00    +0.024 C 
ENDBRANCH  22  29
ENDBRANCH  16  25
ENDBRANCH  15  19
ENDBRANCH  14  15
ENDBRANCH   1  14
BRANCH   3  31
ATOM     31  C   LIG    1       26.595 -30.905   8.648  0.00  0.00    +0.215 C 
BRANCH  31  32
ATOM     32  N   LIG    1       26.842 -29.949   9.733  0.00  0.00    -0.246 N 
ATOM     33  N   LIG    1       27.471 -30.320  10.860  0.00  0.00    -0.158 NA
ATOM     34  C   LIG    1       27.577 -29.150  11.500  0.00  0.00    +0.244 A 
ATOM     35  N   LIG    1       27.064 -28.079  10.857  0.00  0.00    -0.223 NA
ATOM     36  C   LIG    1       26.620 -28.609   9.723  0.00  0.00    +0.219 A 
ENDBRANCH  31  32
ENDBRANCH   3  31
TORSDOF 8
ENDMDL
MODEL 2
REMARK VINA RESULT:      -8.5      2.121      3.285
REMARK  Name = *****
REMARK                            x       y       z     vdW  Elec       q    Type
REMARK                         _______ _______ _______ _____ _____    ______ ____
ROOT
ATOM      1  C   LIG    1       24.523 -29.610   7.535  0.00  0.00    +0.185 C 
ATOM      2  O   LIG    1       25.840 -29.910   7.999  0.00  0.00    -0.334 OA
ATOM      3  C   LIG    1       25.689 -30.749   9.165  0.00  0.00    +0.219 C 
ATOM      4  O   LIG    1       24.296 -31.091   9.312  0.00  0.00    -0.341 OA
ATOM      5  C   LIG    1       23.658 -30.710   8.090  0.00  0.00    +0.198 C 
ENDROOT
BRANCH   3   6
ATOM      6  C   LIG    1       26.110 -29.933  10.413  0.00  0.00    +0.031 A 
ATOM      7  C   LIG    1       25.901 -30.346  11.747  0.00  0.00    +0.051 A 
ATOM      8 CL   LIG    1       25.225 -31.881  12.164  0.00  0.00    -0.083 Cl
ATOM      9  C   LIG    1       26.244 -29.520  12.836  0.00  0.00    +0.040 A 
ATOM     10  C   LIG    1       26.818 -28.272  12.620  0.00  0.00    +0.042 A 
ATOM     11 CL   LIG    1       27.244 -27.270  13.951  0.00  0.00    -0.084 Cl
ATOM     12  C   LIG    1       27.055 -27.839  11.325  0.00  0.00    +0.020 A 
ATOM     13  C   LIG    1       26.703 -28.656  10.243  0.00  0.00    +0.012 A 
ENDBRANCH   3   6
BRANCH   1  14
ATOM     14  C   LIG    1       24.505 -29.547   6.008  0.00  0.00    +0.263 C 
BRANCH  14  15
ATOM     15  O   LIG    1       25.475 -28.618   5.507  0.00  0.00    -0.489 OA
BRANCH  15  19
ATOM     16  C   LIG    1       24.981 -24.551   6.516  0.00  0.00    +0.030 A 
ATOM     17  C   LIG    1       23.898 -25.336   6.113  0.00  0.00    +0.027 A 
ATOM     18  C   LIG    1       24.029 -26.676   5.779  0.00  0.00    +0.047 A 
ATOM     19  C   LIG    1       25.271 -27.303   5.824  0.00  0.00    +0.121 A 
ATOM     20  C   LIG    1       26.376 -26.552   6.198  0.00  0.00    +0.047 A 
ATOM     21  C   LIG    1       26.235 -25.193   6.540  0.00  0.00    +0.027 A 
BRANCH  16  25
ATOM     22  N   LIG    1       24.121 -20.337   6.340  0.00  0.00    -0.297 NA
ATOM     23  C   LIG    1       23.310 -21.212   7.223  0.00  0.00    +0.103 C 
ATOM     24  C   LIG    1       23.420 -22.725   6.925  0.00  0.00    +0.120 C 
ATOM     25  N   LIG    1       24.823 -23.188   6.835  0.00  0.00    -0.327 N 
ATOM     26  C   LIG    1       25.771 -22.253   6.177  0.00  0.00    +0.120 C 
ATOM     27  C   LIG    1       25.521 -20.779   6.541  0.00  0.00    +0.103 C 
BRANCH  22  29
ATOM     28  C   LIG    1       22.265 -19.845   4.742  0.00  0.00    +0.024 C 
ATOM     29  C   LIG    1       23.689 -20.393   4.919  0.00  0.00    +0.051 C 
ATOM     30  C   LIG    1       24.624 -19.585   4.004  0.00  0.00    +0.024 C 
ENDBRANCH  22  29
ENDBRANCH  16  25
ENDBRANCH  15  19
ENDBRANCH  14  15
ENDBRANCH   1  14
BRANCH   3  31
ATOM     31  C   LIG    1       26.555 -32.011   8.925  0.00  0.00    +0.215 C 
BRANCH  31  32
ATOM     32  N   LIG    1       26.400 -32.582   7.583  0.00  0.00    -0.246 N 
ATOM     33  N   LIG    1       27.305 -32.352   6.617  0.00  0.00    -0.158 NA
ATOM     34  C   LIG    1       26.841 -33.129   5.632  0.00  0.00    +0.244 A 
ATOM     35  N   LIG    1       25.717 -33.825   5.910  0.00  0.00    -0.223 NA
ATOM     36  C   LIG    1       25.467 -33.477   7.167  0.00  0.00    +0.219 A 
ENDBRANCH  31  32
ENDBRANCH   3  31
TORSDOF 8
ENDMDL
MODEL 3
REMARK VINA RESULT:      -8.2      1.313      2.076
REMARK  Name = *****
REMARK                            x       y       z     vdW  Elec       q    Type
REMARK                         _______ _______ _______ _____ _____    ______ ____
ROOT
ATOM      1  C   LIG    1       24.360 -30.191   6.870  0.00  0.00    +0.185 C 
ATOM      2  O   LIG    1       24.358 -29.357   8.029  0.00  0.00    -0.334 OA
ATOM      3  C   LIG    1       25.350 -29.897   8.931  0.00  0.00    +0.219 C 
ATOM      4  O   LIG    1       26.064 -30.951   8.255  0.00  0.00    -0.341 OA
ATOM      5  C   LIG    1       25.711 -30.854   6.872  0.00  0.00    +0.198 C 
ENDROOT
BRANCH   3   6
ATOM      6  C   LIG    1       24.620 -30.522  10.145  0.00  0.00    +0.031 A 
ATOM      7  C   LIG    1       24.851 -31.827  10.633  0.00  0.00    +0.051 A 
ATOM      8 CL   LIG    1       26.063 -32.875   9.986  0.00  0.00    -0.083 Cl
ATOM      9  C   LIG    1       24.097 -32.358  11.699  0.00  0.00    +0.040 A 
ATOM     10  C   LIG    1       23.111 -31.596  12.313  0.00  0.00    +0.042 A 
ATOM     11 CL   LIG    1       22.199 -32.243  13.620  0.00  0.00    -0.084 Cl
ATOM     12  C   LIG    1       22.867 -30.304  11.874  0.00  0.00    +0.020 A 
ATOM     13  C   LIG    1       23.608 -29.780  10.807  0.00  0.00    +0.012 A 
ENDBRANCH   3   6
BRANCH   1  14
ATOM     14  C   LIG    1       24.108 -29.350   5.618  0.00  0.00    +0.263 C 
BRANCH  14  15
ATOM     15  O   LIG    1       25.236 -28.524   5.302  0.00  0.00    -0.489 OA
BRANCH  15  19
ATOM     16  C   LIG    1       25.120 -24.494   6.545  0.00  0.00    +0.030 A 
ATOM     17  C   LIG    1       23.977 -25.140   6.068  0.00  0.00    +0.027 A 
ATOM     18  C   LIG    1       23.984 -26.465   5.656  0.00  0.00    +0.047 A 
ATOM     19  C   LIG    1       25.155 -27.217   5.694  0.00  0.00    +0.121 A 
ATOM     20  C   LIG    1       26.317 -26.605   6.141  0.00  0.00    +0.047 A 
ATOM     21  C   LIG    1       26.302 -25.260   6.561  0.00  0.00    +0.027 A 
BRANCH  16  25
ATOM     22  N   LIG    1       26.142 -20.378   7.285  0.00  0.00    -0.297 NA
ATOM     23  C   LIG    1       25.055 -20.701   6.327  0.00  0.00    +0.103 C 
ATOM     24  C   LIG    1       25.031 -22.165   5.832  0.00  0.00    +0.120 C 
ATOM     25  N   LIG    1       25.090 -23.142   6.943  0.00  0.00    -0.327 N 
ATOM     26  C   LIG    1       25.976 -22.779   8.078  0.00  0.00    +0.120 C 
ATOM     27  C   LIG    1       25.920 -21.285   8.437  0.00  0.00    +0.103 C 
BRANCH  22  29
ATOM     28  C   LIG    1       27.641 -19.653   5.423  0.00  0.00    +0.024 C 
ATOM     29  C   LIG    1       27.496 -20.513   6.688  0.00  0.00    +0.051 C 
ATOM     30  C   LIG    1       28.601 -20.097   7.672  0.00  0.00    +0.024 C 
ENDBRANCH  22  29
ENDBRANCH  16  25
ENDBRANCH  15  19
ENDBRANCH  14  15
ENDBRANCH   1  14
BRANCH   3  31
ATOM     31  C   LIG    1       26.297 -28.729   9.306  0.00  0.00    +0.215 C 
BRANCH  31  32
ATOM     32  N   LIG    1       27.000 -28.930  10.578  0.00  0.00    -0.246 N 
ATOM     33  N   LIG    1       28.003 -29.815  10.689  0.00  0.00    -0.158 NA
ATOM     34  C   LIG    1       28.412 -29.595  11.943  0.00  0.00    +0.244 A 
ATOM     35  N   LIG    1       27.740 -28.640  12.622  0.00  0.00    -0.223 NA
ATOM     36  C   LIG    1       26.859 -28.215  11.724  0.00  0.00    +0.219 A 
ENDBRANCH  31  32
ENDBRANCH   3  31
TORSDOF 8
ENDMDL
MODEL 4
REMARK VINA RESULT:      -8.1      4.495     10.447
REMARK  Name = *****
REMARK                            x       y       z     vdW  Elec       q    Type
REMARK                         _______ _______ _______ _____ _____    ______ ____
ROOT
ATOM      1  C   LIG    1       25.531 -23.168   6.915  0.00  0.00    +0.185 C 
ATOM      2  O   LIG    1       25.876 -22.383   5.772  0.00  0.00    -0.334 OA
ATOM      3  C   LIG    1       25.894 -21.004   6.205  0.00  0.00    +0.219 C 
ATOM      4  O   LIG    1       25.723 -20.966   7.636  0.00  0.00    -0.341 OA
ATOM      5  C   LIG    1       25.895 -22.310   8.097  0.00  0.00    +0.198 C 
ENDROOT
BRANCH   3   6
ATOM      6  C   LIG    1       24.686 -20.275   5.565  0.00  0.00    +0.031 A 
ATOM      7  C   LIG    1       23.352 -20.387   6.015  0.00  0.00    +0.051 A 
ATOM      8 CL   LIG    1       22.904 -21.292   7.418  0.00  0.00    -0.083 Cl
ATOM      9  C   LIG    1       22.291 -19.752   5.340  0.00  0.00    +0.040 A 
ATOM     10  C   LIG    1       22.537 -18.977   4.212  0.00  0.00    +0.042 A 
ATOM     11 CL   LIG    1       21.242 -18.195   3.395  0.00  0.00    -0.084 Cl
ATOM     12  C   LIG    1       23.836 -18.828   3.750  0.00  0.00    +0.020 A 
ATOM     13  C   LIG    1       24.888 -19.470   4.414  0.00  0.00    +0.012 A 
ENDBRANCH   3   6
BRANCH   1  14
ATOM     14  C   LIG    1       26.286 -24.497   6.886  0.00  0.00    +0.263 C 
BRANCH  14  15
ATOM     15  O   LIG    1       25.957 -25.265   5.721  0.00  0.00    -0.489 OA
BRANCH  15  19
ATOM     16  C   LIG    1       24.947 -29.283   6.513  0.00  0.00    +0.030 A 
ATOM     17  C   LIG    1       24.717 -28.710   5.260  0.00  0.00    +0.027 A 
ATOM     18  C   LIG    1       25.041 -27.393   4.969  0.00  0.00    +0.047 A 
ATOM     19  C   LIG    1       25.613 -26.570   5.936  0.00  0.00    +0.121 A 
ATOM     20  C   LIG    1       25.838 -27.096   7.200  0.00  0.00    +0.047 A 
ATOM     21  C   LIG    1       25.510 -28.435   7.487  0.00  0.00    +0.027 A 
BRANCH  16  25
ATOM     22  N   LIG    1       24.753 -33.252   8.169  0.00  0.00    -0.297 NA
ATOM     23  C   LIG    1       23.610 -32.324   8.357  0.00  0.00    +0.103 C 
ATOM     24  C   LIG    1       23.924 -30.835   8.089  0.00  0.00    +0.120 C 
ATOM     25  N   LIG    1       24.594 -30.620   6.787  0.00  0.00    -0.327 N 
ATOM     26  C   LIG    1       25.590 -31.649   6.395  0.00  0.00    +0.120 C 
ATOM     27  C   LIG    1       25.157 -33.081   6.753  0.00  0.00    +0.103 C 
BRANCH  22  29
ATOM     28  C   LIG    1       25.450 -33.355  10.566  0.00  0.00    +0.024 C 
ATOM     29  C   LIG    1       25.861 -33.004   9.128  0.00  0.00    +0.051 C 
ATOM     30  C   LIG    1       27.114 -33.825   8.780  0.00  0.00    +0.024 C 
ENDBRANCH  22  29
ENDBRANCH  16  25
ENDBRANCH  15  19
ENDBRANCH  14  15
ENDBRANCH   1  14
BRANCH   3  31
ATOM     31  C   LIG    1       27.267 -20.421   5.787  0.00  0.00    +0.215 C 
BRANCH  31  32
ATOM     32  N   LIG    1       28.265 -20.445   6.860  0.00  0.00    -0.246 N 
ATOM     33  N   LIG    1       29.004 -21.540   7.103  0.00  0.00    -0.158 NA
ATOM     34  C   LIG    1       29.830 -21.095   8.056  0.00  0.00    +0.244 A 
ATOM     35  N   LIG    1       29.664 -19.807   8.425  0.00  0.00    -0.223 NA
ATOM     36  C   LIG    1       28.674 -19.407   7.635  0.00  0.00    +0.219 A 
ENDBRANCH  31  32
ENDBRANCH   3  31
TORSDOF 8
ENDMDL
MODEL 5
REMARK VINA RESULT:      -8.1      3.980      9.546
REMARK  Name = *****
REMARK                            x       y       z     vdW  Elec       q    Type
REMARK                         _______ _______ _______ _____ _____    ______ ____
ROOT
ATOM      1  C   LIG    1       24.738 -25.298   5.035  0.00  0.00    +0.185 C 
ATOM      2  O   LIG    1       25.535 -24.178   5.419  0.00  0.00    -0.334 OA
ATOM      3  C   LIG    1       24.807 -23.486   6.458  0.00  0.00    +0.219 C 
ATOM      4  O   LIG    1       23.653 -24.272   6.816  0.00  0.00    -0.341 OA
ATOM      5  C   LIG    1       23.839 -25.557   6.215  0.00  0.00    +0.198 C 
ENDROOT
BRANCH   3   6
ATOM      6  C   LIG    1       24.301 -22.137   5.886  0.00  0.00    +0.031 A 
ATOM      7  C   LIG    1       23.438 -21.252   6.568  0.00  0.00    +0.051 A 
ATOM      8 CL   LIG    1       22.903 -21.519   8.190  0.00  0.00    -0.083 Cl
ATOM      9  C   LIG    1       22.959 -20.075   5.958  0.00  0.00    +0.040 A 
ATOM     10  C   LIG    1       23.343 -19.746   4.664  0.00  0.00    +0.042 A 
ATOM     11 CL   LIG    1       22.765 -18.305   3.925  0.00  0.00    -0.084 Cl
ATOM     12  C   LIG    1       24.203 -20.581   3.969  0.00  0.00    +0.020 A 
ATOM     13  C   LIG    1       24.670 -21.756   4.570  0.00  0.00    +0.012 A 
ENDBRANCH   3   6
BRANCH   1  14
ATOM     14  C   LIG    1       25.634 -26.488   4.693  0.00  0.00    +0.263 C 
BRANCH  14  15
ATOM     15  O   LIG    1       26.452 -26.869   5.808  0.00  0.00    -0.489 OA
BRANCH  15  19
ATOM     16  C   LIG    1       24.918 -29.742   8.490  0.00  0.00    +0.030 A 
ATOM     17  C   LIG    1       24.527 -29.719   7.148  0.00  0.00    +0.027 A 
ATOM     18  C   LIG    1       25.017 -28.790   6.243  0.00  0.00    +0.047 A 
ATOM     19  C   LIG    1       25.929 -27.817   6.643  0.00  0.00    +0.121 A 
ATOM     20  C   LIG    1       26.325 -27.792   7.973  0.00  0.00    +0.047 A 
ATOM     21  C   LIG    1       25.826 -28.741   8.886  0.00  0.00    +0.027 A 
BRANCH  16  25
ATOM     22  N   LIG    1       22.314 -31.963  11.100  0.00  0.00    -0.297 NA
ATOM     23  C   LIG    1       22.824 -32.600   9.861  0.00  0.00    +0.103 C 
ATOM     24  C   LIG    1       23.404 -31.624   8.813  0.00  0.00    +0.120 C 
ATOM     25  N   LIG    1       24.393 -30.688   9.393  0.00  0.00    -0.327 N 
ATOM     26  C   LIG    1       24.083 -30.183  10.755  0.00  0.00    +0.120 C 
ATOM     27  C   LIG    1       23.482 -31.256  11.678  0.00  0.00    +0.103 C 
BRANCH  22  29
ATOM     28  C   LIG    1       19.941 -31.851  10.327  0.00  0.00    +0.024 C 
ATOM     29  C   LIG    1       21.153 -31.068  10.853  0.00  0.00    +0.051 C 
ATOM     30  C   LIG    1       20.720 -30.325  12.127  0.00  0.00    +0.024 C 
ENDBRANCH  22  29
ENDBRANCH  16  25
ENDBRANCH  15  19
ENDBRANCH  14  15
ENDBRANCH   1  14
BRANCH   3  31
ATOM     31  C   LIG    1       25.775 -23.330   7.657  0.00  0.00    +0.215 C 
BRANCH  31  32
ATOM     32  N   LIG    1       26.462 -22.035   7.691  0.00  0.00    -0.246 N 
ATOM     33  N   LIG    1       26.281 -21.175   8.707  0.00  0.00    -0.158 NA
ATOM     34  C   LIG    1       27.155 -20.211   8.395  0.00  0.00    +0.244 A 
ATOM     35  N   LIG    1       27.867 -20.406   7.264  0.00  0.00    -0.223 NA
ATOM     36  C   LIG    1       27.424 -21.585   6.844  0.00  0.00    +0.219 A 
ENDBRANCH  31  32
ENDBRANCH   3  31
TORSDOF 8
ENDMDL
MODEL 6
REMARK VINA RESULT:      -7.9      3.998      9.245
REMARK  Name = *****
REMARK                            x       y       z     vdW  Elec       q    Type
REMARK                         _______ _______ _______ _____ _____    ______ ____
ROOT
ATOM      1  C   LIG    1       24.730 -25.368   5.070  0.00  0.00    +0.185 C 
ATOM      2  O   LIG    1       25.531 -24.253   5.464  0.00  0.00    -0.334 OA
ATOM      3  C   LIG    1       24.785 -23.544   6.479  0.00  0.00    +0.219 C 
ATOM      4  O   LIG    1       23.614 -24.314   6.816  0.00  0.00    -0.341 OA
ATOM      5  C   LIG    1       23.800 -25.606   6.230  0.00  0.00    +0.198 C 
ENDROOT
BRANCH   3   6
ATOM      6  C   LIG    1       24.310 -22.195   5.883  0.00  0.00    +0.031 A 
ATOM      7  C   LIG    1       23.427 -21.302   6.529  0.00  0.00    +0.051 A 
ATOM      8 CL   LIG    1       22.831 -21.558   8.131  0.00  0.00    -0.083 Cl
ATOM      9  C   LIG    1       22.979 -20.124   5.897  0.00  0.00    +0.040 A 
ATOM     10  C   LIG    1       23.413 -19.803   4.617  0.00  0.00    +0.042 A 
ATOM     11 CL   LIG    1       22.872 -18.361   3.852  0.00  0.00    -0.084 Cl
ATOM     12  C   LIG    1       24.293 -20.646   3.958  0.00  0.00    +0.020 A 
ATOM     13  C   LIG    1       24.729 -21.822   4.581  0.00  0.00    +0.012 A 
ENDBRANCH   3   6
BRANCH   1  14
ATOM     14  C   LIG    1       25.620 -26.572   4.761  0.00  0.00    +0.263 C 
BRANCH  14  15
ATOM     15  O   LIG    1       25.004 -27.801   5.166  0.00  0.00    -0.489 OA
BRANCH  15  19
ATOM     16  C   LIG    1       25.687 -29.159   9.101  0.00  0.00    +0.030 A 
ATOM     17  C   LIG    1       26.409 -28.089   8.566  0.00  0.00    +0.027 A 
ATOM     18  C   LIG    1       26.205 -27.618   7.278  0.00  0.00    +0.047 A 
ATOM     19  C   LIG    1       25.258 -28.210   6.446  0.00  0.00    +0.121 A 
ATOM     20  C   LIG    1       24.535 -29.289   6.932  0.00  0.00    +0.047 A 
ATOM     21  C   LIG    1       24.746 -29.760   8.243  0.00  0.00    +0.027 A 
BRANCH  16  25
ATOM     22  N   LIG    1       26.167 -29.438  13.370  0.00  0.00    -0.297 NA
ATOM     23  C   LIG    1       25.060 -30.172  12.709  0.00  0.00    +0.103 C 
ATOM     24  C   LIG    1       24.728 -29.705  11.274  0.00  0.00    +0.120 C 
ATOM     25  N   LIG    1       25.926 -29.628  10.409  0.00  0.00    -0.327 N 
ATOM     26  C   LIG    1       27.164 -29.129  11.061  0.00  0.00    +0.120 C 
ATOM     27  C   LIG    1       27.345 -29.651  12.497  0.00  0.00    +0.103 C 
BRANCH  22  29
ATOM     28  C   LIG    1       24.617 -27.824  14.482  0.00  0.00    +0.024 C 
ATOM     29  C   LIG    1       25.855 -28.001  13.590  0.00  0.00    +0.051 C 
ATOM     30  C   LIG    1       27.025 -27.255  14.251  0.00  0.00    +0.024 C 
ENDBRANCH  22  29
ENDBRANCH  16  25
ENDBRANCH  15  19
ENDBRANCH  14  15
ENDBRANCH   1  14
BRANCH   3  31
ATOM     31  C   LIG    1       25.726 -23.389   7.700  0.00  0.00    +0.215 C 
BRANCH  31  32
ATOM     32  N   LIG    1       26.348 -22.064   7.796  0.00  0.00    -0.246 N 
ATOM     33  N   LIG    1       26.069 -21.234   8.815  0.00  0.00    -0.158 NA
ATOM     34  C   LIG    1       26.912 -20.225   8.571  0.00  0.00    +0.244 A 
ATOM     35  N   LIG    1       27.696 -20.363   7.479  0.00  0.00    -0.223 NA
ATOM     36  C   LIG    1       27.334 -21.553   7.014  0.00  0.00    +0.219 A 
ENDBRANCH  31  32
ENDBRANCH   3  31
TORSDOF 8
ENDMDL
MODEL 7
REMARK VINA RESULT:      -7.9      2.483      3.627
REMARK  Name = *****
REMARK                            x       y       z     vdW  Elec       q    Type
REMARK                         _______ _______ _______ _____ _____    ______ ____
ROOT
ATOM      1  C   LIG    1       24.327 -29.592   8.475  0.00  0.00    +0.185 C 
ATOM      2  O   LIG    1       25.454 -29.866   9.308  0.00  0.00    -0.334 OA
ATOM      3  C   LIG    1       24.933 -30.265  10.595  0.00  0.00    +0.219 C 
ATOM      4  O   LIG    1       23.501 -30.391  10.495  0.00  0.00    -0.341 OA
ATOM      5  C   LIG    1       23.190 -30.357   9.099  0.00  0.00    +0.198 C 
ENDROOT
BRANCH   3   6
ATOM      6  C   LIG    1       25.239 -29.141  11.617  0.00  0.00    +0.031 A 
ATOM      7  C   LIG    1       26.537 -28.696  11.953  0.00  0.00    +0.051 A 
ATOM      8 CL   LIG    1       27.966 -29.292  11.185  0.00  0.00    -0.083 Cl
ATOM      9  C   LIG    1       26.745 -27.718  12.946  0.00  0.00    +0.040 A 
ATOM     10  C   LIG    1       25.667 -27.150  13.613  0.00  0.00    +0.042 A 
ATOM     11 CL   LIG    1       25.923 -25.950  14.818  0.00  0.00    -0.084 Cl
ATOM     12  C   LIG    1       24.377 -27.548  13.298  0.00  0.00    +0.020 A 
ATOM     13  C   LIG    1       24.170 -28.529  12.320  0.00  0.00    +0.012 A 
ENDBRANCH   3   6
BRANCH   1  14
ATOM     14  C   LIG    1       24.619 -30.022   7.037  0.00  0.00    +0.263 C 
BRANCH  14  15
ATOM     15  O   LIG    1       25.591 -29.168   6.419  0.00  0.00    -0.489 OA
BRANCH  15  19
ATOM     16  C   LIG    1       24.723 -25.041   6.322  0.00  0.00    +0.030 A 
ATOM     17  C   LIG    1       23.950 -25.963   5.611  0.00  0.00    +0.027 A 
ATOM     18  C   LIG    1       24.209 -27.326   5.627  0.00  0.00    +0.047 A 
ATOM     19  C   LIG    1       25.276 -27.839   6.359  0.00  0.00    +0.121 A 
ATOM     20  C   LIG    1       26.081 -26.954   7.062  0.00  0.00    +0.047 A 
ATOM     21  C   LIG    1       25.809 -25.572   7.044  0.00  0.00    +0.027 A 
BRANCH  16  25
ATOM     22  N   LIG    1       25.084 -20.752   6.311  0.00  0.00    -0.297 NA
ATOM     23  C   LIG    1       24.631 -21.450   5.083  0.00  0.00    +0.103 C 
ATOM     24  C   LIG    1       24.912 -22.970   5.052  0.00  0.00    +0.120 C 
ATOM     25  N   LIG    1       24.447 -23.660   6.277  0.00  0.00    -0.327 N 
ATOM     26  C   LIG    1       24.638 -22.917   7.549  0.00  0.00    +0.120 C 
ATOM     27  C   LIG    1       24.354 -21.411   7.420  0.00  0.00    +0.103 C 
BRANCH  22  29
ATOM     28  C   LIG    1       27.265 -19.867   5.473  0.00  0.00    +0.024 C 
ATOM     29  C   LIG    1       26.561 -20.785   6.483  0.00  0.00    +0.051 C 
ATOM     30  C   LIG    1       26.984 -20.349   7.894  0.00  0.00    +0.024 C 
ENDBRANCH  22  29
ENDBRANCH  16  25
ENDBRANCH  15  19
ENDBRANCH  14  15
ENDBRANCH   1  14
BRANCH   3  31
ATOM     31  C   LIG    1       25.593 -31.622  10.945  0.00  0.00    +0.215 C 
BRANCH  31  32
ATOM     32  N   LIG    1       26.028 -32.383   9.770  0.00  0.00    -0.246 N 
ATOM     33  N   LIG    1       27.313 -32.392   9.380  0.00  0.00    -0.158 NA
ATOM     34  C   LIG    1       27.277 -33.271   8.372  0.00  0.00    +0.244 A 
ATOM     35  N   LIG    1       26.068 -33.811   8.105  0.00  0.00    -0.223 NA
ATOM     36  C   LIG    1       25.292 -33.246   9.023  0.00  0.00    +0.219 A 
ENDBRANCH  31  32
ENDBRANCH   3  31
TORSDOF 8
ENDMDL
MODEL 8
REMARK VINA RESULT:      -7.8      1.546      2.047
REMARK  Name = *****
REMARK                            x       y       z     vdW  Elec       q    Type
REMARK                         _______ _______ _______ _____ _____    ______ ____
ROOT
ATOM      1  C   LIG    1       24.639 -30.587   7.392  0.00  0.00    +0.185 C 
ATOM      2  O   LIG    1       24.287 -30.374   8.759  0.00  0.00    -0.334 OA
ATOM      3  C   LIG    1       24.164 -31.680   9.365  0.00  0.00    +0.219 C 
ATOM      4  O   LIG    1       24.599 -32.673   8.415  0.00  0.00    -0.341 OA
ATOM      5  C   LIG    1       25.252 -31.962   7.359  0.00  0.00    +0.198 C 
ENDROOT
BRANCH   3   6
ATOM      6  C   LIG    1       22.667 -31.940   9.669  0.00  0.00    +0.031 A 
ATOM      7  C   LIG    1       21.863 -31.120  10.491  0.00  0.00    +0.051 A 
ATOM      8 CL   LIG    1       22.430 -29.647  11.196  0.00  0.00    -0.083 Cl
ATOM      9  C   LIG    1       20.526 -31.456  10.783  0.00  0.00    +0.040 A 
ATOM     10  C   LIG    1       19.956 -32.606  10.250  0.00  0.00    +0.042 A 
ATOM     11 CL   LIG    1       18.322 -33.009  10.601  0.00  0.00    -0.084 Cl
ATOM     12  C   LIG    1       20.708 -33.427   9.425  0.00  0.00    +0.020 A 
ATOM     13  C   LIG    1       22.040 -33.099   9.144  0.00  0.00    +0.012 A 
ENDBRANCH   3   6
BRANCH   1  14
ATOM     14  C   LIG    1       25.598 -29.493   6.920  0.00  0.00    +0.263 C 
BRANCH  14  15
ATOM     15  O   LIG    1       25.027 -28.712   5.863  0.00  0.00    -0.489 OA
BRANCH  15  19
ATOM     16  C   LIG    1       24.845 -24.571   6.649  0.00  0.00    +0.030 A 
ATOM     17  C   LIG    1       23.919 -25.192   5.808  0.00  0.00    +0.027 A 
ATOM     18  C   LIG    1       23.951 -26.551   5.533  0.00  0.00    +0.047 A 
ATOM     19  C   LIG    1       24.933 -27.367   6.090  0.00  0.00    +0.121 A 
ATOM     20  C   LIG    1       25.885 -26.785   6.914  0.00  0.00    +0.047 A 
ATOM     21  C   LIG    1       25.843 -25.404   7.191  0.00  0.00    +0.027 A 
BRANCH  16  25
ATOM     22  N   LIG    1       24.255 -20.323   6.286  0.00  0.00    -0.297 NA
ATOM     23  C   LIG    1       23.450 -21.091   7.268  0.00  0.00    +0.103 C 
ATOM     24  C   LIG    1       23.439 -22.622   7.051  0.00  0.00    +0.120 C 
ATOM     25  N   LIG    1       24.799 -23.185   6.899  0.00  0.00    -0.327 N 
ATOM     26  C   LIG    1       25.760 -22.354   6.129  0.00  0.00    +0.120 C 
ATOM     27  C   LIG    1       25.633 -20.850   6.423  0.00  0.00    +0.103 C 
BRANCH  22  29
ATOM     28  C   LIG    1       22.310 -19.834   4.795  0.00  0.00    +0.024 C 
ATOM     29  C   LIG    1       23.725 -20.423   4.901  0.00  0.00    +0.051 C 
ATOM     30  C   LIG    1       24.620 -19.688   3.891  0.00  0.00    +0.024 C 
ENDBRANCH  22  29
ENDBRANCH  16  25
ENDBRANCH  15  19
ENDBRANCH  14  15
ENDBRANCH   1  14
BRANCH   3  31
ATOM     31  C   LIG    1       25.064 -31.677  10.626  0.00  0.00    +0.215 C 
BRANCH  31  32
ATOM     32  N   LIG    1       26.021 -30.566  10.659  0.00  0.00    -0.246 N 
ATOM     33  N   LIG    1       25.820 -29.494  11.442  0.00  0.00    -0.158 NA
ATOM     34  C   LIG    1       26.953 -28.810  11.250  0.00  0.00    +0.244 A 
ATOM     35  N   LIG    1       27.846 -29.375  10.408  0.00  0.00    -0.223 NA
ATOM     36  C   LIG    1       27.239 -30.504  10.060  0.00  0.00    +0.219 A 
ENDBRANCH  31  32
ENDBRANCH   3  31
TORSDOF 8
ENDMDL
MODEL 9
REMARK VINA RESULT:      -7.7      4.399     10.802
REMARK  Name = *****
REMARK                            x       y       z     vdW  Elec       q    Type
REMARK                         _______ _______ _______ _____ _____    ______ ____
ROOT
ATOM      1  C   LIG    1       25.364 -24.140   6.155  0.00  0.00    +0.185 C 
ATOM      2  O   LIG    1       25.360 -23.079   7.110  0.00  0.00    -0.334 OA
ATOM      3  C   LIG    1       25.323 -21.844   6.359  0.00  0.00    +0.219 C 
ATOM      4  O   LIG    1       25.140 -22.157   4.963  0.00  0.00    -0.341 OA
ATOM      5  C   LIG    1       24.777 -23.540   4.905  0.00  0.00    +0.198 C 
ENDROOT
BRANCH   3   6
ATOM      6  C   LIG    1       26.694 -21.139   6.509  0.00  0.00    +0.031 A 
ATOM      7  C   LIG    1       27.165 -20.114   5.659  0.00  0.00    +0.051 A 
ATOM      8 CL   LIG    1       26.218 -19.441   4.380  0.00  0.00    -0.083 Cl
ATOM      9  C   LIG    1       28.455 -19.566   5.811  0.00  0.00    +0.040 A 
ATOM     10  C   LIG    1       29.296 -20.014   6.822  0.00  0.00    +0.042 A 
ATOM     11 CL   LIG    1       30.865 -19.337   7.011  0.00  0.00    -0.084 Cl
ATOM     12  C   LIG    1       28.862 -21.005   7.689  0.00  0.00    +0.020 A 
ATOM     13  C   LIG    1       27.586 -21.558   7.530  0.00  0.00    +0.012 A 
ENDBRANCH   3   6
BRANCH   1  14
ATOM     14  C   LIG    1       24.558 -25.326   6.684  0.00  0.00    +0.263 C 
BRANCH  14  15
ATOM     15  O   LIG    1       24.422 -26.355   5.695  0.00  0.00    -0.489 OA
BRANCH  15  19
ATOM     16  C   LIG    1       24.978 -30.272   7.160  0.00  0.00    +0.030 A 
ATOM     17  C   LIG    1       24.263 -30.031   5.984  0.00  0.00    +0.027 A 
ATOM     18  C   LIG    1       24.067 -28.755   5.476  0.00  0.00    +0.047 A 
ATOM     19  C   LIG    1       24.578 -27.640   6.135  0.00  0.00    +0.121 A 
ATOM     20  C   LIG    1       25.275 -27.835   7.319  0.00  0.00    +0.047 A 
ATOM     21  C   LIG    1       25.474 -29.134   7.826  0.00  0.00    +0.027 A 
BRANCH  16  25
ATOM     22  N   LIG    1       24.947 -33.777   9.659  0.00  0.00    -0.297 NA
ATOM     23  C   LIG    1       24.145 -33.762   8.410  0.00  0.00    +0.103 C 
ATOM     24  C   LIG    1       23.902 -32.362   7.804  0.00  0.00    +0.120 C 
ATOM     25  N   LIG    1       25.149 -31.577   7.662  0.00  0.00    -0.327 N 
ATOM     26  C   LIG    1       26.134 -31.725   8.765  0.00  0.00    +0.120 C 
ATOM     27  C   LIG    1       26.246 -33.167   9.289  0.00  0.00    +0.103 C 
BRANCH  22  29
ATOM     28  C   LIG    1       22.899 -33.697  11.088  0.00  0.00    +0.024 C 
ATOM     29  C   LIG    1       24.272 -33.079  10.785  0.00  0.00    +0.051 C 
ATOM     30  C   LIG    1       25.109 -33.129  12.073  0.00  0.00    +0.024 C 
ENDBRANCH  22  29
ENDBRANCH  16  25
ENDBRANCH  15  19
ENDBRANCH  14  15
ENDBRANCH   1  14
BRANCH   3  31
ATOM     31  C   LIG    1       24.134 -21.019   6.910  0.00  0.00    +0.215 C 
BRANCH  31  32
ATOM     32  N   LIG    1       23.164 -20.630   5.882  0.00  0.00    -0.246 N 
ATOM     33  N   LIG    1       22.212 -21.479   5.462  0.00  0.00    -0.158 NA
ATOM     34  C   LIG    1       21.509 -20.699   4.634  0.00  0.00    +0.244 A 
ATOM     35  N   LIG    1       21.948 -19.428   4.507  0.00  0.00    -0.223 NA
ATOM     36  C   LIG    1       22.991 -19.401   5.328  0.00  0.00    +0.219 A 
ENDBRANCH  31  32
ENDBRANCH   3  31
TORSDOF 8
ENDMDL
