MODEL 1
REMARK VINA RESULT:     137.7      0.000      0.000
REMARK  Name = *****
REMARK                            x       y       z     vdW  Elec       q    Type
REMARK                         _______ _______ _______ _____ _____    ______ ____
ROOT
ATOM      1  C   LIG    1       25.301 -16.716   2.200  0.00  0.00    +0.007 C 
ENDROOT
BRANCH   1   2
ATOM      2  C   LIG    1       26.289 -17.759   3.694  0.00  0.00    +0.041 C 
BRANCH   2   3
ATOM      3  C   LIG    1       25.131 -17.564   5.326  0.00  0.00    +0.232 C 
BRANCH   3   4
ATOM      4  O   LIG    1       23.548 -18.491   5.710  0.00  0.00    -0.465 OA
BRANCH   4   5
ATOM      5  C   LIG    1       23.210 -20.479   4.959  0.00  0.00    +0.312 C 
ATOM      6  O   LIG    1       22.546 -20.774   3.948  0.00  0.00    -0.251 OA
BRANCH   5   7
ATOM      7  C   LIG    1       24.712 -21.572   4.722  0.00  0.00    +0.171 C 
BRANCH   7   8
ATOM      8  C   LIG    1       26.192 -21.290   5.201  0.00  0.00    +0.145 C 
BRANCH   8   9
ATOM      9  N   LIG    1       26.947 -19.868   5.107  0.00  0.00    +0.247 N 
ATOM     10  C   LIG    1       25.958 -18.777   5.178  0.00  0.00    +0.102 C 
ATOM     11  C   LIG    1       26.761 -17.285   4.646  0.00  0.00    +0.008 A 
ATOM     12  C   LIG    1       27.951 -16.851   5.356  0.00  0.00    -0.030 A 
ATOM     13  C   LIG    1       28.358 -15.597   5.617  0.00  0.00    +0.053 A 
ATOM     14  C   LIG    1       28.228 -14.939   4.481  0.00  0.00    +0.162 A 
ATOM     15  C   LIG    1       27.076 -15.298   3.620  0.00  0.00    +0.162 A 
ATOM     16  C   LIG    1       28.580 -17.738   6.296  0.00  0.00    +0.086 C 
ATOM     17  C   LIG    1       26.210 -16.389   3.824  0.00  0.00    +0.059 A 
ATOM     18  C   LIG    1       28.117 -19.608   5.976  0.00  0.00    +0.138 C 
ATOM     19  C   LIG    1       27.686 -19.706   3.824  0.00  0.00    +0.193 C 
BRANCH  14  20
ATOM     20  O   LIG    1       29.275 -14.111   4.181  0.00  0.00    -0.491 OA
ATOM     21  C   LIG    1       29.469 -13.740   2.788  0.00  0.00    +0.277 C 
ENDBRANCH  14  20
BRANCH  15  22
ATOM     22  O   LIG    1       26.736 -14.736   2.439  0.00  0.00    -0.491 OA
ATOM     23  C   LIG    1       27.823 -14.120   1.814  0.00  0.00    +0.277 C 
ENDBRANCH  15  22
BRANCH  10  24
ATOM     24  C   LIG    1       25.289 -18.913   6.999  0.00  0.00    +0.095 C 
BRANCH  24  25
ATOM     25  C   LIG    1       24.142 -19.368   6.799  0.00  0.00    -0.038 A 
ATOM     26  C   LIG    1       23.356 -17.607   6.662  0.00  0.00    +0.053 A 
ATOM     27  C   LIG    1       21.960 -17.380   5.969  0.00  0.00    +0.162 A 
ATOM     28  C   LIG    1       21.225 -18.611   5.050  0.00  0.00    +0.162 A 
ATOM     29  C   LIG    1       21.905 -20.154   4.767  0.00  0.00    +0.050 A 
ATOM     30  C   LIG    1       23.344 -20.746   5.684  0.00  0.00    +0.007 A 
BRANCH  28  31
ATOM     31  O   LIG    1       19.859 -18.771   5.038  0.00  0.00    -0.491 OA
ATOM     32  C   LIG    1       19.443 -19.095   3.736  0.00  0.00    +0.277 C 
ENDBRANCH  28  31
BRANCH  27  33
ATOM     33  O   LIG    1       21.395 -16.326   6.639  0.00  0.00    -0.491 OA
ATOM     34  C   LIG    1       21.098 -15.248   5.795  0.00  0.00    +0.277 C 
ENDBRANCH  27  33
ENDBRANCH  24  25
ENDBRANCH  10  24
ENDBRANCH   8   9
ENDBRANCH   7   8
ENDBRANCH   5   7
ENDBRANCH   4   5
ENDBRANCH   3   4
ENDBRANCH   2   3
ENDBRANCH   1   2
BRANCH   1  35
ATOM     35  C   LIG    1       23.953 -15.241   2.534  0.00  0.00    +0.041 C 
BRANCH  35  36
ATOM     36  C   LIG    1       23.772 -14.361   4.104  0.00  0.00    +0.232 C 
BRANCH  36  37
ATOM     37  O   LIG    1       24.962 -14.167   4.812  0.00  0.00    -0.465 OA
BRANCH  37  38
ATOM     38  C   LIG    1       25.047 -14.672   6.072  0.00  0.00    +0.312 C 
ATOM     39  O   LIG    1       25.952 -15.007   6.835  0.00  0.00    -0.251 OA
BRANCH  38  40
ATOM     40  C   LIG    1       23.769 -14.528   6.651  0.00  0.00    +0.171 C 
BRANCH  40  41
ATOM     41  C   LIG    1       22.540 -13.914   6.063  0.00  0.00    +0.145 C 
BRANCH  41  43
ATOM     42  C   LIG    1       23.603 -12.304   4.198  0.00  0.00    +0.102 C 
ATOM     43  N   LIG    1       22.575 -12.528   5.386  0.00  0.00    +0.247 N 
ATOM     44  C   LIG    1       21.232 -12.007   4.997  0.00  0.00    +0.193 C 
ATOM     45  C   LIG    1       22.920 -11.493   6.452  0.00  0.00    +0.138 C 
ATOM     46  C   LIG    1       24.284 -11.462   7.058  0.00  0.00    +0.086 C 
ATOM     47  C   LIG    1       25.326 -11.704   6.036  0.00  0.00    -0.030 A 
ATOM     48  C   LIG    1       26.627 -11.454   6.502  0.00  0.00    +0.053 A 
ATOM     49  C   LIG    1       27.720 -11.661   5.689  0.00  0.00    +0.162 A 
ATOM     50  C   LIG    1       27.472 -12.065   4.367  0.00  0.00    +0.162 A 
ATOM     51  C   LIG    1       26.139 -12.218   3.877  0.00  0.00    +0.059 A 
ATOM     52  C   LIG    1       25.037 -12.121   4.714  0.00  0.00    +0.008 A 
BRANCH  50  53
ATOM     53  O   LIG    1       28.401 -12.377   3.409  0.00  0.00    -0.491 OA
ATOM     54  C   LIG    1       28.233 -11.773   2.140  0.00  0.00    +0.277 C 
ENDBRANCH  50  53
BRANCH  49  55
ATOM     55  O   LIG    1       28.888 -11.449   6.374  0.00  0.00    -0.491 OA
ATOM     56  C   LIG    1       29.460 -12.544   7.055  0.00  0.00    +0.277 C 
ENDBRANCH  49  55
BRANCH  42  57
ATOM     57  C   LIG    1       23.235 -13.089   2.838  0.00  0.00    +0.095 C 
BRANCH  57  61
ATOM     58  C   LIG    1       22.392 -17.412   2.322  0.00  0.00    +0.162 A 
ATOM     59  C   LIG    1       21.414 -16.569   2.772  0.00  0.00    +0.162 A 
ATOM     60  C   LIG    1       21.875 -15.304   3.190  0.00  0.00    +0.053 A 
ATOM     61  C   LIG    1       23.009 -14.609   2.724  0.00  0.00    -0.038 A 
ATOM     62  C   LIG    1       23.905 -15.432   2.066  0.00  0.00    +0.007 A 
ATOM     63  C   LIG    1       23.630 -16.820   1.967  0.00  0.00    +0.050 A 
BRANCH  58  65
ATOM     64  C   LIG    1       23.557 -19.431   1.827  0.00  0.00    +0.277 C 
ATOM     65  O   LIG    1       22.346 -18.768   2.184  0.00  0.00    -0.491 OA
ENDBRANCH  58  65
BRANCH  59  66
ATOM     66  O   LIG    1       20.042 -16.658   2.745  0.00  0.00    -0.491 OA
ATOM     67  C   LIG    1       19.357 -17.477   1.814  0.00  0.00    +0.277 C 
ENDBRANCH  59  66
ENDBRANCH  57  61
ENDBRANCH  42  57
ENDBRANCH  41  43
ENDBRANCH  40  41
ENDBRANCH  38  40
ENDBRANCH  37  38
ENDBRANCH  36  37
ENDBRANCH  35  36
ENDBRANCH   1  35
TORSDOF 26
ENDMDL
MODEL 2
REMARK VINA RESULT:     139.8      1.741      6.860
REMARK  Name = *****
REMARK                            x       y       z     vdW  Elec       q    Type
REMARK                         _______ _______ _______ _____ _____    ______ ____
ROOT
ATOM      1  C   LIG    1       24.429 -18.365   1.978  0.00  0.00    +0.007 C 
ENDROOT
BRANCH   1   2
ATOM      2  C   LIG    1       23.053 -16.826   2.156  0.00  0.00    +0.041 C 
BRANCH   2   3
ATOM      3  C   LIG    1       24.097 -15.267   2.879  0.00  0.00    +0.232 C 
BRANCH   3   4
ATOM      4  O   LIG    1       23.507 -13.497   3.067  0.00  0.00    -0.465 OA
BRANCH   4   5
ATOM      5  C   LIG    1       23.527 -12.513   4.981  0.00  0.00    +0.312 C 
ATOM      6  O   LIG    1       22.757 -11.604   5.342  0.00  0.00    -0.251 OA
BRANCH   5   7
ATOM      7  C   LIG    1       23.522 -13.603   6.504  0.00  0.00    +0.171 C 
BRANCH   7   8
ATOM      8  C   LIG    1       23.854 -15.147   6.584  0.00  0.00    +0.145 C 
BRANCH   8   9
ATOM      9  N   LIG    1       23.264 -16.279   5.598  0.00  0.00    +0.247 N 
ATOM     10  C   LIG    1       21.848 -16.525   5.920  0.00  0.00    +0.102 C 
ATOM     11  C   LIG    1       21.370 -18.043   5.130  0.00  0.00    +0.008 A 
ATOM     12  C   LIG    1       21.523 -18.149   3.690  0.00  0.00    -0.030 A 
ATOM     13  C   LIG    1       20.745 -18.804   2.813  0.00  0.00    +0.053 A 
ATOM     14  C   LIG    1       20.531 -19.992   3.347  0.00  0.00    +0.162 A 
ATOM     15  C   LIG    1       20.392 -20.054   4.821  0.00  0.00    +0.162 A 
ATOM     16  C   LIG    1       22.262 -17.142   2.978  0.00  0.00    +0.086 C 
ATOM     17  C   LIG    1       20.634 -18.993   5.712  0.00  0.00    +0.059 A 
ATOM     18  C   LIG    1       23.486 -16.160   4.140  0.00  0.00    +0.138 C 
ATOM     19  C   LIG    1       23.978 -17.579   5.743  0.00  0.00    +0.193 C 
BRANCH  14  20
ATOM     20  O   LIG    1       20.622 -21.035   2.466  0.00  0.00    -0.491 OA
ATOM     21  C   LIG    1       21.928 -21.335   1.902  0.00  0.00    +0.277 C 
ENDBRANCH  14  20
BRANCH  15  22
ATOM     22  O   LIG    1       20.142 -21.152   5.569  0.00  0.00    -0.491 OA
ATOM     23  C   LIG    1       21.262 -21.566   6.293  0.00  0.00    +0.277 C 
ENDBRANCH  15  22
BRANCH  10  24
ATOM     24  C   LIG    1       20.987 -14.860   5.402  0.00  0.00    +0.095 C 
BRANCH  24  25
ATOM     25  C   LIG    1       21.837 -14.024   5.777  0.00  0.00    -0.038 A 
ATOM     26  C   LIG    1       23.280 -14.932   4.865  0.00  0.00    +0.053 A 
ATOM     27  C   LIG    1       24.632 -14.197   4.527  0.00  0.00    +0.162 A 
ATOM     28  C   LIG    1       24.773 -12.506   4.672  0.00  0.00    +0.162 A 
ATOM     29  C   LIG    1       23.509 -11.461   5.155  0.00  0.00    +0.050 A 
ATOM     30  C   LIG    1       21.971 -12.087   5.867  0.00  0.00    +0.007 A 
BRANCH  28  31
ATOM     31  O   LIG    1       25.949 -11.923   5.083  0.00  0.00    -0.491 OA
ATOM     32  C   LIG    1       26.900 -12.925   5.334  0.00  0.00    +0.277 C 
ENDBRANCH  28  31
BRANCH  27  33
ATOM     33  O   LIG    1       25.595 -15.170   4.597  0.00  0.00    -0.491 OA
ATOM     34  C   LIG    1       25.972 -15.647   3.335  0.00  0.00    +0.277 C 
ENDBRANCH  27  33
ENDBRANCH  24  25
ENDBRANCH  10  24
ENDBRANCH   8   9
ENDBRANCH   7   8
ENDBRANCH   5   7
ENDBRANCH   4   5
ENDBRANCH   3   4
ENDBRANCH   2   3
ENDBRANCH   1   2
BRANCH   1  35
ATOM     35  C   LIG    1       24.064 -20.291   2.490  0.00  0.00    +0.041 C 
BRANCH  35  36
ATOM     36  C   LIG    1       24.339 -20.977   4.141  0.00  0.00    +0.232 C 
BRANCH  36  37
ATOM     37  O   LIG    1       25.590 -21.570   4.332  0.00  0.00    -0.465 OA
BRANCH  37  38
ATOM     38  C   LIG    1       26.697 -20.791   4.190  0.00  0.00    +0.312 C 
ATOM     39  O   LIG    1       27.910 -20.978   4.115  0.00  0.00    -0.251 OA
BRANCH  38  40
ATOM     40  C   LIG    1       26.241 -19.509   3.816  0.00  0.00    +0.171 C 
BRANCH  40  41
ATOM     41  C   LIG    1       27.040 -18.282   3.521  0.00  0.00    +0.145 C 
BRANCH  41  43
ATOM     42  C   LIG    1       28.901 -17.372   5.227  0.00  0.00    +0.102 C 
ATOM     43  N   LIG    1       28.529 -18.175   3.910  0.00  0.00    +0.247 N 
ATOM     44  C   LIG    1       29.259 -19.476   3.888  0.00  0.00    +0.193 C 
ATOM     45  C   LIG    1       29.263 -17.484   2.765  0.00  0.00    +0.138 C 
ATOM     46  C   LIG    1       29.020 -16.039   2.477  0.00  0.00    +0.086 C 
ATOM     47  C   LIG    1       28.901 -15.260   3.729  0.00  0.00    -0.030 A 
ATOM     48  C   LIG    1       28.908 -13.871   3.519  0.00  0.00    +0.053 A 
ATOM     49  C   LIG    1       28.771 -12.997   4.575  0.00  0.00    +0.162 A 
ATOM     50  C   LIG    1       28.695 -13.550   5.864  0.00  0.00    +0.162 A 
ATOM     51  C   LIG    1       28.792 -14.960   6.071  0.00  0.00    +0.059 A 
ATOM     52  C   LIG    1       28.816 -15.855   5.011  0.00  0.00    +0.008 A 
BRANCH  50  53
ATOM     53  O   LIG    1       28.507 -12.877   7.043  0.00  0.00    -0.491 OA
ATOM     54  C   LIG    1       28.801 -11.492   7.039  0.00  0.00    +0.277 C 
ENDBRANCH  50  53
BRANCH  49  55
ATOM     55  O   LIG    1       28.706 -11.700   4.133  0.00  0.00    -0.491 OA
ATOM     56  C   LIG    1       29.012 -11.451   2.779  0.00  0.00    +0.277 C 
ENDBRANCH  49  55
BRANCH  42  57
ATOM     57  C   LIG    1       28.475 -18.105   6.599  0.00  0.00    +0.095 C 
BRANCH  57  61
ATOM     58  C   LIG    1       24.858 -20.658   6.846  0.00  0.00    +0.162 A 
ATOM     59  C   LIG    1       24.751 -19.347   6.477  0.00  0.00    +0.162 A 
ATOM     60  C   LIG    1       25.897 -18.567   6.734  0.00  0.00    +0.053 A 
ATOM     61  C   LIG    1       27.237 -19.003   6.778  0.00  0.00    -0.038 A 
ATOM     62  C   LIG    1       27.346 -20.373   6.930  0.00  0.00    +0.007 A 
ATOM     63  C   LIG    1       26.169 -21.154   7.061  0.00  0.00    +0.050 A 
BRANCH  58  65
ATOM     64  C   LIG    1       22.530 -21.158   6.751  0.00  0.00    +0.277 C 
ATOM     65  O   LIG    1       23.862 -21.564   7.059  0.00  0.00    -0.491 OA
ENDBRANCH  58  65
BRANCH  59  66
ATOM     66  O   LIG    1       23.796 -18.672   5.753  0.00  0.00    -0.491 OA
ATOM     67  C   LIG    1       23.356 -19.120   4.483  0.00  0.00    +0.277 C 
ENDBRANCH  59  66
ENDBRANCH  57  61
ENDBRANCH  42  57
ENDBRANCH  41  43
ENDBRANCH  40  41
ENDBRANCH  38  40
ENDBRANCH  37  38
ENDBRANCH  36  37
ENDBRANCH  35  36
ENDBRANCH   1  35
TORSDOF 26
ENDMDL
