MODEL 1
REMARK VINA RESULT:      -4.8      0.000      0.000
REMARK  Name = *****
REMARK                            x       y       z     vdW  Elec       q    Type
REMARK                         _______ _______ _______ _____ _____    ______ ____
ROOT
ATOM      1  C   LIG    1       27.660 -18.194   4.476  0.00  0.00    +0.131 A 
ATOM      2  C   LIG    1       27.069 -19.421   4.904  0.00  0.00    +0.059 A 
ATOM      3  C   LIG    1       27.718 -20.183   5.899  0.00  0.00    +0.015 A 
ATOM      4  C   LIG    1       28.907 -19.771   6.485  0.00  0.00    +0.001 A 
ATOM      5  C   LIG    1       29.474 -18.572   6.086  0.00  0.00    +0.004 A 
ATOM      6  C   LIG    1       28.863 -17.806   5.087  0.00  0.00    +0.046 A 
ENDROOT
BRANCH   2   7
ATOM      7  C   LIG    1       25.800 -20.042   4.413  0.00  0.00    +0.167 C 
ATOM      8  O   LIG    1       25.392 -19.802   3.275  0.00  0.00    -0.292 OA
BRANCH   7   9
ATOM      9  C   LIG    1       25.111 -21.073   5.319  0.00  0.00    +0.084 C 
BRANCH   9  10
ATOM     10  C   LIG    1       23.989 -20.417   6.137  0.00  0.00    +0.043 C 
BRANCH  10  11
ATOM     11  C   LIG    1       22.830 -19.958   5.284  0.00  0.00    -0.047 A 
ATOM     12  C   LIG    1       21.845 -20.865   4.867  0.00  0.00    +0.003 A 
ATOM     13  C   LIG    1       20.778 -20.437   4.074  0.00  0.00    +0.000 A 
ATOM     14  C   LIG    1       20.678 -19.099   3.701  0.00  0.00    +0.000 A 
ATOM     15  C   LIG    1       21.642 -18.186   4.124  0.00  0.00    +0.000 A 
ATOM     16  C   LIG    1       22.713 -18.613   4.912  0.00  0.00    +0.003 A 
ENDBRANCH  10  11
ENDBRANCH   9  10
ENDBRANCH   7   9
ENDBRANCH   2   7
BRANCH   1  17
ATOM     17  O   LIG    1       27.123 -17.502   3.414  0.00  0.00    -0.489 OA
BRANCH  17  18
ATOM     18  C   LIG    1       26.432 -16.260   3.684  0.00  0.00    +0.261 C 
BRANCH  18  19
ATOM     19  C   LIG    1       27.368 -15.023   3.718  0.00  0.00    +0.166 C 
BRANCH  19  20
ATOM     20  O   LIG    1       27.240 -14.367   4.980  0.00  0.00    -0.387 OA
ATOM     21  H   LIG    1       28.121 -14.426   5.395  0.00  0.00    +0.210 HD
ENDBRANCH  19  20
BRANCH  19  22
ATOM     22  C   LIG    1       27.146 -14.013   2.556  0.00  0.00    +0.115 C 
BRANCH  22  23
ATOM     23  N   LIG    1       25.794 -14.146   1.932  0.00  0.00    -0.313 NA
ATOM     24  H   LIG    1       25.318 -14.958   2.327  0.00  0.00    +0.122 HD
BRANCH  23  25
ATOM     25  C   LIG    1       24.974 -12.945   2.198  0.00  0.00    +0.081 C 
BRANCH  25  27
ATOM     26  C   LIG    1       23.711 -14.257   4.070  0.00  0.00    +0.005 C 
ATOM     27  C   LIG    1       24.240 -12.925   3.555  0.00  0.00    +0.012 C 
ENDBRANCH  25  27
ENDBRANCH  23  25
ENDBRANCH  22  23
ENDBRANCH  19  22
ENDBRANCH  18  19
ENDBRANCH  17  18
ENDBRANCH   1  17
TORSDOF 12
ENDMDL
MODEL 2
REMARK VINA RESULT:      -4.3      2.049      5.356
REMARK  Name = *****
REMARK                            x       y       z     vdW  Elec       q    Type
REMARK                         _______ _______ _______ _____ _____    ______ ____
ROOT
ATOM      1  C   LIG    1       25.234 -15.461   3.393  0.00  0.00    +0.131 A 
ATOM      2  C   LIG    1       24.027 -14.921   3.932  0.00  0.00    +0.059 A 
ATOM      3  C   LIG    1       23.811 -13.528   3.869  0.00  0.00    +0.015 A 
ATOM      4  C   LIG    1       24.731 -12.666   3.286  0.00  0.00    +0.001 A 
ATOM      5  C   LIG    1       25.894 -13.188   2.746  0.00  0.00    +0.004 A 
ATOM      6  C   LIG    1       26.144 -14.562   2.813  0.00  0.00    +0.046 A 
ENDROOT
BRANCH   2   7
ATOM      7  C   LIG    1       22.910 -15.666   4.592  0.00  0.00    +0.167 C 
ATOM      8  O   LIG    1       22.378 -15.213   5.608  0.00  0.00    -0.292 OA
BRANCH   7   9
ATOM      9  C   LIG    1       22.376 -16.923   3.890  0.00  0.00    +0.084 C 
BRANCH   9  10
ATOM     10  C   LIG    1       22.001 -18.002   4.917  0.00  0.00    +0.043 C 
BRANCH  10  11
ATOM     11  C   LIG    1       22.858 -19.240   4.811  0.00  0.00    -0.047 A 
ATOM     12  C   LIG    1       22.770 -20.258   5.772  0.00  0.00    +0.003 A 
ATOM     13  C   LIG    1       23.569 -21.398   5.672  0.00  0.00    +0.000 A 
ATOM     14  C   LIG    1       24.453 -21.540   4.606  0.00  0.00    +0.000 A 
ATOM     15  C   LIG    1       24.537 -20.543   3.636  0.00  0.00    +0.000 A 
ATOM     16  C   LIG    1       23.744 -19.399   3.737  0.00  0.00    +0.003 A 
ENDBRANCH  10  11
ENDBRANCH   9  10
ENDBRANCH   7   9
ENDBRANCH   2   7
BRANCH   1  17
ATOM     17  O   LIG    1       25.531 -16.794   3.565  0.00  0.00    -0.489 OA
BRANCH  17  18
ATOM     18  C   LIG    1       26.896 -17.225   3.355  0.00  0.00    +0.261 C 
BRANCH  18  19
ATOM     19  C   LIG    1       27.801 -17.053   4.603  0.00  0.00    +0.166 C 
BRANCH  19  20
ATOM     20  O   LIG    1       28.364 -15.740   4.602  0.00  0.00    -0.387 OA
ATOM     21  H   LIG    1       29.010 -15.733   3.871  0.00  0.00    +0.210 HD
ENDBRANCH  19  20
BRANCH  19  22
ATOM     22  C   LIG    1       28.921 -18.123   4.742  0.00  0.00    +0.115 C 
BRANCH  22  23
ATOM     23  N   LIG    1       29.475 -18.195   6.129  0.00  0.00    -0.313 NA
ATOM     24  H   LIG    1       28.970 -17.540   6.728  0.00  0.00    +0.122 HD
BRANCH  23  25
ATOM     25  C   LIG    1       29.321 -19.555   6.685  0.00  0.00    +0.081 C 
BRANCH  25  27
ATOM     26  C   LIG    1       26.864 -20.356   7.062  0.00  0.00    +0.005 C 
ATOM     27  C   LIG    1       28.103 -20.352   6.175  0.00  0.00    +0.012 C 
ENDBRANCH  25  27
ENDBRANCH  23  25
ENDBRANCH  22  23
ENDBRANCH  19  22
ENDBRANCH  18  19
ENDBRANCH  17  18
ENDBRANCH   1  17
TORSDOF 12
ENDMDL
MODEL 3
REMARK VINA RESULT:      -4.3      1.853      5.524
REMARK  Name = *****
REMARK                            x       y       z     vdW  Elec       q    Type
REMARK                         _______ _______ _______ _____ _____    ______ ____
ROOT
ATOM      1  C   LIG    1       25.237 -20.577   5.257  0.00  0.00    +0.131 A 
ATOM      2  C   LIG    1       26.249 -19.654   4.857  0.00  0.00    +0.059 A 
ATOM      3  C   LIG    1       27.495 -19.673   5.520  0.00  0.00    +0.015 A 
ATOM      4  C   LIG    1       27.771 -20.571   6.543  0.00  0.00    +0.001 A 
ATOM      5  C   LIG    1       26.797 -21.480   6.921  0.00  0.00    +0.004 A 
ATOM      6  C   LIG    1       25.547 -21.471   6.295  0.00  0.00    +0.046 A 
ENDROOT
BRANCH   2   7
ATOM      7  C   LIG    1       26.164 -18.616   3.783  0.00  0.00    +0.167 C 
ATOM      8  O   LIG    1       25.283 -18.683   2.924  0.00  0.00    -0.292 OA
BRANCH   7   9
ATOM      9  C   LIG    1       27.117 -17.415   3.874  0.00  0.00    +0.084 C 
BRANCH   9  10
ATOM     10  C   LIG    1       26.456 -16.151   3.303  0.00  0.00    +0.043 C 
BRANCH  10  11
ATOM     11  C   LIG    1       27.085 -14.877   3.811  0.00  0.00    -0.047 A 
ATOM     12  C   LIG    1       26.903 -14.468   5.141  0.00  0.00    +0.003 A 
ATOM     13  C   LIG    1       27.483 -13.285   5.605  0.00  0.00    +0.000 A 
ATOM     14  C   LIG    1       28.261 -12.507   4.751  0.00  0.00    +0.000 A 
ATOM     15  C   LIG    1       28.463 -12.913   3.433  0.00  0.00    +0.000 A 
ATOM     16  C   LIG    1       27.879 -14.091   2.965  0.00  0.00    +0.003 A 
ENDBRANCH  10  11
ENDBRANCH   9  10
ENDBRANCH   7   9
ENDBRANCH   2   7
BRANCH   1  17
ATOM     17  O   LIG    1       23.971 -20.488   4.722  0.00  0.00    -0.489 OA
BRANCH  17  18
ATOM     18  C   LIG    1       22.982 -19.701   5.427  0.00  0.00    +0.261 C 
BRANCH  18  19
ATOM     19  C   LIG    1       22.155 -18.771   4.502  0.00  0.00    +0.166 C 
BRANCH  19  20
ATOM     20  O   LIG    1       22.609 -18.916   3.155  0.00  0.00    -0.387 OA
ATOM     21  H   LIG    1       23.393 -19.495   3.205  0.00  0.00    +0.210 HD
ENDBRANCH  19  20
BRANCH  19  22
ATOM     22  C   LIG    1       22.164 -17.272   4.918  0.00  0.00    +0.115 C 
BRANCH  22  23
ATOM     23  N   LIG    1       23.177 -16.474   4.161  0.00  0.00    -0.313 NA
ATOM     24  H   LIG    1       22.943 -16.487   3.168  0.00  0.00    +0.122 HD
BRANCH  23  25
ATOM     25  C   LIG    1       23.189 -15.070   4.623  0.00  0.00    +0.081 C 
BRANCH  25  27
ATOM     26  C   LIG    1       24.069 -12.672   4.079  0.00  0.00    +0.005 C 
ATOM     27  C   LIG    1       23.585 -14.022   3.563  0.00  0.00    +0.012 C 
ENDBRANCH  25  27
ENDBRANCH  23  25
ENDBRANCH  22  23
ENDBRANCH  19  22
ENDBRANCH  18  19
ENDBRANCH  17  18
ENDBRANCH   1  17
TORSDOF 12
ENDMDL
MODEL 4
REMARK VINA RESULT:      -4.1      2.245      6.729
REMARK  Name = *****
REMARK                            x       y       z     vdW  Elec       q    Type
REMARK                         _______ _______ _______ _____ _____    ______ ____
ROOT
ATOM      1  C   LIG    1       24.266 -19.279   4.336  0.00  0.00    +0.131 A 
ATOM      2  C   LIG    1       24.552 -17.983   3.811  0.00  0.00    +0.059 A 
ATOM      3  C   LIG    1       23.507 -17.040   3.707  0.00  0.00    +0.015 A 
ATOM      4  C   LIG    1       22.211 -17.329   4.113  0.00  0.00    +0.001 A 
ATOM      5  C   LIG    1       21.934 -18.579   4.640  0.00  0.00    +0.004 A 
ATOM      6  C   LIG    1       22.946 -19.540   4.736  0.00  0.00    +0.046 A 
ENDROOT
BRANCH   2   7
ATOM      7  C   LIG    1       25.869 -17.466   3.325  0.00  0.00    +0.167 C 
ATOM      8  O   LIG    1       26.367 -17.913   2.289  0.00  0.00    -0.292 OA
BRANCH   7   9
ATOM      9  C   LIG    1       26.496 -16.286   4.081  0.00  0.00    +0.084 C 
BRANCH   9  10
ATOM     10  C   LIG    1       26.779 -15.116   3.126  0.00  0.00    +0.043 C 
BRANCH  10  11
ATOM     11  C   LIG    1       25.747 -14.018   3.219  0.00  0.00    -0.047 A 
ATOM     12  C   LIG    1       25.434 -13.232   2.100  0.00  0.00    +0.003 A 
ATOM     13  C   LIG    1       24.482 -12.214   2.193  0.00  0.00    +0.000 A 
ATOM     14  C   LIG    1       23.826 -11.979   3.399  0.00  0.00    +0.000 A 
ATOM     15  C   LIG    1       24.118 -12.764   4.512  0.00  0.00    +0.000 A 
ATOM     16  C   LIG    1       25.073 -13.778   4.424  0.00  0.00    +0.003 A 
ENDBRANCH  10  11
ENDBRANCH   9  10
ENDBRANCH   7   9
ENDBRANCH   2   7
BRANCH   1  17
ATOM     17  O   LIG    1       25.233 -20.259   4.320  0.00  0.00    -0.489 OA
BRANCH  17  18
ATOM     18  C   LIG    1       24.924 -21.538   4.922  0.00  0.00    +0.261 C 
BRANCH  18  19
ATOM     19  C   LIG    1       25.146 -21.572   6.457  0.00  0.00    +0.166 C 
BRANCH  19  20
ATOM     20  O   LIG    1       24.441 -20.486   7.062  0.00  0.00    -0.387 OA
ATOM     21  H   LIG    1       23.630 -20.373   6.531  0.00  0.00    +0.210 HD
ENDBRANCH  19  20
BRANCH  19  22
ATOM     22  C   LIG    1       26.638 -21.560   6.895  0.00  0.00    +0.115 C 
BRANCH  22  23
ATOM     23  N   LIG    1       27.222 -20.184   6.901  0.00  0.00    -0.313 NA
ATOM     24  H   LIG    1       26.847 -19.661   7.693  0.00  0.00    +0.122 HD
BRANCH  23  25
ATOM     25  C   LIG    1       28.693 -20.240   7.029  0.00  0.00    +0.081 C 
BRANCH  25  27
ATOM     26  C   LIG    1       29.367 -18.373   5.332  0.00  0.00    +0.005 C 
ATOM     27  C   LIG    1       29.438 -18.918   6.753  0.00  0.00    +0.012 C 
ENDBRANCH  25  27
ENDBRANCH  23  25
ENDBRANCH  22  23
ENDBRANCH  19  22
ENDBRANCH  18  19
ENDBRANCH  17  18
ENDBRANCH   1  17
TORSDOF 12
ENDMDL
MODEL 5
REMARK VINA RESULT:      -3.8      1.251      4.543
REMARK  Name = *****
REMARK                            x       y       z     vdW  Elec       q    Type
REMARK                         _______ _______ _______ _____ _____    ______ ____
ROOT
ATOM      1  C   LIG    1       24.491 -17.467   3.804  0.00  0.00    +0.131 A 
ATOM      2  C   LIG    1       24.109 -18.834   3.962  0.00  0.00    +0.059 A 
ATOM      3  C   LIG    1       22.797 -19.133   4.388  0.00  0.00    +0.015 A 
ATOM      4  C   LIG    1       21.861 -18.140   4.646  0.00  0.00    +0.001 A 
ATOM      5  C   LIG    1       22.223 -16.814   4.475  0.00  0.00    +0.004 A 
ATOM      6  C   LIG    1       23.523 -16.487   4.073  0.00  0.00    +0.046 A 
ENDROOT
BRANCH   2   7
ATOM      7  C   LIG    1       24.951 -20.049   3.734  0.00  0.00    +0.167 C 
ATOM      8  O   LIG    1       25.827 -20.042   2.866  0.00  0.00    -0.292 OA
BRANCH   7   9
ATOM      9  C   LIG    1       24.773 -21.232   4.696  0.00  0.00    +0.084 C 
BRANCH   9  10
ATOM     10  C   LIG    1       25.218 -20.851   6.117  0.00  0.00    +0.043 C 
BRANCH  10  11
ATOM     11  C   LIG    1       26.705 -20.618   6.225  0.00  0.00    -0.047 A 
ATOM     12  C   LIG    1       27.303 -19.507   5.610  0.00  0.00    +0.003 A 
ATOM     13  C   LIG    1       28.680 -19.299   5.709  0.00  0.00    +0.000 A 
ATOM     14  C   LIG    1       29.471 -20.188   6.433  0.00  0.00    +0.000 A 
ATOM     15  C   LIG    1       28.885 -21.285   7.062  0.00  0.00    +0.000 A 
ATOM     16  C   LIG    1       27.509 -21.499   6.959  0.00  0.00    +0.003 A 
ENDBRANCH  10  11
ENDBRANCH   9  10
ENDBRANCH   7   9
ENDBRANCH   2   7
BRANCH   1  17
ATOM     17  O   LIG    1       25.800 -17.145   3.524  0.00  0.00    -0.489 OA
BRANCH  17  18
ATOM     18  C   LIG    1       26.075 -15.864   2.910  0.00  0.00    +0.261 C 
BRANCH  18  19
ATOM     19  C   LIG    1       27.178 -15.050   3.636  0.00  0.00    +0.166 C 
BRANCH  19  20
ATOM     20  O   LIG    1       26.739 -14.732   4.957  0.00  0.00    -0.387 OA
ATOM     21  H   LIG    1       26.004 -14.100   4.843  0.00  0.00    +0.210 HD
ENDBRANCH  19  20
BRANCH  19  22
ATOM     22  C   LIG    1       27.629 -13.763   2.889  0.00  0.00    +0.115 C 
BRANCH  22  23
ATOM     23  N   LIG    1       26.548 -12.732   2.822  0.00  0.00    -0.313 NA
ATOM     24  H   LIG    1       26.848 -11.967   2.216  0.00  0.00    +0.122 HD
BRANCH  23  25
ATOM     25  C   LIG    1       25.306 -13.311   2.268  0.00  0.00    +0.081 C 
BRANCH  25  27
ATOM     26  C   LIG    1       24.098 -12.474   4.427  0.00  0.00    +0.005 C 
ATOM     27  C   LIG    1       23.998 -12.873   2.960  0.00  0.00    +0.012 C 
ENDBRANCH  25  27
ENDBRANCH  23  25
ENDBRANCH  22  23
ENDBRANCH  19  22
ENDBRANCH  18  19
ENDBRANCH  17  18
ENDBRANCH   1  17
TORSDOF 12
ENDMDL
MODEL 6
REMARK VINA RESULT:      -3.2      2.047      6.667
REMARK  Name = *****
REMARK                            x       y       z     vdW  Elec       q    Type
REMARK                         _______ _______ _______ _____ _____    ______ ____
ROOT
ATOM      1  C   LIG    1       24.702 -14.708   3.521  0.00  0.00    +0.131 A 
ATOM      2  C   LIG    1       26.080 -14.341   3.466  0.00  0.00    +0.059 A 
ATOM      3  C   LIG    1       26.442 -13.134   2.830  0.00  0.00    +0.015 A 
ATOM      4  C   LIG    1       25.497 -12.286   2.267  0.00  0.00    +0.001 A 
ATOM      5  C   LIG    1       24.158 -12.631   2.335  0.00  0.00    +0.004 A 
ATOM      6  C   LIG    1       23.772 -13.830   2.942  0.00  0.00    +0.046 A 
ENDROOT
BRANCH   2   7
ATOM      7  C   LIG    1       27.249 -15.099   4.010  0.00  0.00    +0.167 C 
ATOM      8  O   LIG    1       28.202 -14.496   4.508  0.00  0.00    -0.292 OA
BRANCH   7   9
ATOM      9  C   LIG    1       27.153 -16.631   4.045  0.00  0.00    +0.084 C 
BRANCH   9  10
ATOM     10  C   LIG    1       28.518 -17.255   4.374  0.00  0.00    +0.043 C 
BRANCH  10  11
ATOM     11  C   LIG    1       28.413 -18.457   5.280  0.00  0.00    -0.047 A 
ATOM     12  C   LIG    1       27.303 -19.312   5.211  0.00  0.00    +0.003 A 
ATOM     13  C   LIG    1       27.208 -20.420   6.055  0.00  0.00    +0.000 A 
ATOM     14  C   LIG    1       28.226 -20.693   6.967  0.00  0.00    +0.000 A 
ATOM     15  C   LIG    1       29.341 -19.860   7.032  0.00  0.00    +0.000 A 
ATOM     16  C   LIG    1       29.435 -18.748   6.193  0.00  0.00    +0.003 A 
ENDBRANCH  10  11
ENDBRANCH   9  10
ENDBRANCH   7   9
ENDBRANCH   2   7
BRANCH   1  17
ATOM     17  O   LIG    1       24.335 -15.941   4.012  0.00  0.00    -0.489 OA
BRANCH  17  18
ATOM     18  C   LIG    1       22.938 -16.176   4.305  0.00  0.00    +0.261 C 
BRANCH  18  19
ATOM     19  C   LIG    1       22.510 -17.658   4.146  0.00  0.00    +0.166 C 
BRANCH  19  20
ATOM     20  O   LIG    1       22.084 -18.166   5.412  0.00  0.00    -0.387 OA
ATOM     21  H   LIG    1       21.311 -18.730   5.220  0.00  0.00    +0.210 HD
ENDBRANCH  19  20
BRANCH  19  22
ATOM     22  C   LIG    1       23.598 -18.583   3.529  0.00  0.00    +0.115 C 
BRANCH  22  23
ATOM     23  N   LIG    1       24.195 -19.514   4.535  0.00  0.00    -0.313 NA
ATOM     24  H   LIG    1       24.021 -19.153   5.474  0.00  0.00    +0.122 HD
BRANCH  23  25
ATOM     25  C   LIG    1       23.590 -20.858   4.428  0.00  0.00    +0.081 C 
BRANCH  25  27
ATOM     26  C   LIG    1       23.448 -20.733   7.033  0.00  0.00    +0.005 C 
ATOM     27  C   LIG    1       23.295 -21.566   5.767  0.00  0.00    +0.012 C 
ENDBRANCH  25  27
ENDBRANCH  23  25
ENDBRANCH  22  23
ENDBRANCH  19  22
ENDBRANCH  18  19
ENDBRANCH  17  18
ENDBRANCH   1  17
TORSDOF 12
ENDMDL
MODEL 7
REMARK VINA RESULT:      -3.1      1.923      3.677
REMARK  Name = *****
REMARK                            x       y       z     vdW  Elec       q    Type
REMARK                         _______ _______ _______ _____ _____    ______ ____
ROOT
ATOM      1  C   LIG    1       25.061 -16.057   3.674  0.00  0.00    +0.131 A 
ATOM      2  C   LIG    1       24.806 -17.460   3.732  0.00  0.00    +0.059 A 
ATOM      3  C   LIG    1       23.538 -17.909   4.158  0.00  0.00    +0.015 A 
ATOM      4  C   LIG    1       22.524 -17.028   4.511  0.00  0.00    +0.001 A 
ATOM      5  C   LIG    1       22.762 -15.665   4.438  0.00  0.00    +0.004 A 
ATOM      6  C   LIG    1       24.016 -15.192   4.038  0.00  0.00    +0.046 A 
ENDROOT
BRANCH   2   7
ATOM      7  C   LIG    1       25.747 -18.573   3.393  0.00  0.00    +0.167 C 
ATOM      8  O   LIG    1       25.814 -18.998   2.238  0.00  0.00    -0.292 OA
BRANCH   7   9
ATOM      9  C   LIG    1       26.701 -19.061   4.493  0.00  0.00    +0.084 C 
BRANCH   9  10
ATOM     10  C   LIG    1       26.470 -20.550   4.793  0.00  0.00    +0.043 C 
BRANCH  10  11
ATOM     11  C   LIG    1       25.070 -20.842   5.276  0.00  0.00    -0.047 A 
ATOM     12  C   LIG    1       24.719 -20.643   6.619  0.00  0.00    +0.003 A 
ATOM     13  C   LIG    1       23.424 -20.920   7.062  0.00  0.00    +0.000 A 
ATOM     14  C   LIG    1       22.464 -21.386   6.166  0.00  0.00    +0.000 A 
ATOM     15  C   LIG    1       22.798 -21.572   4.826  0.00  0.00    +0.000 A 
ATOM     16  C   LIG    1       24.094 -21.301   4.382  0.00  0.00    +0.003 A 
ENDBRANCH  10  11
ENDBRANCH   9  10
ENDBRANCH   7   9
ENDBRANCH   2   7
BRANCH   1  17
ATOM     17  O   LIG    1       26.328 -15.596   3.395  0.00  0.00    -0.489 OA
BRANCH  17  18
ATOM     18  C   LIG    1       26.462 -14.318   2.731  0.00  0.00    +0.261 C 
BRANCH  18  19
ATOM     19  C   LIG    1       27.311 -13.291   3.526  0.00  0.00    +0.166 C 
BRANCH  19  20
ATOM     20  O   LIG    1       28.671 -13.369   3.098  0.00  0.00    -0.387 OA
ATOM     21  H   LIG    1       29.011 -12.455   3.140  0.00  0.00    +0.210 HD
ENDBRANCH  19  20
BRANCH  19  22
ATOM     22  C   LIG    1       27.220 -13.435   5.072  0.00  0.00    +0.115 C 
BRANCH  22  23
ATOM     23  N   LIG    1       25.850 -13.141   5.594  0.00  0.00    -0.313 NA
ATOM     24  H   LIG    1       25.879 -13.101   6.614  0.00  0.00    +0.122 HD
BRANCH  23  25
ATOM     25  C   LIG    1       25.363 -11.842   5.085  0.00  0.00    +0.081 C 
BRANCH  25  27
ATOM     26  C   LIG    1       23.818 -11.693   2.985  0.00  0.00    +0.005 C 
ATOM     27  C   LIG    1       23.937 -11.848   4.496  0.00  0.00    +0.012 C 
ENDBRANCH  25  27
ENDBRANCH  23  25
ENDBRANCH  22  23
ENDBRANCH  19  22
ENDBRANCH  18  19
ENDBRANCH  17  18
ENDBRANCH   1  17
TORSDOF 12
ENDMDL
MODEL 8
REMARK VINA RESULT:      -3.0      2.470      7.338
REMARK  Name = *****
REMARK                            x       y       z     vdW  Elec       q    Type
REMARK                         _______ _______ _______ _____ _____    ______ ____
ROOT
ATOM      1  C   LIG    1       23.451 -18.385   4.288  0.00  0.00    +0.131 A 
ATOM      2  C   LIG    1       24.425 -17.437   3.852  0.00  0.00    +0.059 A 
ATOM      3  C   LIG    1       24.124 -16.061   3.931  0.00  0.00    +0.015 A 
ATOM      4  C   LIG    1       22.914 -15.599   4.431  0.00  0.00    +0.001 A 
ATOM      5  C   LIG    1       21.974 -16.516   4.872  0.00  0.00    +0.004 A 
ATOM      6  C   LIG    1       22.238 -17.887   4.788  0.00  0.00    +0.046 A 
ENDROOT
BRANCH   2   7
ATOM      7  C   LIG    1       25.783 -17.717   3.290  0.00  0.00    +0.167 C 
ATOM      8  O   LIG    1       25.926 -18.565   2.407  0.00  0.00    -0.292 OA
BRANCH   7   9
ATOM      9  C   LIG    1       26.946 -16.827   3.754  0.00  0.00    +0.084 C 
BRANCH   9  10
ATOM     10  C   LIG    1       26.942 -15.489   2.999  0.00  0.00    +0.043 C 
BRANCH  10  11
ATOM     11  C   LIG    1       27.488 -14.347   3.821  0.00  0.00    -0.047 A 
ATOM     12  C   LIG    1       28.418 -13.450   3.275  0.00  0.00    +0.003 A 
ATOM     13  C   LIG    1       28.923 -12.399   4.042  0.00  0.00    +0.000 A 
ATOM     14  C   LIG    1       28.496 -12.224   5.356  0.00  0.00    +0.000 A 
ATOM     15  C   LIG    1       27.560 -13.099   5.903  0.00  0.00    +0.000 A 
ATOM     16  C   LIG    1       27.057 -14.155   5.141  0.00  0.00    +0.003 A 
ENDBRANCH  10  11
ENDBRANCH   9  10
ENDBRANCH   7   9
ENDBRANCH   2   7
BRANCH   1  17
ATOM     17  O   LIG    1       23.664 -19.732   4.095  0.00  0.00    -0.489 OA
BRANCH  17  18
ATOM     18  C   LIG    1       22.824 -20.669   4.809  0.00  0.00    +0.261 C 
BRANCH  18  19
ATOM     19  C   LIG    1       23.540 -21.368   5.995  0.00  0.00    +0.166 C 
BRANCH  19  20
ATOM     20  O   LIG    1       22.610 -21.561   7.062  0.00  0.00    -0.387 OA
ATOM     21  H   LIG    1       21.926 -22.159   6.707  0.00  0.00    +0.210 HD
ENDBRANCH  19  20
BRANCH  19  22
ATOM     22  C   LIG    1       24.809 -20.631   6.508  0.00  0.00    +0.115 C 
BRANCH  22  23
ATOM     23  N   LIG    1       26.010 -20.899   5.659  0.00  0.00    -0.313 NA
ATOM     24  H   LIG    1       26.305 -20.033   5.207  0.00  0.00    +0.122 HD
BRANCH  23  25
ATOM     25  C   LIG    1       27.130 -21.406   6.480  0.00  0.00    +0.081 C 
BRANCH  25  27
ATOM     26  C   LIG    1       28.565 -19.324   5.828  0.00  0.00    +0.005 C 
ATOM     27  C   LIG    1       28.191 -20.360   6.880  0.00  0.00    +0.012 C 
ENDBRANCH  25  27
ENDBRANCH  23  25
ENDBRANCH  22  23
ENDBRANCH  19  22
ENDBRANCH  18  19
ENDBRANCH  17  18
ENDBRANCH   1  17
TORSDOF 12
ENDMDL
MODEL 9
REMARK VINA RESULT:      -2.8      1.711      4.948
REMARK  Name = *****
REMARK                            x       y       z     vdW  Elec       q    Type
REMARK                         _______ _______ _______ _____ _____    ______ ____
ROOT
ATOM      1  C   LIG    1       23.653 -16.723   4.045  0.00  0.00    +0.131 A 
ATOM      2  C   LIG    1       24.396 -17.907   3.759  0.00  0.00    +0.059 A 
ATOM      3  C   LIG    1       23.766 -19.162   3.898  0.00  0.00    +0.015 A 
ATOM      4  C   LIG    1       22.439 -19.280   4.291  0.00  0.00    +0.001 A 
ATOM      5  C   LIG    1       21.709 -18.133   4.551  0.00  0.00    +0.004 A 
ATOM      6  C   LIG    1       22.315 -16.876   4.441  0.00  0.00    +0.046 A 
ENDROOT
BRANCH   2   7
ATOM      7  C   LIG    1       25.823 -18.005   3.319  0.00  0.00    +0.167 C 
ATOM      8  O   LIG    1       26.102 -18.509   2.229  0.00  0.00    -0.292 OA
BRANCH   7   9
ATOM      9  C   LIG    1       26.890 -17.342   4.201  0.00  0.00    +0.084 C 
BRANCH   9  10
ATOM     10  C   LIG    1       28.106 -18.266   4.371  0.00  0.00    +0.043 C 
BRANCH  10  11
ATOM     11  C   LIG    1       27.845 -19.416   5.312  0.00  0.00    -0.047 A 
ATOM     12  C   LIG    1       26.548 -19.925   5.480  0.00  0.00    +0.003 A 
ATOM     13  C   LIG    1       26.311 -20.986   6.355  0.00  0.00    +0.000 A 
ATOM     14  C   LIG    1       27.366 -21.558   7.062  0.00  0.00    +0.000 A 
ATOM     15  C   LIG    1       28.661 -21.072   6.890  0.00  0.00    +0.000 A 
ATOM     16  C   LIG    1       28.900 -20.007   6.020  0.00  0.00    +0.003 A 
ENDBRANCH  10  11
ENDBRANCH   9  10
ENDBRANCH   7   9
ENDBRANCH   2   7
BRANCH   1  17
ATOM     17  O   LIG    1       24.281 -15.497   4.051  0.00  0.00    -0.489 OA
BRANCH  17  18
ATOM     18  C   LIG    1       23.546 -14.347   3.570  0.00  0.00    +0.261 C 
BRANCH  18  19
ATOM     19  C   LIG    1       24.360 -13.027   3.615  0.00  0.00    +0.166 C 
BRANCH  19  20
ATOM     20  O   LIG    1       23.464 -11.923   3.751  0.00  0.00    -0.387 OA
ATOM     21  H   LIG    1       24.025 -11.126   3.715  0.00  0.00    +0.210 HD
ENDBRANCH  19  20
BRANCH  19  22
ATOM     22  C   LIG    1       25.307 -12.811   2.401  0.00  0.00    +0.115 C 
BRANCH  22  23
ATOM     23  N   LIG    1       26.171 -14.000   2.129  0.00  0.00    -0.313 NA
ATOM     24  H   LIG    1       26.239 -14.145   1.121  0.00  0.00    +0.122 HD
BRANCH  23  25
ATOM     25  C   LIG    1       27.531 -13.793   2.668  0.00  0.00    +0.081 C 
BRANCH  25  27
ATOM     26  C   LIG    1       27.502 -13.365   5.244  0.00  0.00    +0.005 C 
ATOM     27  C   LIG    1       27.773 -14.327   4.095  0.00  0.00    +0.012 C 
ENDBRANCH  25  27
ENDBRANCH  23  25
ENDBRANCH  22  23
ENDBRANCH  19  22
ENDBRANCH  18  19
ENDBRANCH  17  18
ENDBRANCH   1  17
TORSDOF 12
ENDMDL
