MODEL 1
REMARK VINA RESULT:      -3.6      0.000      0.000
REMARK  Name = *****
REMARK                            x       y       z     vdW  Elec       q    Type
REMARK                         _______ _______ _______ _____ _____    ______ ____
ROOT
ATOM      1  C   LIG    1       24.733 -14.813   3.751  0.00  0.00    +0.065 C 
ENDROOT
BRANCH   1   2
ATOM      2  C   LIG    1       24.011 -16.147   4.007  0.00  0.00    -0.040 A 
ATOM      3  C   LIG    1       22.724 -16.148   4.569  0.00  0.00    +0.007 A 
ATOM      4  C   LIG    1       22.019 -17.340   4.758  0.00  0.00    +0.045 A 
ATOM      5  C   LIG    1       22.598 -18.546   4.376  0.00  0.00    +0.117 A 
ATOM      6  C   LIG    1       23.874 -18.576   3.835  0.00  0.00    +0.045 A 
ATOM      7  C   LIG    1       24.585 -17.383   3.664  0.00  0.00    +0.007 A 
BRANCH   5   8
ATOM      8  O   LIG    1       21.869 -19.684   4.549  0.00  0.00    -0.507 OA
ATOM      9  H   LIG    1       22.482 -20.421   4.712  0.00  0.00    +0.292 HD
ENDBRANCH   5   8
ENDBRANCH   1   2
BRANCH   1  10
ATOM     10  C   LIG    1       26.289 -15.011   3.500  0.00  0.00    +0.074 C 
ATOM     11  C   LIG    1       26.867 -14.087   2.396  0.00  0.00    +0.035 C 
ATOM     12  C   LIG    1       27.375 -12.718   2.849  0.00  0.00    +0.003 C 
ATOM     13  C   LIG    1       28.266 -12.790   4.081  0.00  0.00    +0.000 C 
ATOM     14  C   LIG    1       27.625 -13.585   5.209  0.00  0.00    +0.003 C 
ATOM     15  C   LIG    1       27.207 -14.973   4.744  0.00  0.00    +0.035 C 
BRANCH  10  16
ATOM     16  O   LIG    1       26.436 -16.343   2.938  0.00  0.00    -0.388 OA
ATOM     17  H   LIG    1       27.167 -16.781   3.411  0.00  0.00    +0.210 HD
ENDBRANCH  10  16
ENDBRANCH   1  10
BRANCH   1  18
ATOM     18  C   LIG    1       24.377 -13.705   4.786  0.00  0.00    +0.094 C 
BRANCH  18  20
ATOM     19  C   LIG    1       23.873 -12.244   2.940  0.00  0.00    +0.104 C 
ATOM     20  N   LIG    1       24.352 -12.299   4.327  0.00  0.00    -0.308 NA
ATOM     21  C   LIG    1       23.511 -11.447   5.169  0.00  0.00    +0.104 C 
ENDBRANCH  18  20
ENDBRANCH   1  18
TORSDOF 6
ENDMDL
MODEL 2
REMARK VINA RESULT:      -3.6      3.344      6.788
REMARK  Name = *****
REMARK                            x       y       z     vdW  Elec       q    Type
REMARK                         _______ _______ _______ _____ _____    ______ ____
ROOT
ATOM      1  C   LIG    1       25.953 -19.333   4.119  0.00  0.00    +0.065 C 
ENDROOT
BRANCH   1   2
ATOM      2  C   LIG    1       25.995 -17.824   3.823  0.00  0.00    -0.040 A 
ATOM      3  C   LIG    1       24.796 -17.108   3.676  0.00  0.00    +0.007 A 
ATOM      4  C   LIG    1       24.802 -15.726   3.465  0.00  0.00    +0.045 A 
ATOM      5  C   LIG    1       26.015 -15.046   3.408  0.00  0.00    +0.117 A 
ATOM      6  C   LIG    1       27.213 -15.731   3.532  0.00  0.00    +0.045 A 
ATOM      7  C   LIG    1       27.206 -17.116   3.724  0.00  0.00    +0.007 A 
BRANCH   5   8
ATOM      8  O   LIG    1       25.979 -13.695   3.230  0.00  0.00    -0.507 OA
ATOM      9  H   LIG    1       25.139 -13.360   3.588  0.00  0.00    +0.292 HD
ENDBRANCH   5   8
ENDBRANCH   1   2
BRANCH   1  10
ATOM     10  C   LIG    1       24.611 -20.009   3.604  0.00  0.00    +0.074 C 
ATOM     11  C   LIG    1       24.388 -21.447   4.143  0.00  0.00    +0.035 C 
ATOM     12  C   LIG    1       23.638 -21.569   5.470  0.00  0.00    +0.003 C 
ATOM     13  C   LIG    1       22.376 -20.719   5.522  0.00  0.00    +0.000 C 
ATOM     14  C   LIG    1       22.639 -19.275   5.122  0.00  0.00    +0.003 C 
ATOM     15  C   LIG    1       23.311 -19.188   3.759  0.00  0.00    +0.035 C 
BRANCH  10  16
ATOM     16  O   LIG    1       24.788 -20.208   2.174  0.00  0.00    -0.388 OA
ATOM     17  H   LIG    1       24.402 -19.435   1.723  0.00  0.00    +0.210 HD
ENDBRANCH  10  16
ENDBRANCH   1  10
BRANCH   1  18
ATOM     18  C   LIG    1       26.339 -19.689   5.585  0.00  0.00    +0.094 C 
BRANCH  18  20
ATOM     19  C   LIG    1       28.704 -19.564   6.017  0.00  0.00    +0.104 C 
ATOM     20  N   LIG    1       27.571 -20.476   5.815  0.00  0.00    -0.308 NA
ATOM     21  C   LIG    1       27.458 -21.376   6.962  0.00  0.00    +0.104 C 
ENDBRANCH  18  20
ENDBRANCH   1  18
TORSDOF 6
ENDMDL
MODEL 3
REMARK VINA RESULT:      -3.3      0.956      1.709
REMARK  Name = *****
REMARK                            x       y       z     vdW  Elec       q    Type
REMARK                         _______ _______ _______ _____ _____    ______ ____
ROOT
ATOM      1  C   LIG    1       25.243 -15.254   3.398  0.00  0.00    +0.065 C 
ENDROOT
BRANCH   1   2
ATOM      2  C   LIG    1       24.692 -16.676   3.597  0.00  0.00    -0.040 A 
ATOM      3  C   LIG    1       25.500 -17.786   3.299  0.00  0.00    +0.007 A 
ATOM      4  C   LIG    1       25.048 -19.089   3.525  0.00  0.00    +0.045 A 
ATOM      5  C   LIG    1       23.780 -19.291   4.061  0.00  0.00    +0.117 A 
ATOM      6  C   LIG    1       22.955 -18.215   4.348  0.00  0.00    +0.045 A 
ATOM      7  C   LIG    1       23.402 -16.913   4.103  0.00  0.00    +0.007 A 
BRANCH   5   8
ATOM      8  O   LIG    1       23.386 -20.575   4.295  0.00  0.00    -0.507 OA
ATOM      9  H   LIG    1       22.419 -20.621   4.208  0.00  0.00    +0.292 HD
ENDBRANCH   5   8
ENDBRANCH   1   2
BRANCH   1  10
ATOM     10  C   LIG    1       26.807 -15.173   3.665  0.00  0.00    +0.074 C 
ATOM     11  C   LIG    1       27.565 -14.255   2.670  0.00  0.00    +0.035 C 
ATOM     12  C   LIG    1       27.682 -12.780   3.056  0.00  0.00    +0.003 C 
ATOM     13  C   LIG    1       28.124 -12.575   4.498  0.00  0.00    +0.000 C 
ATOM     14  C   LIG    1       27.281 -13.377   5.478  0.00  0.00    +0.003 C 
ATOM     15  C   LIG    1       27.254 -14.854   5.110  0.00  0.00    +0.035 C 
BRANCH  10  16
ATOM     16  O   LIG    1       27.331 -16.497   3.370  0.00  0.00    -0.388 OA
ATOM     17  H   LIG    1       28.004 -16.702   4.044  0.00  0.00    +0.210 HD
ENDBRANCH  10  16
ENDBRANCH   1  10
BRANCH   1  18
ATOM     18  C   LIG    1       24.404 -14.156   4.116  0.00  0.00    +0.094 C 
BRANCH  18  20
ATOM     19  C   LIG    1       23.846 -11.817   4.001  0.00  0.00    +0.104 C 
ATOM     20  N   LIG    1       23.776 -13.101   3.291  0.00  0.00    -0.308 NA
ATOM     21  C   LIG    1       24.403 -12.967   1.975  0.00  0.00    +0.104 C 
ENDBRANCH  18  20
ENDBRANCH   1  18
TORSDOF 6
ENDMDL
MODEL 4
REMARK VINA RESULT:      -3.1      3.549      6.274
REMARK  Name = *****
REMARK                            x       y       z     vdW  Elec       q    Type
REMARK                         _______ _______ _______ _____ _____    ______ ____
ROOT
ATOM      1  C   LIG    1       25.381 -18.663   4.298  0.00  0.00    +0.065 C 
ENDROOT
BRANCH   1   2
ATOM      2  C   LIG    1       26.505 -19.375   5.070  0.00  0.00    -0.040 A 
ATOM      3  C   LIG    1       26.188 -20.392   5.985  0.00  0.00    +0.007 A 
ATOM      4  C   LIG    1       27.190 -21.097   6.657  0.00  0.00    +0.045 A 
ATOM      5  C   LIG    1       28.525 -20.792   6.410  0.00  0.00    +0.117 A 
ATOM      6  C   LIG    1       28.866 -19.782   5.525  0.00  0.00    +0.045 A 
ATOM      7  C   LIG    1       27.861 -19.065   4.868  0.00  0.00    +0.007 A 
BRANCH   5   8
ATOM      8  O   LIG    1       29.475 -21.521   7.062  0.00  0.00    -0.507 OA
ATOM      9  H   LIG    1       29.992 -20.920   7.624  0.00  0.00    +0.292 HD
ENDBRANCH   5   8
ENDBRANCH   1   2
BRANCH   1  10
ATOM     10  C   LIG    1       24.371 -19.689   3.625  0.00  0.00    +0.074 C 
ATOM     11  C   LIG    1       24.362 -21.088   4.295  0.00  0.00    +0.035 C 
ATOM     12  C   LIG    1       23.385 -21.283   5.455  0.00  0.00    +0.003 C 
ATOM     13  C   LIG    1       21.986 -20.769   5.148  0.00  0.00    +0.000 C 
ATOM     14  C   LIG    1       22.000 -19.342   4.621  0.00  0.00    +0.003 C 
ATOM     15  C   LIG    1       22.918 -19.203   3.415  0.00  0.00    +0.035 C 
BRANCH  10  16
ATOM     16  O   LIG    1       24.898 -19.954   2.296  0.00  0.00    -0.388 OA
ATOM     17  H   LIG    1       24.931 -19.104   1.820  0.00  0.00    +0.210 HD
ENDBRANCH  10  16
ENDBRANCH   1  10
BRANCH   1  18
ATOM     18  C   LIG    1       25.893 -17.539   3.350  0.00  0.00    +0.094 C 
BRANCH  18  20
ATOM     19  C   LIG    1       27.188 -15.510   3.331  0.00  0.00    +0.104 C 
ATOM     20  N   LIG    1       25.994 -16.163   3.884  0.00  0.00    -0.308 NA
ATOM     21  C   LIG    1       24.812 -15.354   3.584  0.00  0.00    +0.104 C 
ENDBRANCH  18  20
ENDBRANCH   1  18
TORSDOF 6
ENDMDL
MODEL 5
REMARK VINA RESULT:      -2.7      1.747      3.410
REMARK  Name = *****
REMARK                            x       y       z     vdW  Elec       q    Type
REMARK                         _______ _______ _______ _____ _____    ______ ____
ROOT
ATOM      1  C   LIG    1       25.215 -15.262   4.013  0.00  0.00    +0.065 C 
ENDROOT
BRANCH   1   2
ATOM      2  C   LIG    1       24.891 -16.752   3.806  0.00  0.00    -0.040 A 
ATOM      3  C   LIG    1       25.890 -17.628   3.353  0.00  0.00    +0.007 A 
ATOM      4  C   LIG    1       25.642 -18.996   3.213  0.00  0.00    +0.045 A 
ATOM      5  C   LIG    1       24.386 -19.501   3.534  0.00  0.00    +0.117 A 
ATOM      6  C   LIG    1       23.375 -18.657   3.966  0.00  0.00    +0.045 A 
ATOM      7  C   LIG    1       23.621 -17.285   4.088  0.00  0.00    +0.007 A 
BRANCH   5   8
ATOM      8  O   LIG    1       24.190 -20.844   3.412  0.00  0.00    -0.507 OA
ATOM      9  H   LIG    1       24.859 -21.198   2.802  0.00  0.00    +0.292 HD
ENDBRANCH   5   8
ENDBRANCH   1   2
BRANCH   1  10
ATOM     10  C   LIG    1       23.943 -14.335   3.797  0.00  0.00    +0.074 C 
ATOM     11  C   LIG    1       23.860 -13.145   4.789  0.00  0.00    +0.035 C 
ATOM     12  C   LIG    1       24.556 -11.852   4.363  0.00  0.00    +0.003 C 
ATOM     13  C   LIG    1       24.237 -11.447   2.931  0.00  0.00    +0.000 C 
ATOM     14  C   LIG    1       24.456 -12.587   1.948  0.00  0.00    +0.003 C 
ATOM     15  C   LIG    1       23.682 -13.832   2.358  0.00  0.00    +0.035 C 
BRANCH  10  16
ATOM     16  O   LIG    1       22.791 -15.149   4.148  0.00  0.00    -0.388 OA
ATOM     17  H   LIG    1       22.358 -15.417   3.317  0.00  0.00    +0.210 HD
ENDBRANCH  10  16
ENDBRANCH   1  10
BRANCH   1  18
ATOM     18  C   LIG    1       26.495 -14.795   3.261  0.00  0.00    +0.094 C 
BRANCH  18  20
ATOM     19  C   LIG    1       28.366 -13.280   3.308  0.00  0.00    +0.104 C 
ATOM     20  N   LIG    1       27.643 -14.313   4.062  0.00  0.00    -0.308 NA
ATOM     21  C   LIG    1       27.237 -13.775   5.361  0.00  0.00    +0.104 C 
ENDBRANCH  18  20
ENDBRANCH   1  18
TORSDOF 6
ENDMDL
MODEL 6
REMARK VINA RESULT:      -2.3      2.907      6.104
REMARK  Name = *****
REMARK                            x       y       z     vdW  Elec       q    Type
REMARK                         _______ _______ _______ _____ _____    ______ ____
ROOT
ATOM      1  C   LIG    1       24.162 -18.642   4.134  0.00  0.00    +0.065 C 
ENDROOT
BRANCH   1   2
ATOM      2  C   LIG    1       24.850 -17.298   3.836  0.00  0.00    -0.040 A 
ATOM      3  C   LIG    1       24.151 -16.097   4.034  0.00  0.00    +0.007 A 
ATOM      4  C   LIG    1       24.770 -14.860   3.829  0.00  0.00    +0.045 A 
ATOM      5  C   LIG    1       26.102 -14.817   3.429  0.00  0.00    +0.117 A 
ATOM      6  C   LIG    1       26.810 -15.988   3.209  0.00  0.00    +0.045 A 
ATOM      7  C   LIG    1       26.184 -17.224   3.397  0.00  0.00    +0.007 A 
BRANCH   5   8
ATOM      8  O   LIG    1       26.678 -13.593   3.268  0.00  0.00    -0.507 OA
ATOM      9  H   LIG    1       27.478 -13.698   2.726  0.00  0.00    +0.292 HD
ENDBRANCH   5   8
ENDBRANCH   1   2
BRANCH   1  10
ATOM     10  C   LIG    1       25.164 -19.869   4.014  0.00  0.00    +0.074 C 
ATOM     11  C   LIG    1       26.535 -19.626   4.698  0.00  0.00    +0.035 C 
ATOM     12  C   LIG    1       26.641 -20.014   6.173  0.00  0.00    +0.003 C 
ATOM     13  C   LIG    1       26.074 -21.395   6.468  0.00  0.00    +0.000 C 
ATOM     14  C   LIG    1       24.670 -21.572   5.910  0.00  0.00    +0.003 C 
ATOM     15  C   LIG    1       24.619 -21.258   4.421  0.00  0.00    +0.035 C 
BRANCH  10  16
ATOM     16  O   LIG    1       25.502 -19.973   2.604  0.00  0.00    -0.388 OA
ATOM     17  H   LIG    1       25.913 -19.130   2.340  0.00  0.00    +0.210 HD
ENDBRANCH  10  16
ENDBRANCH   1  10
BRANCH   1  18
ATOM     18  C   LIG    1       22.812 -18.829   3.381  0.00  0.00    +0.094 C 
BRANCH  18  20
ATOM     19  C   LIG    1       20.418 -18.586   3.426  0.00  0.00    +0.104 C 
ATOM     20  N   LIG    1       21.588 -19.053   4.181  0.00  0.00    -0.308 NA
ATOM     21  C   LIG    1       21.404 -20.457   4.548  0.00  0.00    +0.104 C 
ENDBRANCH  18  20
ENDBRANCH   1  18
TORSDOF 6
ENDMDL
MODEL 7
REMARK VINA RESULT:      -1.8      2.799      6.818
REMARK  Name = *****
REMARK                            x       y       z     vdW  Elec       q    Type
REMARK                         _______ _______ _______ _____ _____    ______ ____
ROOT
ATOM      1  C   LIG    1       23.932 -18.845   3.651  0.00  0.00    +0.065 C 
ENDROOT
BRANCH   1   2
ATOM      2  C   LIG    1       24.513 -17.422   3.719  0.00  0.00    -0.040 A 
ATOM      3  C   LIG    1       25.850 -17.195   3.354  0.00  0.00    +0.007 A 
ATOM      4  C   LIG    1       26.388 -15.905   3.349  0.00  0.00    +0.045 A 
ATOM      5  C   LIG    1       25.585 -14.826   3.704  0.00  0.00    +0.117 A 
ATOM      6  C   LIG    1       24.267 -15.023   4.086  0.00  0.00    +0.045 A 
ATOM      7  C   LIG    1       23.736 -16.317   4.108  0.00  0.00    +0.007 A 
BRANCH   5   8
ATOM      8  O   LIG    1       26.137 -13.581   3.659  0.00  0.00    -0.507 OA
ATOM      9  H   LIG    1       25.436 -12.941   3.448  0.00  0.00    +0.292 HD
ENDBRANCH   5   8
ENDBRANCH   1   2
BRANCH   1  10
ATOM     10  C   LIG    1       22.686 -19.032   4.617  0.00  0.00    +0.074 C 
ATOM     11  C   LIG    1       21.741 -20.191   4.203  0.00  0.00    +0.035 C 
ATOM     12  C   LIG    1       22.065 -21.572   4.774  0.00  0.00    +0.003 C 
ATOM     13  C   LIG    1       22.346 -21.547   6.270  0.00  0.00    +0.000 C 
ATOM     14  C   LIG    1       23.379 -20.496   6.645  0.00  0.00    +0.003 C 
ATOM     15  C   LIG    1       22.983 -19.119   6.132  0.00  0.00    +0.035 C 
BRANCH  10  16
ATOM     16  O   LIG    1       21.863 -17.846   4.441  0.00  0.00    -0.388 OA
ATOM     17  H   LIG    1       22.024 -17.263   5.205  0.00  0.00    +0.210 HD
ENDBRANCH  10  16
ENDBRANCH   1  10
BRANCH   1  18
ATOM     18  C   LIG    1       25.011 -19.962   3.758  0.00  0.00    +0.094 C 
BRANCH  18  20
ATOM     19  C   LIG    1       25.714 -21.516   5.457  0.00  0.00    +0.104 C 
ATOM     20  N   LIG    1       25.744 -20.110   5.035  0.00  0.00    -0.308 NA
ATOM     21  C   LIG    1       27.132 -19.657   4.943  0.00  0.00    +0.104 C 
ENDBRANCH  18  20
ENDBRANCH   1  18
TORSDOF 6
ENDMDL
MODEL 8
REMARK VINA RESULT:      -1.8      3.091      4.780
REMARK  Name = *****
REMARK                            x       y       z     vdW  Elec       q    Type
REMARK                         _______ _______ _______ _____ _____    ______ ____
ROOT
ATOM      1  C   LIG    1       26.071 -18.564   4.691  0.00  0.00    +0.065 C 
ENDROOT
BRANCH   1   2
ATOM      2  C   LIG    1       24.774 -19.380   4.825  0.00  0.00    -0.040 A 
ATOM      3  C   LIG    1       23.555 -18.827   4.399  0.00  0.00    +0.007 A 
ATOM      4  C   LIG    1       22.369 -19.566   4.454  0.00  0.00    +0.045 A 
ATOM      5  C   LIG    1       22.398 -20.873   4.930  0.00  0.00    +0.117 A 
ATOM      6  C   LIG    1       23.583 -21.437   5.373  0.00  0.00    +0.045 A 
ATOM      7  C   LIG    1       24.765 -20.690   5.336  0.00  0.00    +0.007 A 
BRANCH   5   8
ATOM      8  O   LIG    1       21.227 -21.572   4.940  0.00  0.00    -0.507 OA
ATOM      9  H   LIG    1       21.425 -22.507   4.764  0.00  0.00    +0.292 HD
ENDBRANCH   5   8
ENDBRANCH   1   2
BRANCH   1  10
ATOM     10  C   LIG    1       26.024 -17.558   3.463  0.00  0.00    +0.074 C 
ATOM     11  C   LIG    1       24.713 -16.731   3.382  0.00  0.00    +0.035 C 
ATOM     12  C   LIG    1       24.697 -15.403   4.140  0.00  0.00    +0.003 C 
ATOM     13  C   LIG    1       25.940 -14.561   3.894  0.00  0.00    +0.000 C 
ATOM     14  C   LIG    1       27.222 -15.349   4.112  0.00  0.00    +0.003 C 
ATOM     15  C   LIG    1       27.241 -16.623   3.278  0.00  0.00    +0.035 C 
BRANCH  10  16
ATOM     16  O   LIG    1       25.975 -18.387   2.269  0.00  0.00    -0.388 OA
ATOM     17  H   LIG    1       26.083 -19.313   2.552  0.00  0.00    +0.210 HD
ENDBRANCH  10  16
ENDBRANCH   1  10
BRANCH   1  18
ATOM     18  C   LIG    1       27.362 -19.431   4.771  0.00  0.00    +0.094 C 
BRANCH  18  20
ATOM     19  C   LIG    1       28.568 -20.747   6.387  0.00  0.00    +0.104 C 
ATOM     20  N   LIG    1       28.163 -19.385   6.014  0.00  0.00    -0.308 NA
ATOM     21  C   LIG    1       29.350 -18.539   5.888  0.00  0.00    +0.104 C 
ENDBRANCH  18  20
ENDBRANCH   1  18
TORSDOF 6
ENDMDL
MODEL 9
REMARK VINA RESULT:      -1.5      2.744      5.640
REMARK  Name = *****
REMARK                            x       y       z     vdW  Elec       q    Type
REMARK                         _______ _______ _______ _____ _____    ______ ____
ROOT
ATOM      1  C   LIG    1       24.638 -17.851   4.078  0.00  0.00    +0.065 C 
ENDROOT
BRANCH   1   2
ATOM      2  C   LIG    1       25.038 -16.397   3.774  0.00  0.00    -0.040 A 
ATOM      3  C   LIG    1       26.302 -16.119   3.229  0.00  0.00    +0.007 A 
ATOM      4  C   LIG    1       26.670 -14.815   2.887  0.00  0.00    +0.045 A 
ATOM      5  C   LIG    1       25.767 -13.775   3.080  0.00  0.00    +0.117 A 
ATOM      6  C   LIG    1       24.519 -14.017   3.632  0.00  0.00    +0.045 A 
ATOM      7  C   LIG    1       24.160 -15.320   3.992  0.00  0.00    +0.007 A 
BRANCH   5   8
ATOM      8  O   LIG    1       26.152 -12.521   2.707  0.00  0.00    -0.507 OA
ATOM      9  H   LIG    1       25.497 -11.886   3.044  0.00  0.00    +0.292 HD
ENDBRANCH   5   8
ENDBRANCH   1   2
BRANCH   1  10
ATOM     10  C   LIG    1       25.784 -18.882   3.693  0.00  0.00    +0.074 C 
ATOM     11  C   LIG    1       27.215 -18.378   4.021  0.00  0.00    +0.035 C 
ATOM     12  C   LIG    1       27.748 -18.701   5.416  0.00  0.00    +0.003 C 
ATOM     13  C   LIG    1       27.530 -20.153   5.817  0.00  0.00    +0.000 C 
ATOM     14  C   LIG    1       26.087 -20.594   5.619  0.00  0.00    +0.003 C 
ATOM     15  C   LIG    1       25.616 -20.334   4.195  0.00  0.00    +0.035 C 
BRANCH  10  16
ATOM     16  O   LIG    1       25.778 -18.960   2.241  0.00  0.00    -0.388 OA
ATOM     17  H   LIG    1       25.189 -19.695   1.991  0.00  0.00    +0.210 HD
ENDBRANCH  10  16
ENDBRANCH   1  10
BRANCH   1  18
ATOM     18  C   LIG    1       23.221 -18.229   3.556  0.00  0.00    +0.094 C 
BRANCH  18  20
ATOM     19  C   LIG    1       20.878 -18.696   3.852  0.00  0.00    +0.104 C 
ATOM     20  N   LIG    1       22.156 -18.495   4.548  0.00  0.00    -0.308 NA
ATOM     21  C   LIG    1       22.445 -19.661   5.385  0.00  0.00    +0.104 C 
ENDBRANCH  18  20
ENDBRANCH   1  18
TORSDOF 6
ENDMDL
