MODEL 1
REMARK VINA RESULT:      -4.0      0.000      0.000
REMARK  Name = *****
REMARK                            x       y       z     vdW  Elec       q    Type
REMARK                         _______ _______ _______ _____ _____    ______ ____
ROOT
ATOM      1  N   LIG    1       25.888 -15.703   3.492  0.00  0.00    -0.300 N 
ATOM      2  C   LIG    1       25.119 -16.896   3.605  0.00  0.00    +0.037 A 
ATOM      3  C   LIG    1       23.799 -16.996   4.085  0.00  0.00    -0.026 A 
ATOM      4  C   LIG    1       23.174 -18.270   4.128  0.00  0.00    +0.005 A 
ATOM      5  C   LIG    1       23.823 -19.429   3.714  0.00  0.00    +0.000 A 
ATOM      6  C   LIG    1       25.094 -19.333   3.185  0.00  0.00    +0.002 A 
ATOM      7  C   LIG    1       22.917 -15.843   4.502  0.00  0.00    +0.041 C 
ATOM      8  C   LIG    1       23.600 -14.586   5.011  0.00  0.00    +0.041 C 
ATOM      9  C   LIG    1       24.276 -13.844   3.891  0.00  0.00    -0.026 A 
ATOM     10  C   LIG    1       23.806 -12.571   3.524  0.00  0.00    +0.005 A 
ATOM     11  C   LIG    1       24.405 -11.861   2.481  0.00  0.00    +0.000 A 
ATOM     12  C   LIG    1       25.494 -12.411   1.817  0.00  0.00    +0.002 A 
ATOM     13  C   LIG    1       25.966 -13.672   2.179  0.00  0.00    +0.024 A 
ATOM     14  C   LIG    1       25.704 -18.082   3.099  0.00  0.00    +0.024 A 
ATOM     15  C   LIG    1       25.362 -14.412   3.212  0.00  0.00    +0.037 A 
ENDROOT
BRANCH   1  16
ATOM     16  C   LIG    1       27.042 -15.596   4.455  0.00  0.00    +0.112 C 
BRANCH  16  17
ATOM     17  C   LIG    1       27.818 -14.275   4.348  0.00  0.00    +0.034 C 
BRANCH  17  18
ATOM     18  C   LIG    1       27.628 -13.312   5.520  0.00  0.00    +0.082 C 
BRANCH  18  20
ATOM     19  C   LIG    1       29.162 -12.185   4.009  0.00  0.00    +0.101 C 
ATOM     20  N   LIG    1       28.580 -12.210   5.339  0.00  0.00    -0.319 NA
ATOM     21  H   LIG    1       29.323 -12.276   6.035  0.00  0.00    +0.122 HD
ENDBRANCH  18  20
ENDBRANCH  17  18
ENDBRANCH  16  17
ENDBRANCH   1  16
TORSDOF 4
ENDMDL
MODEL 2
REMARK VINA RESULT:      -2.6      1.648      2.667
REMARK  Name = *****
REMARK                            x       y       z     vdW  Elec       q    Type
REMARK                         _______ _______ _______ _____ _____    ______ ____
ROOT
ATOM      1  N   LIG    1       25.822 -15.957   3.482  0.00  0.00    -0.300 N 
ATOM      2  C   LIG    1       24.988 -17.104   3.608  0.00  0.00    +0.037 A 
ATOM      3  C   LIG    1       23.673 -17.129   4.111  0.00  0.00    -0.026 A 
ATOM      4  C   LIG    1       22.976 -18.365   4.165  0.00  0.00    +0.005 A 
ATOM      5  C   LIG    1       23.550 -19.559   3.740  0.00  0.00    +0.000 A 
ATOM      6  C   LIG    1       24.816 -19.535   3.190  0.00  0.00    +0.002 A 
ATOM      7  C   LIG    1       22.865 -15.927   4.542  0.00  0.00    +0.041 C 
ATOM      8  C   LIG    1       23.627 -14.712   5.039  0.00  0.00    +0.041 C 
ATOM      9  C   LIG    1       24.325 -14.009   3.907  0.00  0.00    -0.026 A 
ATOM     10  C   LIG    1       23.923 -12.711   3.548  0.00  0.00    +0.005 A 
ATOM     11  C   LIG    1       24.544 -12.035   2.495  0.00  0.00    +0.000 A 
ATOM     12  C   LIG    1       25.588 -12.647   1.812  0.00  0.00    +0.002 A 
ATOM     13  C   LIG    1       25.993 -13.933   2.167  0.00  0.00    +0.024 A 
ATOM     14  C   LIG    1       25.494 -18.321   3.093  0.00  0.00    +0.024 A 
ATOM     15  C   LIG    1       25.366 -14.638   3.210  0.00  0.00    +0.037 A 
ENDROOT
BRANCH   1  16
ATOM     16  C   LIG    1       26.996 -15.917   4.426  0.00  0.00    +0.112 C 
BRANCH  16  17
ATOM     17  C   LIG    1       28.101 -16.927   4.082  0.00  0.00    +0.034 C 
BRANCH  17  18
ATOM     18  C   LIG    1       28.648 -17.722   5.268  0.00  0.00    +0.082 C 
BRANCH  18  20
ATOM     19  C   LIG    1       28.658 -19.975   6.179  0.00  0.00    +0.101 C 
ATOM     20  N   LIG    1       28.233 -19.118   5.087  0.00  0.00    -0.319 NA
ATOM     21  H   LIG    1       28.603 -19.478   4.207  0.00  0.00    +0.122 HD
ENDBRANCH  18  20
ENDBRANCH  17  18
ENDBRANCH  16  17
ENDBRANCH   1  16
TORSDOF 4
ENDMDL
MODEL 3
REMARK VINA RESULT:      -2.3      1.645      3.646
REMARK  Name = *****
REMARK                            x       y       z     vdW  Elec       q    Type
REMARK                         _______ _______ _______ _____ _____    ______ ____
ROOT
ATOM      1  N   LIG    1       24.242 -14.922   4.033  0.00  0.00    -0.300 N 
ATOM      2  C   LIG    1       23.829 -16.285   4.060  0.00  0.00    +0.037 A 
ATOM      3  C   LIG    1       24.618 -17.403   3.725  0.00  0.00    -0.026 A 
ATOM      4  C   LIG    1       24.049 -18.701   3.810  0.00  0.00    +0.005 A 
ATOM      5  C   LIG    1       22.734 -18.909   4.212  0.00  0.00    +0.000 A 
ATOM      6  C   LIG    1       21.972 -17.825   4.601  0.00  0.00    +0.002 A 
ATOM      7  C   LIG    1       26.080 -17.375   3.345  0.00  0.00    +0.041 C 
ATOM      8  C   LIG    1       26.614 -16.106   2.706  0.00  0.00    +0.041 C 
ATOM      9  C   LIG    1       26.713 -14.992   3.711  0.00  0.00    -0.026 A 
ATOM     10  C   LIG    1       27.978 -14.489   4.062  0.00  0.00    +0.005 A 
ATOM     11  C   LIG    1       28.105 -13.462   5.000  0.00  0.00    +0.000 A 
ATOM     12  C   LIG    1       26.963 -12.917   5.575  0.00  0.00    +0.002 A 
ATOM     13  C   LIG    1       25.706 -13.411   5.228  0.00  0.00    +0.024 A 
ATOM     14  C   LIG    1       22.533 -16.549   4.561  0.00  0.00    +0.024 A 
ATOM     15  C   LIG    1       25.559 -14.459   4.302  0.00  0.00    +0.037 A 
ENDROOT
BRANCH   1  16
ATOM     16  C   LIG    1       23.608 -14.087   2.952  0.00  0.00    +0.112 C 
BRANCH  16  17
ATOM     17  C   LIG    1       24.622 -13.362   2.054  0.00  0.00    +0.034 C 
BRANCH  17  18
ATOM     18  C   LIG    1       24.652 -11.841   2.204  0.00  0.00    +0.082 C 
BRANCH  18  20
ATOM     19  C   LIG    1       23.620 -11.447   4.369  0.00  0.00    +0.101 C 
ATOM     20  N   LIG    1       23.437 -11.449   2.929  0.00  0.00    -0.319 NA
ATOM     21  H   LIG    1       22.670 -12.076   2.683  0.00  0.00    +0.122 HD
ENDBRANCH  18  20
ENDBRANCH  17  18
ENDBRANCH  16  17
ENDBRANCH   1  16
TORSDOF 4
ENDMDL
MODEL 4
REMARK VINA RESULT:      -1.1      3.064      5.984
REMARK  Name = *****
REMARK                            x       y       z     vdW  Elec       q    Type
REMARK                         _______ _______ _______ _____ _____    ______ ____
ROOT
ATOM      1  N   LIG    1       25.212 -19.227   4.392  0.00  0.00    -0.300 N 
ATOM      2  C   LIG    1       26.339 -19.673   5.140  0.00  0.00    +0.037 A 
ATOM      3  C   LIG    1       27.596 -19.043   5.211  0.00  0.00    -0.026 A 
ATOM      4  C   LIG    1       28.615 -19.622   6.012  0.00  0.00    +0.005 A 
ATOM      5  C   LIG    1       28.416 -20.798   6.729  0.00  0.00    +0.000 A 
ATOM      6  C   LIG    1       27.170 -21.389   6.714  0.00  0.00    +0.002 A 
ATOM      7  C   LIG    1       27.967 -17.727   4.567  0.00  0.00    +0.041 C 
ATOM      8  C   LIG    1       27.214 -17.325   3.312  0.00  0.00    +0.041 C 
ATOM      9  C   LIG    1       25.800 -16.926   3.633  0.00  0.00    -0.026 A 
ATOM     10  C   LIG    1       25.396 -15.594   3.433  0.00  0.00    +0.005 A 
ATOM     11  C   LIG    1       24.092 -15.190   3.730  0.00  0.00    +0.000 A 
ATOM     12  C   LIG    1       23.180 -16.123   4.207  0.00  0.00    +0.002 A 
ATOM     13  C   LIG    1       23.575 -17.445   4.404  0.00  0.00    +0.024 A 
ATOM     14  C   LIG    1       26.148 -20.807   5.964  0.00  0.00    +0.024 A 
ATOM     15  C   LIG    1       24.888 -17.867   4.131  0.00  0.00    +0.037 A 
ENDROOT
BRANCH   1  16
ATOM     16  C   LIG    1       24.857 -20.083   3.204  0.00  0.00    +0.112 C 
BRANCH  16  17
ATOM     17  C   LIG    1       23.826 -21.178   3.517  0.00  0.00    +0.034 C 
BRANCH  17  18
ATOM     18  C   LIG    1       22.634 -20.726   4.361  0.00  0.00    +0.082 C 
BRANCH  18  20
ATOM     19  C   LIG    1       23.072 -20.878   6.747  0.00  0.00    +0.101 C 
ATOM     20  N   LIG    1       22.604 -21.572   5.561  0.00  0.00    -0.319 NA
ATOM     21  H   LIG    1       23.168 -22.408   5.410  0.00  0.00    +0.122 HD
ENDBRANCH  18  20
ENDBRANCH  17  18
ENDBRANCH  16  17
ENDBRANCH   1  16
TORSDOF 4
ENDMDL
