MODEL 1
REMARK VINA RESULT:      -5.2      0.000      0.000
REMARK  Name = *****
REMARK                            x       y       z     vdW  Elec       q    Type
REMARK                         _______ _______ _______ _____ _____    ______ ____
ROOT
ATOM      1  N   LIG    1       23.298 -29.629  12.014  0.00  0.00    -0.297 NA
ATOM      2  C   LIG    1       24.742 -29.714  12.314  0.00  0.00    +0.100 C 
ATOM      3  C   LIG    1       25.535 -29.388  11.032  0.00  0.00    +0.100 C 
ATOM      4  N   LIG    1       26.802 -30.165  10.938  0.00  0.00    -0.290 NA
ATOM      5  C   LIG    1       26.833 -30.856   9.613  0.00  0.00    +0.100 C 
ATOM      6  C   LIG    1       25.869 -32.080   9.487  0.00  0.00    +0.100 C 
ATOM      7  N   LIG    1       24.545 -31.892   8.789  0.00  0.00    -0.290 NA
ATOM      8  C   LIG    1       23.767 -33.150   9.017  0.00  0.00    +0.100 C 
ATOM      9  C   LIG    1       22.213 -33.063   8.987  0.00  0.00    +0.100 C 
ATOM     10  N   LIG    1       21.535 -32.456  10.170  0.00  0.00    -0.290 NA
ATOM     11  C   LIG    1       21.915 -31.042  10.440  0.00  0.00    +0.100 C 
ATOM     12  C   LIG    1       22.795 -30.984  11.691  0.00  0.00    +0.100 C 
ENDROOT
BRANCH   1  13
ATOM     13  C   LIG    1       22.515 -29.008  13.105  0.00  0.00    +0.115 C 
BRANCH  13  15
ATOM     14  C   LIG    1       21.439 -26.700  13.240  0.00  0.00    +0.039 C 
ATOM     15  C   LIG    1       21.329 -28.105  12.657  0.00  0.00    +0.125 C 
BRANCH  15  16
ATOM     16  O   LIG    1       20.076 -28.672  13.044  0.00  0.00    -0.391 OA
ATOM     17  H   LIG    1       20.105 -28.854  13.997  0.00  0.00    +0.210 HD
ENDBRANCH  15  16
ENDBRANCH  13  15
ENDBRANCH   1  13
BRANCH   4  18
ATOM     18  C   LIG    1       27.969 -29.239  11.011  0.00  0.00    +0.205 C 
BRANCH  18  19
ATOM     19  C   LIG    1       28.904 -29.556  12.181  0.00  0.00    +0.319 C 
ATOM     20  O   LIG    1       28.536 -30.012  13.248  0.00  0.00    -0.250 OA
BRANCH  19  21
ATOM     21  O   LIG    1       30.203 -29.254  11.925  0.00  0.00    -0.480 OA
ATOM     22  H   LIG    1       30.601 -29.910  11.321  0.00  0.00    +0.295 HD
ENDBRANCH  19  21
ENDBRANCH  18  19
ENDBRANCH   4  18
BRANCH   7  23
ATOM     23  C   LIG    1       24.797 -31.678   7.319  0.00  0.00    +0.205 C 
BRANCH  23  24
ATOM     24  C   LIG    1       24.262 -30.359   6.761  0.00  0.00    +0.319 C 
ATOM     25  O   LIG    1       24.553 -29.272   7.175  0.00  0.00    -0.250 OA
BRANCH  24  26
ATOM     26  O   LIG    1       23.334 -30.536   5.777  0.00  0.00    -0.480 OA
ATOM     27  H   LIG    1       22.687 -31.161   6.140  0.00  0.00    +0.295 HD
ENDBRANCH  24  26
ENDBRANCH  23  24
ENDBRANCH   7  23
BRANCH  10  28
ATOM     28  C   LIG    1       20.049 -32.505  10.018  0.00  0.00    +0.205 C 
BRANCH  28  29
ATOM     29  C   LIG    1       19.361 -31.328  10.698  0.00  0.00    +0.319 C 
ATOM     30  O   LIG    1       19.198 -31.232  11.908  0.00  0.00    -0.250 OA
BRANCH  29  31
ATOM     31  O   LIG    1       18.880 -30.411   9.819  0.00  0.00    -0.480 OA
ATOM     32  H   LIG    1       18.847 -30.831   8.930  0.00  0.00    +0.295 HD
ENDBRANCH  29  31
ENDBRANCH  28  29
ENDBRANCH  10  28
TORSDOF 12
ENDMDL
MODEL 2
REMARK VINA RESULT:      -4.9      3.383      7.048
REMARK  Name = *****
REMARK                            x       y       z     vdW  Elec       q    Type
REMARK                         _______ _______ _______ _____ _____    ______ ____
ROOT
ATOM      1  N   LIG    1       24.953 -29.009   6.476  0.00  0.00    -0.297 NA
ATOM      2  C   LIG    1       25.523 -29.745   5.329  0.00  0.00    +0.100 C 
ATOM      3  C   LIG    1       24.877 -31.145   5.267  0.00  0.00    +0.100 C 
ATOM      4  N   LIG    1       25.825 -32.183   4.776  0.00  0.00    -0.290 NA
ATOM      5  C   LIG    1       25.845 -33.306   5.762  0.00  0.00    +0.100 C 
ATOM      6  C   LIG    1       26.600 -32.998   7.095  0.00  0.00    +0.100 C 
ATOM      7  N   LIG    1       25.798 -32.614   8.312  0.00  0.00    -0.290 NA
ATOM      8  C   LIG    1       26.785 -32.172   9.346  0.00  0.00    +0.100 C 
ATOM      9  C   LIG    1       26.305 -31.167  10.433  0.00  0.00    +0.100 C 
ATOM     10  N   LIG    1       26.133 -29.742  10.023  0.00  0.00    -0.290 NA
ATOM     11  C   LIG    1       25.130 -29.528   8.944  0.00  0.00    +0.100 C 
ATOM     12  C   LIG    1       25.853 -29.171   7.642  0.00  0.00    +0.100 C 
ENDROOT
BRANCH   1  13
ATOM     13  C   LIG    1       24.702 -27.581   6.181  0.00  0.00    +0.115 C 
BRANCH  13  15
ATOM     14  C   LIG    1       25.473 -25.163   6.422  0.00  0.00    +0.039 C 
ATOM     15  C   LIG    1       25.910 -26.624   6.397  0.00  0.00    +0.125 C 
BRANCH  15  16
ATOM     16  O   LIG    1       26.894 -26.798   5.377  0.00  0.00    -0.391 OA
ATOM     17  H   LIG    1       26.482 -27.267   4.634  0.00  0.00    +0.210 HD
ENDBRANCH  15  16
ENDBRANCH  13  15
ENDBRANCH   1  13
BRANCH   4  18
ATOM     18  C   LIG    1       25.354 -32.718   3.465  0.00  0.00    +0.205 C 
BRANCH  18  19
ATOM     19  C   LIG    1       26.506 -33.080   2.524  0.00  0.00    +0.319 C 
ATOM     20  O   LIG    1       27.601 -33.458   2.897  0.00  0.00    -0.250 OA
BRANCH  19  21
ATOM     21  O   LIG    1       26.198 -32.913   1.213  0.00  0.00    -0.480 OA
ATOM     22  H   LIG    1       26.625 -33.599   0.664  0.00  0.00    +0.295 HD
ENDBRANCH  19  21
ENDBRANCH  18  19
ENDBRANCH   4  18
BRANCH   7  23
ATOM     23  C   LIG    1       25.029 -33.819   8.787  0.00  0.00    +0.205 C 
BRANCH  23  24
ATOM     24  C   LIG    1       23.604 -33.529   9.257  0.00  0.00    +0.319 C 
ATOM     25  O   LIG    1       23.281 -33.351  10.398  0.00  0.00    -0.250 OA
BRANCH  24  26
ATOM     26  O   LIG    1       22.691 -33.576   8.244  0.00  0.00    -0.480 OA
ATOM     27  H   LIG    1       22.001 -34.189   8.543  0.00  0.00    +0.295 HD
ENDBRANCH  24  26
ENDBRANCH  23  24
ENDBRANCH   7  23
BRANCH  10  28
ATOM     28  C   LIG    1       25.734 -28.894  11.187  0.00  0.00    +0.205 C 
BRANCH  28  29
ATOM     29  C   LIG    1       26.878 -28.018  11.682  0.00  0.00    +0.319 C 
ATOM     30  O   LIG    1       26.725 -26.947  12.255  0.00  0.00    -0.250 OA
BRANCH  29  31
ATOM     31  O   LIG    1       28.103 -28.512  11.366  0.00  0.00    -0.480 OA
ATOM     32  H   LIG    1       28.413 -29.062  12.120  0.00  0.00    +0.295 HD
ENDBRANCH  29  31
ENDBRANCH  28  29
ENDBRANCH  10  28
TORSDOF 12
ENDMDL
MODEL 3
REMARK VINA RESULT:      -4.8      1.725      7.522
REMARK  Name = *****
REMARK                            x       y       z     vdW  Elec       q    Type
REMARK                         _______ _______ _______ _____ _____    ______ ____
ROOT
ATOM      1  N   LIG    1       23.060 -30.995   9.373  0.00  0.00    -0.297 NA
ATOM      2  C   LIG    1       22.075 -32.024   9.764  0.00  0.00    +0.100 C 
ATOM      3  C   LIG    1       20.867 -31.330  10.426  0.00  0.00    +0.100 C 
ATOM      4  N   LIG    1       20.263 -32.155  11.508  0.00  0.00    -0.290 NA
ATOM      5  C   LIG    1       20.180 -31.322  12.746  0.00  0.00    +0.100 C 
ATOM      6  C   LIG    1       21.547 -31.070  13.462  0.00  0.00    +0.100 C 
ATOM      7  N   LIG    1       22.255 -29.758  13.234  0.00  0.00    -0.290 NA
ATOM      8  C   LIG    1       23.609 -29.897  13.856  0.00  0.00    +0.100 C 
ATOM      9  C   LIG    1       24.766 -29.023  13.289  0.00  0.00    +0.100 C 
ATOM     10  N   LIG    1       25.353 -29.425  11.977  0.00  0.00    -0.290 NA
ATOM     11  C   LIG    1       24.387 -29.426  10.844  0.00  0.00    +0.100 C 
ATOM     12  C   LIG    1       24.073 -30.871  10.447  0.00  0.00    +0.100 C 
ENDROOT
BRANCH   1  13
ATOM     13  C   LIG    1       23.691 -31.265   8.063  0.00  0.00    +0.115 C 
BRANCH  13  15
ATOM     14  C   LIG    1       24.102 -29.696   6.096  0.00  0.00    +0.039 C 
ATOM     15  C   LIG    1       24.568 -30.116   7.486  0.00  0.00    +0.125 C 
BRANCH  15  16
ATOM     16  O   LIG    1       25.942 -30.500   7.419  0.00  0.00    -0.391 OA
ATOM     17  H   LIG    1       26.088 -30.965   6.580  0.00  0.00    +0.210 HD
ENDBRANCH  15  16
ENDBRANCH  13  15
ENDBRANCH   1  13
BRANCH   4  18
ATOM     18  C   LIG    1       18.880 -32.561  11.123  0.00  0.00    +0.205 C 
BRANCH  18  19
ATOM     19  C   LIG    1       18.039 -31.388  10.611  0.00  0.00    +0.319 C 
ATOM     20  O   LIG    1       18.067 -30.974   9.467  0.00  0.00    -0.250 OA
BRANCH  19  21
ATOM     21  O   LIG    1       17.265 -30.826  11.574  0.00  0.00    -0.480 OA
ATOM     22  H   LIG    1       16.419 -31.306  11.666  0.00  0.00    +0.295 HD
ENDBRANCH  19  21
ENDBRANCH  18  19
ENDBRANCH   4  18
BRANCH   7  23
ATOM     23  C   LIG    1       21.469 -28.660  13.902  0.00  0.00    +0.205 C 
BRANCH  23  24
ATOM     24  C   LIG    1       21.387 -27.355  13.110  0.00  0.00    +0.319 C 
ATOM     25  O   LIG    1       22.255 -26.530  13.058  0.00  0.00    -0.250 OA
BRANCH  24  26
ATOM     26  O   LIG    1       20.172 -27.168  12.519  0.00  0.00    -0.480 OA
ATOM     27  H   LIG    1       20.354 -26.689  11.695  0.00  0.00    +0.295 HD
ENDBRANCH  24  26
ENDBRANCH  23  24
ENDBRANCH   7  23
BRANCH  10  28
ATOM     28  C   LIG    1       26.490 -28.531  11.603  0.00  0.00    +0.205 C 
BRANCH  28  29
ATOM     29  C   LIG    1       27.518 -29.240  10.730  0.00  0.00    +0.319 C 
ATOM     30  O   LIG    1       28.429 -29.933  11.164  0.00  0.00    -0.250 OA
BRANCH  29  31
ATOM     31  O   LIG    1       27.367 -28.974   9.406  0.00  0.00    -0.480 OA
ATOM     32  H   LIG    1       26.406 -28.864   9.226  0.00  0.00    +0.295 HD
ENDBRANCH  29  31
ENDBRANCH  28  29
ENDBRANCH  10  28
TORSDOF 12
ENDMDL
MODEL 4
REMARK VINA RESULT:      -4.8      2.500      6.816
REMARK  Name = *****
REMARK                            x       y       z     vdW  Elec       q    Type
REMARK                         _______ _______ _______ _____ _____    ______ ____
ROOT
ATOM      1  N   LIG    1       25.048 -29.550   7.742  0.00  0.00    -0.297 NA
ATOM      2  C   LIG    1       25.197 -30.676   6.796  0.00  0.00    +0.100 C 
ATOM      3  C   LIG    1       23.966 -31.597   6.924  0.00  0.00    +0.100 C 
ATOM      4  N   LIG    1       24.309 -33.031   6.709  0.00  0.00    -0.290 NA
ATOM      5  C   LIG    1       23.802 -33.816   7.874  0.00  0.00    +0.100 C 
ATOM      6  C   LIG    1       24.620 -33.639   9.194  0.00  0.00    +0.100 C 
ATOM      7  N   LIG    1       24.101 -32.696  10.250  0.00  0.00    -0.290 NA
ATOM      8  C   LIG    1       25.185 -32.569  11.272  0.00  0.00    +0.100 C 
ATOM      9  C   LIG    1       25.243 -31.264  12.119  0.00  0.00    +0.100 C 
ATOM     10  N   LIG    1       25.762 -30.034  11.452  0.00  0.00    -0.290 NA
ATOM     11  C   LIG    1       24.972 -29.596  10.268  0.00  0.00    +0.100 C 
ATOM     12  C   LIG    1       25.771 -29.878   8.993  0.00  0.00    +0.100 C 
ENDROOT
BRANCH   1  13
ATOM     13  C   LIG    1       25.499 -28.258   7.180  0.00  0.00    +0.115 C 
BRANCH  13  15
ATOM     14  C   LIG    1       26.249 -27.079   5.047  0.00  0.00    +0.039 C 
ATOM     15  C   LIG    1       25.255 -28.062   5.655  0.00  0.00    +0.125 C 
BRANCH  15  16
ATOM     16  O   LIG    1       23.928 -27.600   5.401  0.00  0.00    -0.391 OA
ATOM     17  H   LIG    1       23.982 -26.691   5.063  0.00  0.00    +0.210 HD
ENDBRANCH  15  16
ENDBRANCH  13  15
ENDBRANCH   1  13
BRANCH   4  18
ATOM     18  C   LIG    1       23.634 -33.531   5.476  0.00  0.00    +0.205 C 
BRANCH  18  19
ATOM     19  C   LIG    1       24.554 -33.523   4.252  0.00  0.00    +0.319 C 
ATOM     20  O   LIG    1       25.765 -33.422   4.307  0.00  0.00    -0.250 OA
BRANCH  19  21
ATOM     21  O   LIG    1       23.880 -33.614   3.077  0.00  0.00    -0.480 OA
ATOM     22  H   LIG    1       24.102 -34.444   2.611  0.00  0.00    +0.295 HD
ENDBRANCH  19  21
ENDBRANCH  18  19
ENDBRANCH   4  18
BRANCH   7  23
ATOM     23  C   LIG    1       22.857 -33.287  10.859  0.00  0.00    +0.205 C 
BRANCH  23  24
ATOM     24  C   LIG    1       21.591 -32.451  10.677  0.00  0.00    +0.319 C 
ATOM     25  O   LIG    1       20.533 -32.688  11.188  0.00  0.00    -0.250 OA
BRANCH  24  26
ATOM     26  O   LIG    1       21.753 -31.429   9.787  0.00  0.00    -0.480 OA
ATOM     27  H   LIG    1       22.687 -31.456   9.527  0.00  0.00    +0.295 HD
ENDBRANCH  24  26
ENDBRANCH  23  24
ENDBRANCH   7  23
BRANCH  10  28
ATOM     28  C   LIG    1       25.816 -28.888  12.409  0.00  0.00    +0.205 C 
BRANCH  28  29
ATOM     29  C   LIG    1       26.977 -27.947  12.117  0.00  0.00    +0.319 C 
ATOM     30  O   LIG    1       26.932 -26.732  12.266  0.00  0.00    -0.250 OA
BRANCH  29  31
ATOM     31  O   LIG    1       28.063 -28.582  11.605  0.00  0.00    -0.480 OA
ATOM     32  H   LIG    1       28.448 -29.145  12.314  0.00  0.00    +0.295 HD
ENDBRANCH  29  31
ENDBRANCH  28  29
ENDBRANCH  10  28
TORSDOF 12
ENDMDL
MODEL 5
REMARK VINA RESULT:      -4.6      2.475      5.721
REMARK  Name = *****
REMARK                            x       y       z     vdW  Elec       q    Type
REMARK                         _______ _______ _______ _____ _____    ______ ____
ROOT
ATOM      1  N   LIG    1       26.012 -29.005  10.452  0.00  0.00    -0.297 NA
ATOM      2  C   LIG    1       26.099 -29.137   8.984  0.00  0.00    +0.100 C 
ATOM      3  C   LIG    1       24.700 -29.487   8.433  0.00  0.00    +0.100 C 
ATOM      4  N   LIG    1       24.768 -30.384   7.246  0.00  0.00    -0.290 NA
ATOM      5  C   LIG    1       23.893 -31.568   7.501  0.00  0.00    +0.100 C 
ATOM      6  C   LIG    1       24.463 -32.598   8.530  0.00  0.00    +0.100 C 
ATOM      7  N   LIG    1       23.961 -32.558   9.952  0.00  0.00    -0.290 NA
ATOM      8  C   LIG    1       24.831 -33.491  10.733  0.00  0.00    +0.100 C 
ATOM      9  C   LIG    1       24.999 -33.229  12.258  0.00  0.00    +0.100 C 
ATOM     10  N   LIG    1       25.883 -32.099  12.669  0.00  0.00    -0.290 NA
ATOM     11  C   LIG    1       25.445 -30.764  12.176  0.00  0.00    +0.100 C 
ATOM     12  C   LIG    1       26.396 -30.294  11.072  0.00  0.00    +0.100 C 
ENDROOT
BRANCH   1  13
ATOM     13  C   LIG    1       26.824 -27.887  10.982  0.00  0.00    +0.115 C 
BRANCH  13  15
ATOM     14  C   LIG    1       26.495 -26.160  12.829  0.00  0.00    +0.039 C 
ATOM     15  C   LIG    1       26.711 -27.637  12.514  0.00  0.00    +0.125 C 
BRANCH  15  16
ATOM     16  O   LIG    1       27.879 -28.092  13.198  0.00  0.00    -0.391 OA
ATOM     17  H   LIG    1       27.924 -29.058  13.114  0.00  0.00    +0.210 HD
ENDBRANCH  15  16
ENDBRANCH  13  15
ENDBRANCH   1  13
BRANCH   4  18
ATOM     18  C   LIG    1       24.252 -29.670   6.043  0.00  0.00    +0.205 C 
BRANCH  18  19
ATOM     19  C   LIG    1       24.888 -28.290   5.855  0.00  0.00    +0.319 C 
ATOM     20  O   LIG    1       24.304 -27.237   6.037  0.00  0.00    -0.250 OA
BRANCH  19  21
ATOM     21  O   LIG    1       26.177 -28.348   5.434  0.00  0.00    -0.480 OA
ATOM     22  H   LIG    1       26.789 -28.406   6.194  0.00  0.00    +0.295 HD
ENDBRANCH  19  21
ENDBRANCH  18  19
ENDBRANCH   4  18
BRANCH   7  23
ATOM     23  C   LIG    1       22.527 -33.019   9.974  0.00  0.00    +0.205 C 
BRANCH  23  24
ATOM     24  C   LIG    1       21.509 -31.937  10.335  0.00  0.00    +0.319 C 
ATOM     25  O   LIG    1       21.595 -30.783  10.021  0.00  0.00    -0.250 OA
BRANCH  24  26
ATOM     26  O   LIG    1       20.509 -32.396  11.142  0.00  0.00    -0.480 OA
ATOM     27  H   LIG    1       20.699 -33.337  11.281  0.00  0.00    +0.295 HD
ENDBRANCH  24  26
ENDBRANCH  23  24
ENDBRANCH   7  23
BRANCH  10  28
ATOM     28  C   LIG    1       25.993 -32.019  14.157  0.00  0.00    +0.205 C 
BRANCH  28  29
ATOM     29  C   LIG    1       26.991 -30.958  14.605  0.00  0.00    +0.319 C 
ATOM     30  O   LIG    1       28.193 -31.004  14.375  0.00  0.00    -0.250 OA
BRANCH  29  31
ATOM     31  O   LIG    1       26.424 -29.975  15.352  0.00  0.00    -0.480 OA
ATOM     32  H   LIG    1       26.849 -29.984  16.240  0.00  0.00    +0.295 HD
ENDBRANCH  29  31
ENDBRANCH  28  29
ENDBRANCH  10  28
TORSDOF 12
ENDMDL
MODEL 6
REMARK VINA RESULT:      -4.2      1.926      5.024
REMARK  Name = *****
REMARK                            x       y       z     vdW  Elec       q    Type
REMARK                         _______ _______ _______ _____ _____    ______ ____
ROOT
ATOM      1  N   LIG    1       24.261 -30.910   9.571  0.00  0.00    -0.297 NA
ATOM      2  C   LIG    1       25.145 -29.755   9.829  0.00  0.00    +0.100 C 
ATOM      3  C   LIG    1       25.582 -29.786  11.308  0.00  0.00    +0.100 C 
ATOM      4  N   LIG    1       25.743 -28.420  11.879  0.00  0.00    -0.290 NA
ATOM      5  C   LIG    1       24.934 -28.336  13.133  0.00  0.00    +0.100 C 
ATOM      6  C   LIG    1       23.388 -28.252  12.914  0.00  0.00    +0.100 C 
ATOM      7  N   LIG    1       22.564 -29.505  13.067  0.00  0.00    -0.290 NA
ATOM      8  C   LIG    1       21.187 -29.166  12.589  0.00  0.00    +0.100 C 
ATOM      9  C   LIG    1       20.300 -30.320  12.039  0.00  0.00    +0.100 C 
ATOM     10  N   LIG    1       20.618 -30.844  10.678  0.00  0.00    -0.290 NA
ATOM     11  C   LIG    1       21.984 -31.419  10.543  0.00  0.00    +0.100 C 
ATOM     12  C   LIG    1       22.852 -30.474   9.707  0.00  0.00    +0.100 C 
ENDROOT
BRANCH   1  13
ATOM     13  C   LIG    1       24.506 -31.544   8.256  0.00  0.00    +0.115 C 
BRANCH  13  15
ATOM     14  C   LIG    1       24.507 -30.255   6.056  0.00  0.00    +0.039 C 
ATOM     15  C   LIG    1       25.345 -30.706   7.248  0.00  0.00    +0.125 C 
BRANCH  15  16
ATOM     16  O   LIG    1       26.469 -31.446   6.772  0.00  0.00    -0.391 OA
ATOM     17  H   LIG    1       26.379 -31.553   5.812  0.00  0.00    +0.210 HD
ENDBRANCH  15  16
ENDBRANCH  13  15
ENDBRANCH   1  13
BRANCH   4  18
ATOM     18  C   LIG    1       27.174 -28.183  12.228  0.00  0.00    +0.205 C 
BRANCH  18  19
ATOM     19  C   LIG    1       27.976 -29.481  12.353  0.00  0.00    +0.319 C 
ATOM     20  O   LIG    1       27.928 -30.225  13.315  0.00  0.00    -0.250 OA
BRANCH  19  21
ATOM     21  O   LIG    1       28.780 -29.718  11.286  0.00  0.00    -0.480 OA
ATOM     22  H   LIG    1       29.596 -29.182  11.338  0.00  0.00    +0.295 HD
ENDBRANCH  19  21
ENDBRANCH  18  19
ENDBRANCH   4  18
BRANCH   7  23
ATOM     23  C   LIG    1       22.543 -29.898  14.521  0.00  0.00    +0.205 C 
BRANCH  23  24
ATOM     24  C   LIG    1       23.142 -31.271  14.825  0.00  0.00    +0.319 C 
ATOM     25  O   LIG    1       24.264 -31.461  15.202  0.00  0.00    -0.250 OA
BRANCH  24  26
ATOM     26  O   LIG    1       22.289 -32.297  14.541  0.00  0.00    -0.480 OA
ATOM     27  H   LIG    1       22.810 -32.934  14.027  0.00  0.00    +0.295 HD
ENDBRANCH  24  26
ENDBRANCH  23  24
ENDBRANCH   7  23
BRANCH  10  28
ATOM     28  C   LIG    1       19.640 -31.898  10.268  0.00  0.00    +0.205 C 
BRANCH  28  29
ATOM     29  C   LIG    1       18.198 -31.418  10.370  0.00  0.00    +0.319 C 
ATOM     30  O   LIG    1       17.377 -31.870  11.158  0.00  0.00    -0.250 OA
BRANCH  29  31
ATOM     31  O   LIG    1       17.884 -30.473   9.447  0.00  0.00    -0.480 OA
ATOM     32  H   LIG    1       17.143 -29.933   9.804  0.00  0.00    +0.295 HD
ENDBRANCH  29  31
ENDBRANCH  28  29
ENDBRANCH  10  28
TORSDOF 12
ENDMDL
MODEL 7
REMARK VINA RESULT:      -4.2      1.753      7.669
REMARK  Name = *****
REMARK                            x       y       z     vdW  Elec       q    Type
REMARK                         _______ _______ _______ _____ _____    ______ ____
ROOT
ATOM      1  N   LIG    1       23.731 -30.308   9.602  0.00  0.00    -0.297 NA
ATOM      2  C   LIG    1       22.608 -31.244   9.811  0.00  0.00    +0.100 C 
ATOM      3  C   LIG    1       21.439 -30.478  10.465  0.00  0.00    +0.100 C 
ATOM      4  N   LIG    1       20.662 -31.330  11.407  0.00  0.00    -0.290 NA
ATOM      5  C   LIG    1       20.579 -30.624  12.721  0.00  0.00    +0.100 C 
ATOM      6  C   LIG    1       21.905 -30.615  13.549  0.00  0.00    +0.100 C 
ATOM      7  N   LIG    1       22.774 -29.383  13.514  0.00  0.00    -0.290 NA
ATOM      8  C   LIG    1       24.051 -29.748  14.204  0.00  0.00    +0.100 C 
ATOM      9  C   LIG    1       25.340 -28.968  13.815  0.00  0.00    +0.100 C 
ATOM     10  N   LIG    1       25.979 -29.304  12.508  0.00  0.00    -0.290 NA
ATOM     11  C   LIG    1       25.111 -29.071  11.321  0.00  0.00    +0.100 C 
ATOM     12  C   LIG    1       24.665 -30.418  10.746  0.00  0.00    +0.100 C 
ENDROOT
BRANCH   1  13
ATOM     13  C   LIG    1       24.428 -30.518   8.313  0.00  0.00    +0.115 C 
BRANCH  13  15
ATOM     14  C   LIG    1       24.884 -32.787   7.243  0.00  0.00    +0.039 C 
ATOM     15  C   LIG    1       23.868 -31.663   7.421  0.00  0.00    +0.125 C 
BRANCH  15  16
ATOM     16  O   LIG    1       23.485 -31.174   6.135  0.00  0.00    -0.391 OA
ATOM     17  H   LIG    1       22.984 -31.871   5.681  0.00  0.00    +0.210 HD
ENDBRANCH  15  16
ENDBRANCH  13  15
ENDBRANCH   1  13
BRANCH   4  18
ATOM     18  C   LIG    1       19.276 -31.523  10.889  0.00  0.00    +0.205 C 
BRANCH  18  19
ATOM     19  C   LIG    1       18.657 -32.851  11.332  0.00  0.00    +0.319 C 
ATOM     20  O   LIG    1       17.465 -33.028  11.501  0.00  0.00    -0.250 OA
BRANCH  19  21
ATOM     21  O   LIG    1       19.578 -33.825  11.548  0.00  0.00    -0.480 OA
ATOM     22  H   LIG    1       19.250 -34.691  11.235  0.00  0.00    +0.295 HD
ENDBRANCH  19  21
ENDBRANCH  18  19
ENDBRANCH   4  18
BRANCH   7  23
ATOM     23  C   LIG    1       22.069 -28.271  14.246  0.00  0.00    +0.205 C 
BRANCH  23  24
ATOM     24  C   LIG    1       21.784 -27.027  13.406  0.00  0.00    +0.319 C 
ATOM     25  O   LIG    1       20.735 -26.780  12.881  0.00  0.00    -0.250 OA
BRANCH  24  26
ATOM     26  O   LIG    1       22.885 -26.241  13.229  0.00  0.00    -0.480 OA
ATOM     27  H   LIG    1       23.636 -26.854  13.175  0.00  0.00    +0.295 HD
ENDBRANCH  24  26
ENDBRANCH  23  24
ENDBRANCH   7  23
BRANCH  10  28
ATOM     28  C   LIG    1       27.236 -28.521  12.310  0.00  0.00    +0.205 C 
BRANCH  28  29
ATOM     29  C   LIG    1       28.355 -29.369  11.717  0.00  0.00    +0.319 C 
ATOM     30  O   LIG    1       28.223 -30.097  10.742  0.00  0.00    -0.250 OA
BRANCH  29  31
ATOM     31  O   LIG    1       29.514 -29.290  12.421  0.00  0.00    -0.480 OA
ATOM     32  H   LIG    1       30.262 -29.355  11.785  0.00  0.00    +0.295 HD
ENDBRANCH  29  31
ENDBRANCH  28  29
ENDBRANCH  10  28
TORSDOF 12
ENDMDL
MODEL 8
REMARK VINA RESULT:      -4.1      1.781      2.019
REMARK  Name = *****
REMARK                            x       y       z     vdW  Elec       q    Type
REMARK                         _______ _______ _______ _____ _____    ______ ____
ROOT
ATOM      1  N   LIG    1       22.279 -29.002  12.163  0.00  0.00    -0.297 NA
ATOM      2  C   LIG    1       23.595 -29.254  12.783  0.00  0.00    +0.100 C 
ATOM      3  C   LIG    1       24.641 -29.450  11.666  0.00  0.00    +0.100 C 
ATOM      4  N   LIG    1       25.694 -30.434  12.042  0.00  0.00    -0.290 NA
ATOM      5  C   LIG    1       25.781 -31.466  10.965  0.00  0.00    +0.100 C 
ATOM      6  C   LIG    1       24.595 -32.484  10.931  0.00  0.00    +0.100 C 
ATOM      7  N   LIG    1       23.482 -32.269   9.936  0.00  0.00    -0.290 NA
ATOM      8  C   LIG    1       22.409 -33.252  10.286  0.00  0.00    +0.100 C 
ATOM      9  C   LIG    1       20.944 -32.903   9.896  0.00  0.00    +0.100 C 
ATOM     10  N   LIG    1       20.238 -31.876  10.720  0.00  0.00    -0.290 NA
ATOM     11  C   LIG    1       20.884 -30.534  10.715  0.00  0.00    +0.100 C 
ATOM     12  C   LIG    1       21.538 -30.282  12.077  0.00  0.00    +0.100 C 
ENDROOT
BRANCH   1  13
ATOM     13  C   LIG    1       21.492 -27.969  12.873  0.00  0.00    +0.115 C 
BRANCH  13  15
ATOM     14  C   LIG    1       19.365 -28.029  14.278  0.00  0.00    +0.039 C 
ATOM     15  C   LIG    1       20.838 -28.420  14.211  0.00  0.00    +0.125 C 
BRANCH  15  16
ATOM     16  O   LIG    1       21.520 -27.857  15.333  0.00  0.00    -0.391 OA
ATOM     17  H   LIG    1       21.803 -28.583  15.912  0.00  0.00    +0.210 HD
ENDBRANCH  15  16
ENDBRANCH  13  15
ENDBRANCH   1  13
BRANCH   4  18
ATOM     18  C   LIG    1       27.014 -29.748  12.143  0.00  0.00    +0.205 C 
BRANCH  18  19
ATOM     19  C   LIG    1       27.178 -28.624  11.117  0.00  0.00    +0.319 C 
ATOM     20  O   LIG    1       27.251 -28.800   9.915  0.00  0.00    -0.250 OA
BRANCH  19  21
ATOM     21  O   LIG    1       27.262 -27.392  11.681  0.00  0.00    -0.480 OA
ATOM     22  H   LIG    1       27.772 -27.424  12.514  0.00  0.00    +0.295 HD
ENDBRANCH  19  21
ENDBRANCH  18  19
ENDBRANCH   4  18
BRANCH   7  23
ATOM     23  C   LIG    1       24.013 -32.528   8.550  0.00  0.00    +0.205 C 
BRANCH  23  24
ATOM     24  C   LIG    1       24.076 -31.297   7.646  0.00  0.00    +0.319 C 
ATOM     25  O   LIG    1       24.566 -31.274   6.552  0.00  0.00    -0.250 OA
BRANCH  24  26
ATOM     26  O   LIG    1       23.589 -30.172   8.246  0.00  0.00    -0.480 OA
ATOM     27  H   LIG    1       22.626 -30.216   8.137  0.00  0.00    +0.295 HD
ENDBRANCH  24  26
ENDBRANCH  23  24
ENDBRANCH   7  23
BRANCH  10  28
ATOM     28  C   LIG    1       18.826 -31.701  10.263  0.00  0.00    +0.205 C 
BRANCH  28  29
ATOM     29  C   LIG    1       17.830 -31.827  11.408  0.00  0.00    +0.319 C 
ATOM     30  O   LIG    1       17.743 -32.805  12.140  0.00  0.00    -0.250 OA
BRANCH  29  31
ATOM     31  O   LIG    1       16.990 -30.764  11.504  0.00  0.00    -0.480 OA
ATOM     32  H   LIG    1       16.210 -31.039  12.037  0.00  0.00    +0.295 HD
ENDBRANCH  29  31
ENDBRANCH  28  29
ENDBRANCH  10  28
TORSDOF 12
ENDMDL
MODEL 9
REMARK VINA RESULT:      -4.0      2.753      3.855
REMARK  Name = *****
REMARK                            x       y       z     vdW  Elec       q    Type
REMARK                         _______ _______ _______ _____ _____    ______ ____
ROOT
ATOM      1  N   LIG    1       21.101 -27.642  14.323  0.00  0.00    -0.297 NA
ATOM      2  C   LIG    1       22.481 -27.403  14.792  0.00  0.00    +0.100 C 
ATOM      3  C   LIG    1       23.441 -27.518  13.590  0.00  0.00    +0.100 C 
ATOM      4  N   LIG    1       24.763 -28.087  13.974  0.00  0.00    -0.290 NA
ATOM      5  C   LIG    1       25.057 -29.243  13.075  0.00  0.00    +0.100 C 
ATOM      6  C   LIG    1       24.221 -30.533  13.365  0.00  0.00    +0.100 C 
ATOM      7  N   LIG    1       23.015 -30.824  12.508  0.00  0.00    -0.290 NA
ATOM      8  C   LIG    1       22.308 -31.975  13.153  0.00  0.00    +0.100 C 
ATOM      9  C   LIG    1       20.777 -32.119  12.913  0.00  0.00    +0.100 C 
ATOM     10  N   LIG    1       19.875 -31.184  13.648  0.00  0.00    -0.290 NA
ATOM     11  C   LIG    1       20.098 -29.744  13.342  0.00  0.00    +0.100 C 
ATOM     12  C   LIG    1       20.761 -29.067  14.544  0.00  0.00    +0.100 C 
ENDROOT
BRANCH   1  13
ATOM     13  C   LIG    1       20.110 -26.745  14.957  0.00  0.00    +0.115 C 
BRANCH  13  15
ATOM     14  C   LIG    1       17.679 -26.580  14.206  0.00  0.00    +0.039 C 
ATOM     15  C   LIG    1       19.098 -26.065  13.990  0.00  0.00    +0.125 C 
BRANCH  15  16
ATOM     16  O   LIG    1       19.466 -26.276  12.627  0.00  0.00    -0.391 OA
ATOM     17  H   LIG    1       19.543 -25.410  12.194  0.00  0.00    +0.210 HD
ENDBRANCH  15  16
ENDBRANCH  13  15
ENDBRANCH   1  13
BRANCH   4  18
ATOM     18  C   LIG    1       25.829 -27.062  13.785  0.00  0.00    +0.205 C 
BRANCH  18  19
ATOM     19  C   LIG    1       26.920 -27.514  12.810  0.00  0.00    +0.319 C 
ATOM     20  O   LIG    1       26.835 -27.428  11.600  0.00  0.00    -0.250 OA
BRANCH  19  21
ATOM     21  O   LIG    1       28.000 -28.054  13.430  0.00  0.00    -0.480 OA
ATOM     22  H   LIG    1       28.122 -27.667  14.320  0.00  0.00    +0.295 HD
ENDBRANCH  19  21
ENDBRANCH  18  19
ENDBRANCH   4  18
BRANCH   7  23
ATOM     23  C   LIG    1       23.480 -31.190  11.123  0.00  0.00    +0.205 C 
BRANCH  23  24
ATOM     24  C   LIG    1       22.608 -30.650   9.989  0.00  0.00    +0.319 C 
ATOM     25  O   LIG    1       21.410 -30.681   9.971  0.00  0.00    -0.250 OA
BRANCH  24  26
ATOM     26  O   LIG    1       23.338 -30.195   8.929  0.00  0.00    -0.480 OA
ATOM     27  H   LIG    1       23.378 -30.936   8.304  0.00  0.00    +0.295 HD
ENDBRANCH  24  26
ENDBRANCH  23  24
ENDBRANCH   7  23
BRANCH  10  28
ATOM     28  C   LIG    1       18.440 -31.490  13.364  0.00  0.00    +0.205 C 
BRANCH  28  29
ATOM     29  C   LIG    1       17.497 -30.480  14.004  0.00  0.00    +0.319 C 
ATOM     30  O   LIG    1       17.427 -30.272  15.209  0.00  0.00    -0.250 OA
BRANCH  29  31
ATOM     31  O   LIG    1       16.681 -29.869  13.107  0.00  0.00    -0.480 OA
ATOM     32  H   LIG    1       17.179 -29.125  12.699  0.00  0.00    +0.295 HD
ENDBRANCH  29  31
ENDBRANCH  28  29
ENDBRANCH  10  28
TORSDOF 12
ENDMDL
