MODEL 1
REMARK VINA RESULT:      -5.6      0.000      0.000
REMARK  Name = *****
REMARK                            x       y       z     vdW  Elec       q    Type
REMARK                         _______ _______ _______ _____ _____    ______ ____
ROOT
ATOM      1  C   LIG    1       23.076 -20.343   5.177  0.00  0.00    +0.084 C 
ATOM      2  C   LIG    1       21.770 -21.144   5.095  0.00  0.00    +0.027 C 
ENDROOT
BRANCH   1   3
ATOM      3  N   LIG    1       23.090 -19.155   4.238  0.00  0.00    -0.308 NA
ATOM      4  H   LIG    1       24.010 -18.715   4.273  0.00  0.00    +0.122 HD
BRANCH   3   6
ATOM      5  C   LIG    1       20.819 -18.208   3.675  0.00  0.00    +0.024 C 
ATOM      6  C   LIG    1       22.089 -18.085   4.531  0.00  0.00    +0.051 C 
BRANCH   6   7
ATOM      7  C   LIG    1       22.687 -16.652   4.368  0.00  0.00    +0.023 C 
BRANCH   7   8
ATOM      8  C   LIG    1       24.207 -16.561   4.059  0.00  0.00    +0.036 C 
BRANCH   8   9
ATOM      9  C   LIG    1       24.743 -15.193   3.697  0.00  0.00    -0.047 A 
ATOM     10  C   LIG    1       26.063 -15.036   3.262  0.00  0.00    +0.003 A 
ATOM     11  C   LIG    1       26.525 -13.793   2.810  0.00  0.00    +0.000 A 
ATOM     12  C   LIG    1       25.659 -12.694   2.787  0.00  0.00    +0.000 A 
ATOM     13  C   LIG    1       24.359 -12.825   3.242  0.00  0.00    +0.000 A 
ATOM     14  C   LIG    1       23.906 -14.067   3.686  0.00  0.00    +0.003 A 
ENDBRANCH   8   9
ENDBRANCH   7   8
ENDBRANCH   6   7
ENDBRANCH   3   6
ENDBRANCH   1   3
BRANCH   1  15
ATOM     15  C   LIG    1       24.298 -21.331   4.929  0.00  0.00    +0.161 C 
BRANCH  15  16
ATOM     16  C   LIG    1       25.651 -20.856   5.468  0.00  0.00    -0.018 A 
ATOM     17  C   LIG    1       26.214 -21.442   6.621  0.00  0.00    +0.010 A 
ATOM     18  C   LIG    1       27.493 -21.074   7.056  0.00  0.00    +0.046 A 
ATOM     19  C   LIG    1       28.211 -20.113   6.373  0.00  0.00    +0.117 A 
ATOM     20  C   LIG    1       27.657 -19.466   5.267  0.00  0.00    +0.046 A 
ATOM     21  C   LIG    1       26.383 -19.849   4.819  0.00  0.00    +0.010 A 
BRANCH  19  22
ATOM     22  O   LIG    1       29.475 -19.823   6.803  0.00  0.00    -0.507 OA
ATOM     23  H   LIG    1       29.951 -20.651   6.950  0.00  0.00    +0.292 HD
ENDBRANCH  19  22
ENDBRANCH  15  16
BRANCH  15  24
ATOM     24  O   LIG    1       24.494 -21.553   3.529  0.00  0.00    -0.386 OA
ATOM     25  H   LIG    1       25.264 -22.129   3.429  0.00  0.00    +0.210 HD
ENDBRANCH  15  24
ENDBRANCH   1  15
TORSDOF 9
ENDMDL
MODEL 2
REMARK VINA RESULT:      -5.5      1.937      4.434
REMARK  Name = *****
REMARK                            x       y       z     vdW  Elec       q    Type
REMARK                         _______ _______ _______ _____ _____    ______ ____
ROOT
ATOM      1  C   LIG    1       27.316 -20.404   5.577  0.00  0.00    +0.084 C 
ATOM      2  C   LIG    1       28.151 -20.639   6.842  0.00  0.00    +0.027 C 
ENDROOT
BRANCH   1   3
ATOM      3  N   LIG    1       27.075 -18.936   5.302  0.00  0.00    -0.308 NA
ATOM      4  H   LIG    1       26.283 -18.842   4.666  0.00  0.00    +0.122 HD
BRANCH   3   6
ATOM      5  C   LIG    1       29.475 -18.197   5.559  0.00  0.00    +0.024 C 
ATOM      6  C   LIG    1       28.215 -18.196   4.680  0.00  0.00    +0.051 C 
BRANCH   6   7
ATOM      7  C   LIG    1       27.840 -16.726   4.313  0.00  0.00    +0.023 C 
BRANCH   7   8
ATOM      8  C   LIG    1       26.674 -16.534   3.304  0.00  0.00    +0.036 C 
BRANCH   8   9
ATOM      9  C   LIG    1       25.992 -15.184   3.308  0.00  0.00    -0.047 A 
ATOM     10  C   LIG    1       26.481 -14.134   2.523  0.00  0.00    +0.003 A 
ATOM     11  C   LIG    1       25.784 -12.924   2.430  0.00  0.00    +0.000 A 
ATOM     12  C   LIG    1       24.579 -12.758   3.124  0.00  0.00    +0.000 A 
ATOM     13  C   LIG    1       24.097 -13.775   3.928  0.00  0.00    +0.000 A 
ATOM     14  C   LIG    1       24.796 -14.979   4.012  0.00  0.00    +0.003 A 
ENDBRANCH   8   9
ENDBRANCH   7   8
ENDBRANCH   6   7
ENDBRANCH   3   6
ENDBRANCH   1   3
BRANCH   1  15
ATOM     15  C   LIG    1       25.963 -21.233   5.697  0.00  0.00    +0.161 C 
BRANCH  15  16
ATOM     16  C   LIG    1       24.706 -20.522   5.186  0.00  0.00    -0.018 A 
ATOM     17  C   LIG    1       23.536 -20.472   5.974  0.00  0.00    +0.010 A 
ATOM     18  C   LIG    1       22.421 -19.742   5.548  0.00  0.00    +0.046 A 
ATOM     19  C   LIG    1       22.443 -19.078   4.338  0.00  0.00    +0.117 A 
ATOM     20  C   LIG    1       23.560 -19.161   3.504  0.00  0.00    +0.046 A 
ATOM     21  C   LIG    1       24.686 -19.878   3.940  0.00  0.00    +0.010 A 
BRANCH  19  22
ATOM     22  O   LIG    1       21.352 -18.335   3.986  0.00  0.00    -0.507 OA
ATOM     23  H   LIG    1       20.581 -18.670   4.464  0.00  0.00    +0.292 HD
ENDBRANCH  19  22
ENDBRANCH  15  16
BRANCH  15  24
ATOM     24  O   LIG    1       25.693 -21.567   7.062  0.00  0.00    -0.386 OA
ATOM     25  H   LIG    1       26.543 -21.651   7.516  0.00  0.00    +0.210 HD
ENDBRANCH  15  24
ENDBRANCH   1  15
TORSDOF 9
ENDMDL
MODEL 3
REMARK VINA RESULT:      -5.5      1.048      1.879
REMARK  Name = *****
REMARK                            x       y       z     vdW  Elec       q    Type
REMARK                         _______ _______ _______ _____ _____    ______ ____
ROOT
ATOM      1  C   LIG    1       23.411 -20.114   5.597  0.00  0.00    +0.084 C 
ATOM      2  C   LIG    1       23.061 -20.918   6.856  0.00  0.00    +0.027 C 
ENDROOT
BRANCH   1   3
ATOM      3  N   LIG    1       22.221 -19.914   4.683  0.00  0.00    -0.308 NA
ATOM      4  H   LIG    1       22.455 -20.260   3.753  0.00  0.00    +0.122 HD
BRANCH   3   6
ATOM      5  C   LIG    1       20.541 -18.379   3.592  0.00  0.00    +0.024 C 
ATOM      6  C   LIG    1       21.763 -18.502   4.515  0.00  0.00    +0.051 C 
BRANCH   6   7
ATOM      7  C   LIG    1       22.900 -17.565   3.998  0.00  0.00    +0.023 C 
BRANCH   7   8
ATOM      8  C   LIG    1       22.856 -16.086   4.474  0.00  0.00    +0.036 C 
BRANCH   8   9
ATOM      9  C   LIG    1       23.939 -15.173   3.945  0.00  0.00    -0.047 A 
ATOM     10  C   LIG    1       23.709 -13.801   3.800  0.00  0.00    +0.003 A 
ATOM     11  C   LIG    1       24.745 -12.936   3.427  0.00  0.00    +0.000 A 
ATOM     12  C   LIG    1       26.030 -13.444   3.202  0.00  0.00    +0.000 A 
ATOM     13  C   LIG    1       26.268 -14.802   3.312  0.00  0.00    +0.000 A 
ATOM     14  C   LIG    1       25.231 -15.656   3.687  0.00  0.00    +0.003 A 
ENDBRANCH   8   9
ENDBRANCH   7   8
ENDBRANCH   6   7
ENDBRANCH   3   6
ENDBRANCH   1   3
BRANCH   1  15
ATOM     15  C   LIG    1       24.633 -20.821   4.863  0.00  0.00    +0.161 C 
BRANCH  15  16
ATOM     16  C   LIG    1       25.972 -20.084   4.950  0.00  0.00    -0.018 A 
ATOM     17  C   LIG    1       26.261 -19.009   4.084  0.00  0.00    +0.010 A 
ATOM     18  C   LIG    1       27.445 -18.275   4.228  0.00  0.00    +0.046 A 
ATOM     19  C   LIG    1       28.358 -18.612   5.207  0.00  0.00    +0.117 A 
ATOM     20  C   LIG    1       28.134 -19.711   6.038  0.00  0.00    +0.046 A 
ATOM     21  C   LIG    1       26.938 -20.434   5.907  0.00  0.00    +0.010 A 
BRANCH  19  22
ATOM     22  O   LIG    1       29.474 -17.837   5.345  0.00  0.00    -0.507 OA
ATOM     23  H   LIG    1       30.254 -18.380   5.166  0.00  0.00    +0.292 HD
ENDBRANCH  19  22
ENDBRANCH  15  16
BRANCH  15  24
ATOM     24  O   LIG    1       24.363 -20.974   3.465  0.00  0.00    -0.386 OA
ATOM     25  H   LIG    1       25.091 -20.561   2.980  0.00  0.00    +0.210 HD
ENDBRANCH  15  24
ENDBRANCH   1  15
TORSDOF 9
ENDMDL
MODEL 4
REMARK VINA RESULT:      -5.3      2.612      6.662
REMARK  Name = *****
REMARK                            x       y       z     vdW  Elec       q    Type
REMARK                         _______ _______ _______ _____ _____    ______ ____
ROOT
ATOM      1  C   LIG    1       27.640 -18.118   4.795  0.00  0.00    +0.084 C 
ATOM      2  C   LIG    1       29.142 -17.823   4.892  0.00  0.00    +0.027 C 
ENDROOT
BRANCH   1   3
ATOM      3  N   LIG    1       27.332 -19.599   4.852  0.00  0.00    -0.308 NA
ATOM      4  H   LIG    1       26.412 -19.764   4.444  0.00  0.00    +0.122 HD
BRANCH   3   6
ATOM      5  C   LIG    1       28.674 -20.779   6.635  0.00  0.00    +0.024 C 
ATOM      6  C   LIG    1       27.312 -20.206   6.218  0.00  0.00    +0.051 C 
BRANCH   6   7
ATOM      7  C   LIG    1       26.218 -21.311   6.361  0.00  0.00    +0.023 C 
BRANCH   7   8
ATOM      8  C   LIG    1       24.845 -20.863   6.934  0.00  0.00    +0.036 C 
BRANCH   8   9
ATOM      9  C   LIG    1       23.755 -20.573   5.927  0.00  0.00    -0.047 A 
ATOM     10  C   LIG    1       22.704 -21.477   5.732  0.00  0.00    +0.003 A 
ATOM     11  C   LIG    1       21.631 -21.157   4.891  0.00  0.00    +0.000 A 
ATOM     12  C   LIG    1       21.601 -19.918   4.240  0.00  0.00    +0.000 A 
ATOM     13  C   LIG    1       22.645 -19.026   4.399  0.00  0.00    +0.000 A 
ATOM     14  C   LIG    1       23.708 -19.351   5.241  0.00  0.00    +0.003 A 
ENDBRANCH   8   9
ENDBRANCH   7   8
ENDBRANCH   6   7
ENDBRANCH   3   6
ENDBRANCH   1   3
BRANCH   1  15
ATOM     15  C   LIG    1       27.067 -17.426   3.482  0.00  0.00    +0.161 C 
BRANCH  15  16
ATOM     16  C   LIG    1       26.429 -16.049   3.685  0.00  0.00    -0.018 A 
ATOM     17  C   LIG    1       25.028 -15.891   3.651  0.00  0.00    +0.010 A 
ATOM     18  C   LIG    1       24.443 -14.650   3.932  0.00  0.00    +0.046 A 
ATOM     19  C   LIG    1       25.234 -13.557   4.223  0.00  0.00    +0.117 A 
ATOM     20  C   LIG    1       26.626 -13.663   4.201  0.00  0.00    +0.046 A 
ATOM     21  C   LIG    1       27.213 -14.912   3.939  0.00  0.00    +0.010 A 
BRANCH  19  22
ATOM     22  O   LIG    1       24.620 -12.380   4.542  0.00  0.00    -0.507 OA
ATOM     23  H   LIG    1       23.706 -12.566   4.800  0.00  0.00    +0.292 HD
ENDBRANCH  19  22
ENDBRANCH  15  16
BRANCH  15  24
ATOM     24  O   LIG    1       26.053 -18.239   2.882  0.00  0.00    -0.386 OA
ATOM     25  H   LIG    1       25.598 -18.712   3.593  0.00  0.00    +0.210 HD
ENDBRANCH  15  24
ENDBRANCH   1  15
TORSDOF 9
ENDMDL
MODEL 5
REMARK VINA RESULT:      -5.2      2.706      6.531
REMARK  Name = *****
REMARK                            x       y       z     vdW  Elec       q    Type
REMARK                         _______ _______ _______ _____ _____    ______ ____
ROOT
ATOM      1  C   LIG    1       23.202 -15.800   4.167  0.00  0.00    +0.084 C 
ATOM      2  C   LIG    1       22.524 -15.782   5.543  0.00  0.00    +0.027 C 
ENDROOT
BRANCH   1   3
ATOM      3  N   LIG    1       24.299 -16.839   4.071  0.00  0.00    -0.308 NA
ATOM      4  H   LIG    1       25.003 -16.519   3.406  0.00  0.00    +0.122 HD
BRANCH   3   6
ATOM      5  C   LIG    1       22.632 -18.709   4.377  0.00  0.00    +0.024 C 
ATOM      6  C   LIG    1       23.869 -18.198   3.624  0.00  0.00    +0.051 C 
BRANCH   6   7
ATOM      7  C   LIG    1       25.016 -19.251   3.735  0.00  0.00    +0.023 C 
BRANCH   7   8
ATOM      8  C   LIG    1       25.076 -20.081   5.048  0.00  0.00    +0.036 C 
BRANCH   8   9
ATOM      9  C   LIG    1       26.437 -20.233   5.690  0.00  0.00    -0.047 A 
ATOM     10  C   LIG    1       26.701 -21.296   6.561  0.00  0.00    +0.003 A 
ATOM     11  C   LIG    1       27.992 -21.510   7.060  0.00  0.00    +0.000 A 
ATOM     12  C   LIG    1       29.035 -20.657   6.682  0.00  0.00    +0.000 A 
ATOM     13  C   LIG    1       28.786 -19.585   5.845  0.00  0.00    +0.000 A 
ATOM     14  C   LIG    1       27.498 -19.382   5.349  0.00  0.00    +0.003 A 
ENDBRANCH   8   9
ENDBRANCH   7   8
ENDBRANCH   6   7
ENDBRANCH   3   6
ENDBRANCH   1   3
BRANCH   1  15
ATOM     15  C   LIG    1       23.719 -14.333   3.833  0.00  0.00    +0.161 C 
BRANCH  15  16
ATOM     16  C   LIG    1       25.241 -14.165   3.778  0.00  0.00    -0.018 A 
ATOM     17  C   LIG    1       25.938 -14.305   2.559  0.00  0.00    +0.010 A 
ATOM     18  C   LIG    1       27.314 -14.057   2.493  0.00  0.00    +0.046 A 
ATOM     19  C   LIG    1       28.012 -13.695   3.627  0.00  0.00    +0.117 A 
ATOM     20  C   LIG    1       27.366 -13.613   4.862  0.00  0.00    +0.046 A 
ATOM     21  C   LIG    1       25.982 -13.842   4.925  0.00  0.00    +0.010 A 
BRANCH  19  22
ATOM     22  O   LIG    1       29.343 -13.413   3.506  0.00  0.00    -0.507 OA
ATOM     23  H   LIG    1       29.566 -13.363   2.566  0.00  0.00    +0.292 HD
ENDBRANCH  19  22
ENDBRANCH  15  16
BRANCH  15  24
ATOM     24  O   LIG    1       23.261 -13.399   4.816  0.00  0.00    -0.386 OA
ATOM     25  H   LIG    1       22.787 -12.695   4.352  0.00  0.00    +0.210 HD
ENDBRANCH  15  24
ENDBRANCH   1  15
TORSDOF 9
ENDMDL
MODEL 6
REMARK VINA RESULT:      -4.4      1.327      2.098
REMARK  Name = *****
REMARK                            x       y       z     vdW  Elec       q    Type
REMARK                         _______ _______ _______ _____ _____    ______ ____
ROOT
ATOM      1  C   LIG    1       23.575 -18.755   3.771  0.00  0.00    +0.084 C 
ATOM      2  C   LIG    1       24.946 -18.070   3.689  0.00  0.00    +0.027 C 
ENDROOT
BRANCH   1   3
ATOM      3  N   LIG    1       22.482 -17.817   4.236  0.00  0.00    -0.308 NA
ATOM      4  H   LIG    1       21.881 -17.589   3.444  0.00  0.00    +0.122 HD
BRANCH   3   6
ATOM      5  C   LIG    1       21.971 -15.958   5.865  0.00  0.00    +0.024 C 
ATOM      6  C   LIG    1       22.943 -16.520   4.816  0.00  0.00    +0.051 C 
BRANCH   6   7
ATOM      7  C   LIG    1       23.205 -15.439   3.720  0.00  0.00    +0.023 C 
BRANCH   7   8
ATOM      8  C   LIG    1       23.776 -14.077   4.206  0.00  0.00    +0.036 C 
BRANCH   8   9
ATOM      9  C   LIG    1       25.259 -13.857   4.008  0.00  0.00    -0.047 A 
ATOM     10  C   LIG    1       26.084 -13.534   5.092  0.00  0.00    +0.003 A 
ATOM     11  C   LIG    1       27.473 -13.450   4.935  0.00  0.00    +0.000 A 
ATOM     12  C   LIG    1       28.049 -13.697   3.683  0.00  0.00    +0.000 A 
ATOM     13  C   LIG    1       27.246 -13.989   2.595  0.00  0.00    +0.000 A 
ATOM     14  C   LIG    1       25.864 -14.075   2.762  0.00  0.00    +0.003 A 
ENDBRANCH   8   9
ENDBRANCH   7   8
ENDBRANCH   6   7
ENDBRANCH   3   6
ENDBRANCH   1   3
BRANCH   1  15
ATOM     15  C   LIG    1       23.704 -20.047   4.690  0.00  0.00    +0.161 C 
BRANCH  15  16
ATOM     16  C   LIG    1       25.072 -20.259   5.345  0.00  0.00    -0.018 A 
ATOM     17  C   LIG    1       25.198 -21.031   6.519  0.00  0.00    +0.010 A 
ATOM     18  C   LIG    1       26.459 -21.303   7.062  0.00  0.00    +0.046 A 
ATOM     19  C   LIG    1       27.598 -20.797   6.467  0.00  0.00    +0.117 A 
ATOM     20  C   LIG    1       27.504 -19.975   5.342  0.00  0.00    +0.046 A 
ATOM     21  C   LIG    1       26.241 -19.718   4.786  0.00  0.00    +0.010 A 
BRANCH  19  22
ATOM     22  O   LIG    1       28.810 -21.131   7.000  0.00  0.00    -0.507 OA
ATOM     23  H   LIG    1       29.107 -20.410   7.572  0.00  0.00    +0.292 HD
ENDBRANCH  19  22
ENDBRANCH  15  16
BRANCH  15  24
ATOM     24  O   LIG    1       23.447 -21.235   3.934  0.00  0.00    -0.386 OA
ATOM     25  H   LIG    1       23.347 -20.976   3.008  0.00  0.00    +0.210 HD
ENDBRANCH  15  24
ENDBRANCH   1  15
TORSDOF 9
ENDMDL
MODEL 7
REMARK VINA RESULT:      -4.1      1.929      4.098
REMARK  Name = *****
REMARK                            x       y       z     vdW  Elec       q    Type
REMARK                         _______ _______ _______ _____ _____    ______ ____
ROOT
ATOM      1  C   LIG    1       27.820 -19.235   4.665  0.00  0.00    +0.084 C 
ATOM      2  C   LIG    1       28.507 -18.129   5.477  0.00  0.00    +0.027 C 
ENDROOT
BRANCH   1   3
ATOM      3  N   LIG    1       26.793 -18.694   3.694  0.00  0.00    -0.308 NA
ATOM      4  H   LIG    1       27.197 -18.675   2.758  0.00  0.00    +0.122 HD
BRANCH   3   6
ATOM      5  C   LIG    1       24.797 -17.149   3.695  0.00  0.00    +0.024 C 
ATOM      6  C   LIG    1       26.298 -17.312   3.976  0.00  0.00    +0.051 C 
BRANCH   6   7
ATOM      7  C   LIG    1       27.094 -16.223   3.191  0.00  0.00    +0.023 C 
BRANCH   7   8
ATOM      8  C   LIG    1       27.241 -14.836   3.876  0.00  0.00    +0.036 C 
BRANCH   8   9
ATOM      9  C   LIG    1       26.134 -13.837   3.621  0.00  0.00    -0.047 A 
ATOM     10  C   LIG    1       25.848 -13.404   2.321  0.00  0.00    +0.003 A 
ATOM     11  C   LIG    1       24.748 -12.575   2.068  0.00  0.00    +0.000 A 
ATOM     12  C   LIG    1       23.919 -12.176   3.123  0.00  0.00    +0.000 A 
ATOM     13  C   LIG    1       24.205 -12.570   4.417  0.00  0.00    +0.000 A 
ATOM     14  C   LIG    1       25.300 -13.399   4.660  0.00  0.00    +0.003 A 
ENDBRANCH   8   9
ENDBRANCH   7   8
ENDBRANCH   6   7
ENDBRANCH   3   6
ENDBRANCH   1   3
BRANCH   1  15
ATOM     15  C   LIG    1       27.205 -20.301   5.673  0.00  0.00    +0.161 C 
BRANCH  15  16
ATOM     16  C   LIG    1       25.698 -20.543   5.541  0.00  0.00    -0.018 A 
ATOM     17  C   LIG    1       25.111 -20.762   4.277  0.00  0.00    +0.010 A 
ATOM     18  C   LIG    1       23.751 -21.077   4.168  0.00  0.00    +0.046 A 
ATOM     19  C   LIG    1       22.961 -21.154   5.297  0.00  0.00    +0.117 A 
ATOM     20  C   LIG    1       23.495 -20.878   6.557  0.00  0.00    +0.046 A 
ATOM     21  C   LIG    1       24.863 -20.582   6.669  0.00  0.00    +0.010 A 
BRANCH  19  22
ATOM     22  O   LIG    1       21.652 -21.516   5.147  0.00  0.00    -0.507 OA
ATOM     23  H   LIG    1       21.542 -21.935   4.283  0.00  0.00    +0.292 HD
ENDBRANCH  19  22
ENDBRANCH  15  16
BRANCH  15  24
ATOM     24  O   LIG    1       27.416 -19.896   7.030  0.00  0.00    -0.386 OA
ATOM     25  H   LIG    1       27.824 -19.020   7.013  0.00  0.00    +0.210 HD
ENDBRANCH  15  24
ENDBRANCH   1  15
TORSDOF 9
ENDMDL
MODEL 8
REMARK VINA RESULT:      -3.1      2.078      5.175
REMARK  Name = *****
REMARK                            x       y       z     vdW  Elec       q    Type
REMARK                         _______ _______ _______ _____ _____    ______ ____
ROOT
ATOM      1  C   LIG    1       25.633 -19.792   4.851  0.00  0.00    +0.084 C 
ATOM      2  C   LIG    1       25.730 -20.106   3.352  0.00  0.00    +0.027 C 
ENDROOT
BRANCH   1   3
ATOM      3  N   LIG    1       26.901 -20.135   5.602  0.00  0.00    -0.308 NA
ATOM      4  H   LIG    1       26.782 -19.891   6.586  0.00  0.00    +0.122 HD
BRANCH   3   6
ATOM      5  C   LIG    1       29.367 -19.771   5.998  0.00  0.00    +0.024 C 
ATOM      6  C   LIG    1       28.140 -19.443   5.134  0.00  0.00    +0.051 C 
BRANCH   6   7
ATOM      7  C   LIG    1       27.962 -17.894   5.053  0.00  0.00    +0.023 C 
BRANCH   7   8
ATOM      8  C   LIG    1       27.461 -17.320   3.698  0.00  0.00    +0.036 C 
BRANCH   8   9
ATOM      9  C   LIG    1       26.834 -15.944   3.738  0.00  0.00    -0.047 A 
ATOM     10  C   LIG    1       25.459 -15.780   3.537  0.00  0.00    +0.003 A 
ATOM     11  C   LIG    1       24.857 -14.525   3.694  0.00  0.00    +0.000 A 
ATOM     12  C   LIG    1       25.635 -13.420   4.061  0.00  0.00    +0.000 A 
ATOM     13  C   LIG    1       27.000 -13.559   4.235  0.00  0.00    +0.000 A 
ATOM     14  C   LIG    1       27.590 -14.814   4.081  0.00  0.00    +0.003 A 
ENDBRANCH   8   9
ENDBRANCH   7   8
ENDBRANCH   6   7
ENDBRANCH   3   6
ENDBRANCH   1   3
BRANCH   1  15
ATOM     15  C   LIG    1       24.353 -20.528   5.445  0.00  0.00    +0.161 C 
BRANCH  15  16
ATOM     16  C   LIG    1       23.003 -20.035   4.918  0.00  0.00    -0.018 A 
ATOM     17  C   LIG    1       22.822 -18.685   4.549  0.00  0.00    +0.010 A 
ATOM     18  C   LIG    1       21.618 -18.257   3.977  0.00  0.00    +0.046 A 
ATOM     19  C   LIG    1       20.581 -19.148   3.789  0.00  0.00    +0.117 A 
ATOM     20  C   LIG    1       20.702 -20.476   4.204  0.00  0.00    +0.046 A 
ATOM     21  C   LIG    1       21.917 -20.910   4.759  0.00  0.00    +0.010 A 
BRANCH  19  22
ATOM     22  O   LIG    1       19.443 -18.699   3.181  0.00  0.00    -0.507 OA
ATOM     23  H   LIG    1       18.964 -18.131   3.799  0.00  0.00    +0.292 HD
ENDBRANCH  19  22
ENDBRANCH  15  16
BRANCH  15  24
ATOM     24  O   LIG    1       24.295 -20.373   6.867  0.00  0.00    -0.386 OA
ATOM     25  H   LIG    1       23.527 -19.822   7.070  0.00  0.00    +0.210 HD
ENDBRANCH  15  24
ENDBRANCH   1  15
TORSDOF 9
ENDMDL
MODEL 9
REMARK VINA RESULT:      -3.1      2.400      5.705
REMARK  Name = *****
REMARK                            x       y       z     vdW  Elec       q    Type
REMARK                         _______ _______ _______ _____ _____    ______ ____
ROOT
ATOM      1  C   LIG    1       26.031 -13.819   4.342  0.00  0.00    +0.084 C 
ATOM      2  C   LIG    1       27.031 -13.239   5.351  0.00  0.00    +0.027 C 
ENDROOT
BRANCH   1   3
ATOM      3  N   LIG    1       24.918 -14.599   5.008  0.00  0.00    -0.308 NA
ATOM      4  H   LIG    1       25.311 -15.436   5.440  0.00  0.00    +0.122 HD
BRANCH   3   6
ATOM      5  C   LIG    1       23.142 -13.899   3.356  0.00  0.00    +0.024 C 
ATOM      6  C   LIG    1       23.817 -15.057   4.106  0.00  0.00    +0.051 C 
BRANCH   6   7
ATOM      7  C   LIG    1       22.733 -15.886   4.865  0.00  0.00    +0.023 C 
BRANCH   7   8
ATOM      8  C   LIG    1       22.132 -17.104   4.111  0.00  0.00    +0.036 C 
BRANCH   8   9
ATOM      9  C   LIG    1       22.713 -18.460   4.446  0.00  0.00    -0.047 A 
ATOM     10  C   LIG    1       22.572 -19.000   5.729  0.00  0.00    +0.003 A 
ATOM     11  C   LIG    1       23.001 -20.303   6.009  0.00  0.00    +0.000 A 
ATOM     12  C   LIG    1       23.572 -21.082   4.996  0.00  0.00    +0.000 A 
ATOM     13  C   LIG    1       23.746 -20.553   3.729  0.00  0.00    +0.000 A 
ATOM     14  C   LIG    1       23.312 -19.255   3.458  0.00  0.00    +0.003 A 
ENDBRANCH   8   9
ENDBRANCH   7   8
ENDBRANCH   6   7
ENDBRANCH   3   6
ENDBRANCH   1   3
BRANCH   1  15
ATOM     15  C   LIG    1       26.828 -14.685   3.272  0.00  0.00    +0.161 C 
BRANCH  15  16
ATOM     16  C   LIG    1       27.093 -16.141   3.664  0.00  0.00    -0.018 A 
ATOM     17  C   LIG    1       28.205 -16.482   4.462  0.00  0.00    +0.010 A 
ATOM     18  C   LIG    1       28.392 -17.799   4.899  0.00  0.00    +0.046 A 
ATOM     19  C   LIG    1       27.500 -18.787   4.535  0.00  0.00    +0.117 A 
ATOM     20  C   LIG    1       26.425 -18.497   3.693  0.00  0.00    +0.046 A 
ATOM     21  C   LIG    1       26.226 -17.173   3.270  0.00  0.00    +0.010 A 
BRANCH  19  22
ATOM     22  O   LIG    1       27.693 -20.046   5.027  0.00  0.00    -0.507 OA
ATOM     23  H   LIG    1       28.629 -20.156   5.244  0.00  0.00    +0.292 HD
ENDBRANCH  19  22
ENDBRANCH  15  16
BRANCH  15  24
ATOM     24  O   LIG    1       28.114 -14.112   3.014  0.00  0.00    -0.386 OA
ATOM     25  H   LIG    1       28.655 -14.238   3.805  0.00  0.00    +0.210 HD
ENDBRANCH  15  24
ENDBRANCH   1  15
TORSDOF 9
ENDMDL
