MODEL 1
REMARK VINA RESULT:      -5.3      0.000      0.000
REMARK  Name = *****
REMARK                            x       y       z     vdW  Elec       q    Type
REMARK                         _______ _______ _______ _____ _____    ______ ____
ROOT
ATOM      1  C   LIG    1       30.737 -20.303   8.367  0.00  0.00    +0.421 C 
ATOM      2  N   LIG    1       29.533 -20.493   7.679  0.00  0.00    -0.231 N 
ATOM      3  C   LIG    1       28.929 -19.788   6.559  0.00  0.00    +0.170 C 
ATOM      4  S   LIG    1       29.487 -18.485   5.685  0.00  0.00    -0.012 S 
ATOM      5  N   LIG    1       27.686 -20.465   6.355  0.00  0.00    -0.329 N 
ATOM      6  C   LIG    1       26.683 -20.133   5.369  0.00  0.00    +0.151 C 
ATOM      7  C   LIG    1       27.558 -21.470   7.283  0.00  0.00    +0.106 C 
ATOM      8  C   LIG    1       28.643 -21.490   8.063  0.00  0.00    +0.117 C 
ATOM      9  O   LIG    1       31.073 -20.961   9.352  0.00  0.00    -0.223 OA
ENDROOT
BRANCH   1  10
ATOM     10  O   LIG    1       31.495 -19.299   7.850  0.00  0.00    -0.448 OA
BRANCH  10  12
ATOM     11  C   LIG    1       30.610 -17.496   9.188  0.00  0.00    +0.048 C 
ATOM     12  C   LIG    1       31.857 -18.239   8.742  0.00  0.00    +0.231 C 
ENDBRANCH  10  12
ENDBRANCH   1  10
TORSDOF 2
ENDMDL
MODEL 2
REMARK VINA RESULT:      -5.1      3.334      4.225
REMARK  Name = *****
REMARK                            x       y       z     vdW  Elec       q    Type
REMARK                         _______ _______ _______ _____ _____    ______ ____
ROOT
ATOM      1  C   LIG    1       26.843 -20.497   7.080  0.00  0.00    +0.421 C 
ATOM      2  N   LIG    1       25.493 -20.685   6.756  0.00  0.00    -0.231 N 
ATOM      3  C   LIG    1       24.747 -20.465   5.526  0.00  0.00    +0.170 C 
ATOM      4  S   LIG    1       25.262 -19.912   4.043  0.00  0.00    -0.012 S 
ATOM      5  N   LIG    1       23.407 -20.827   5.867  0.00  0.00    -0.329 N 
ATOM      6  C   LIG    1       22.254 -20.762   4.997  0.00  0.00    +0.151 C 
ATOM      7  C   LIG    1       23.360 -21.209   7.187  0.00  0.00    +0.106 C 
ATOM      8  C   LIG    1       24.586 -21.128   7.712  0.00  0.00    +0.117 C 
ATOM      9  O   LIG    1       27.306 -20.674   8.206  0.00  0.00    -0.223 OA
ENDROOT
BRANCH   1  10
ATOM     10  O   LIG    1       27.591 -20.079   6.025  0.00  0.00    -0.448 OA
BRANCH  10  12
ATOM     11  C   LIG    1       29.529 -18.642   5.980  0.00  0.00    +0.048 C 
ATOM     12  C   LIG    1       29.011 -20.049   6.213  0.00  0.00    +0.231 C 
ENDBRANCH  10  12
ENDBRANCH   1  10
TORSDOF 2
ENDMDL
MODEL 3
REMARK VINA RESULT:      -5.1      4.787      6.829
REMARK  Name = *****
REMARK                            x       y       z     vdW  Elec       q    Type
REMARK                         _______ _______ _______ _____ _____    ______ ____
ROOT
ATOM      1  C   LIG    1       23.383 -21.461   5.922  0.00  0.00    +0.421 C 
ATOM      2  N   LIG    1       24.701 -20.995   5.836  0.00  0.00    -0.231 N 
ATOM      3  C   LIG    1       25.842 -21.131   6.729  0.00  0.00    +0.170 C 
ATOM      4  S   LIG    1       25.972 -21.916   8.191  0.00  0.00    -0.012 S 
ATOM      5  N   LIG    1       26.883 -20.404   6.072  0.00  0.00    -0.329 N 
ATOM      6  C   LIG    1       28.228 -20.203   6.561  0.00  0.00    +0.151 C 
ATOM      7  C   LIG    1       26.396 -19.870   4.902  0.00  0.00    +0.106 C 
ATOM      8  C   LIG    1       25.114 -20.217   4.760  0.00  0.00    +0.117 C 
ATOM      9  O   LIG    1       22.511 -21.198   5.094  0.00  0.00    -0.223 OA
ENDROOT
BRANCH   1  10
ATOM     10  O   LIG    1       23.156 -22.219   7.026  0.00  0.00    -0.448 OA
BRANCH  10  12
ATOM     11  C   LIG    1       23.755 -24.503   6.527  0.00  0.00    +0.048 C 
ATOM     12  C   LIG    1       22.624 -23.531   6.810  0.00  0.00    +0.231 C 
ENDBRANCH  10  12
ENDBRANCH   1  10
TORSDOF 2
ENDMDL
MODEL 4
REMARK VINA RESULT:      -4.9      4.237      6.024
REMARK  Name = *****
REMARK                            x       y       z     vdW  Elec       q    Type
REMARK                         _______ _______ _______ _____ _____    ______ ____
ROOT
ATOM      1  C   LIG    1       23.840 -20.985   6.948  0.00  0.00    +0.421 C 
ATOM      2  N   LIG    1       25.221 -20.781   7.062  0.00  0.00    -0.231 N 
ATOM      3  C   LIG    1       26.228 -20.372   6.094  0.00  0.00    +0.170 C 
ATOM      4  S   LIG    1       26.073 -19.988   4.482  0.00  0.00    -0.012 S 
ATOM      5  N   LIG    1       27.447 -20.379   6.842  0.00  0.00    -0.329 N 
ATOM      6  C   LIG    1       28.765 -20.073   6.333  0.00  0.00    +0.151 C 
ATOM      7  C   LIG    1       27.187 -20.775   8.132  0.00  0.00    +0.106 C 
ATOM      8  C   LIG    1       25.878 -21.010   8.265  0.00  0.00    +0.117 C 
ATOM      9  O   LIG    1       23.133 -21.400   7.867  0.00  0.00    -0.223 OA
ENDROOT
BRANCH   1  10
ATOM     10  O   LIG    1       23.358 -20.697   5.710  0.00  0.00    -0.448 OA
BRANCH  10  12
ATOM     11  C   LIG    1       22.615 -18.933   4.240  0.00  0.00    +0.048 C 
ATOM     12  C   LIG    1       22.471 -19.577   5.608  0.00  0.00    +0.231 C 
ENDBRANCH  10  12
ENDBRANCH   1  10
TORSDOF 2
ENDMDL
MODEL 5
REMARK VINA RESULT:      -4.7      2.898      3.851
REMARK  Name = *****
REMARK                            x       y       z     vdW  Elec       q    Type
REMARK                         _______ _______ _______ _____ _____    ______ ____
ROOT
ATOM      1  C   LIG    1       27.869 -19.943   6.235  0.00  0.00    +0.421 C 
ATOM      2  N   LIG    1       26.545 -20.355   6.040  0.00  0.00    -0.231 N 
ATOM      3  C   LIG    1       25.619 -21.090   6.888  0.00  0.00    +0.170 C 
ATOM      4  S   LIG    1       25.822 -21.697   8.424  0.00  0.00    -0.012 S 
ATOM      5  N   LIG    1       24.437 -21.204   6.090  0.00  0.00    -0.329 N 
ATOM      6  C   LIG    1       23.215 -21.881   6.462  0.00  0.00    +0.151 C 
ATOM      7  C   LIG    1       24.652 -20.606   4.871  0.00  0.00    +0.106 C 
ATOM      8  C   LIG    1       25.890 -20.104   4.839  0.00  0.00    +0.117 C 
ATOM      9  O   LIG    1       28.541 -19.375   5.374  0.00  0.00    -0.223 OA
ENDROOT
BRANCH   1  10
ATOM     10  O   LIG    1       28.348 -20.252   7.469  0.00  0.00    -0.448 OA
BRANCH  10  12
ATOM     11  C   LIG    1       29.958 -18.761   8.472  0.00  0.00    +0.048 C 
ATOM     12  C   LIG    1       29.748 -20.044   7.688  0.00  0.00    +0.231 C 
ENDBRANCH  10  12
ENDBRANCH   1  10
TORSDOF 2
ENDMDL
MODEL 6
REMARK VINA RESULT:      -4.7      3.822      5.876
REMARK  Name = *****
REMARK                            x       y       z     vdW  Elec       q    Type
REMARK                         _______ _______ _______ _____ _____    ______ ____
ROOT
ATOM      1  C   LIG    1       25.599 -20.290   5.093  0.00  0.00    +0.421 C 
ATOM      2  N   LIG    1       26.816 -20.399   5.777  0.00  0.00    -0.231 N 
ATOM      3  C   LIG    1       27.218 -21.193   6.929  0.00  0.00    +0.170 C 
ATOM      4  S   LIG    1       26.346 -22.279   7.840  0.00  0.00    -0.012 S 
ATOM      5  N   LIG    1       28.583 -20.825   7.141  0.00  0.00    -0.329 N 
ATOM      6  C   LIG    1       29.448 -21.312   8.193  0.00  0.00    +0.151 C 
ATOM      7  C   LIG    1       28.951 -19.883   6.210  0.00  0.00    +0.106 C 
ATOM      8  C   LIG    1       27.914 -19.632   5.406  0.00  0.00    +0.117 C 
ATOM      9  O   LIG    1       25.407 -19.509   4.161  0.00  0.00    -0.223 OA
ENDROOT
BRANCH   1  10
ATOM     10  O   LIG    1       24.639 -21.123   5.575  0.00  0.00    -0.448 OA
BRANCH  10  12
ATOM     11  C   LIG    1       22.300 -20.808   5.073  0.00  0.00    +0.048 C 
ATOM     12  C   LIG    1       23.430 -20.513   6.042  0.00  0.00    +0.231 C 
ENDBRANCH  10  12
ENDBRANCH   1  10
TORSDOF 2
ENDMDL
MODEL 7
REMARK VINA RESULT:      -4.7      2.611      4.663
REMARK  Name = *****
REMARK                            x       y       z     vdW  Elec       q    Type
REMARK                         _______ _______ _______ _____ _____    ______ ____
ROOT
ATOM      1  C   LIG    1       26.797 -20.874   6.299  0.00  0.00    +0.421 C 
ATOM      2  N   LIG    1       28.073 -20.628   6.820  0.00  0.00    -0.231 N 
ATOM      3  C   LIG    1       29.082 -19.630   6.495  0.00  0.00    +0.170 C 
ATOM      4  S   LIG    1       29.055 -18.404   5.370  0.00  0.00    -0.012 S 
ATOM      5  N   LIG    1       30.167 -19.939   7.373  0.00  0.00    -0.329 N 
ATOM      6  C   LIG    1       31.440 -19.257   7.434  0.00  0.00    +0.151 C 
ATOM      7  C   LIG    1       29.837 -21.033   8.138  0.00  0.00    +0.106 C 
ATOM      8  C   LIG    1       28.606 -21.439   7.815  0.00  0.00    +0.117 C 
ATOM      9  O   LIG    1       26.086 -21.816   6.650  0.00  0.00    -0.223 OA
ENDROOT
BRANCH   1  10
ATOM     10  O   LIG    1       26.426 -19.976   5.348  0.00  0.00    -0.448 OA
BRANCH  10  12
ATOM     11  C   LIG    1       24.971 -19.177   3.598  0.00  0.00    +0.048 C 
ATOM     12  C   LIG    1       25.295 -20.322   4.540  0.00  0.00    +0.231 C 
ENDBRANCH  10  12
ENDBRANCH   1  10
TORSDOF 2
ENDMDL
MODEL 8
REMARK VINA RESULT:      -4.6      3.518      5.205
REMARK  Name = *****
REMARK                            x       y       z     vdW  Elec       q    Type
REMARK                         _______ _______ _______ _____ _____    ______ ____
ROOT
ATOM      1  C   LIG    1       25.793 -22.516   6.841  0.00  0.00    +0.421 C 
ATOM      2  N   LIG    1       26.800 -21.552   6.710  0.00  0.00    -0.231 N 
ATOM      3  C   LIG    1       26.965 -20.435   5.792  0.00  0.00    +0.170 C 
ATOM      4  S   LIG    1       25.981 -19.905   4.559  0.00  0.00    -0.012 S 
ATOM      5  N   LIG    1       28.218 -19.859   6.172  0.00  0.00    -0.329 N 
ATOM      6  C   LIG    1       28.865 -18.728   5.547  0.00  0.00    +0.151 C 
ATOM      7  C   LIG    1       28.754 -20.582   7.211  0.00  0.00    +0.106 C 
ATOM      8  C   LIG    1       27.922 -21.577   7.531  0.00  0.00    +0.117 C 
ATOM      9  O   LIG    1       25.839 -23.447   7.645  0.00  0.00    -0.223 OA
ENDROOT
BRANCH   1  10
ATOM     10  O   LIG    1       24.762 -22.332   5.974  0.00  0.00    -0.448 OA
BRANCH  10  12
ATOM     11  C   LIG    1       23.343 -20.783   7.160  0.00  0.00    +0.048 C 
ATOM     12  C   LIG    1       23.460 -22.166   6.546  0.00  0.00    +0.231 C 
ENDBRANCH  10  12
ENDBRANCH   1  10
TORSDOF 2
ENDMDL
MODEL 9
REMARK VINA RESULT:      -4.5      2.321      3.228
REMARK  Name = *****
REMARK                            x       y       z     vdW  Elec       q    Type
REMARK                         _______ _______ _______ _____ _____    ______ ____
ROOT
ATOM      1  C   LIG    1       29.098 -19.986   6.891  0.00  0.00    +0.421 C 
ATOM      2  N   LIG    1       27.799 -20.189   6.410  0.00  0.00    -0.231 N 
ATOM      3  C   LIG    1       26.676 -20.955   6.931  0.00  0.00    +0.170 C 
ATOM      4  S   LIG    1       26.550 -21.864   8.320  0.00  0.00    -0.012 S 
ATOM      5  N   LIG    1       25.650 -20.771   5.953  0.00  0.00    -0.329 N 
ATOM      6  C   LIG    1       24.327 -21.352   5.980  0.00  0.00    +0.151 C 
ATOM      7  C   LIG    1       26.128 -19.982   4.934  0.00  0.00    +0.106 C 
ATOM      8  C   LIG    1       27.391 -19.637   5.201  0.00  0.00    +0.117 C 
ATOM      9  O   LIG    1       29.959 -19.350   6.283  0.00  0.00    -0.223 OA
ENDROOT
BRANCH   1  10
ATOM     10  O   LIG    1       29.321 -20.580   8.093  0.00  0.00    -0.448 OA
BRANCH  10  12
ATOM     11  C   LIG    1       30.955 -21.975   9.190  0.00  0.00    +0.048 C 
ATOM     12  C   LIG    1       30.679 -20.629   8.546  0.00  0.00    +0.231 C 
ENDBRANCH  10  12
ENDBRANCH   1  10
TORSDOF 2
ENDMDL
