MODEL 1
REMARK VINA RESULT:      43.0      0.000      0.000
REMARK  Name = *****
REMARK                            x       y       z     vdW  Elec       q    Type
REMARK                         _______ _______ _______ _____ _____    ______ ____
ROOT
ATOM      1  C   LIG    1       23.890 -17.668   4.488  0.00  0.00    +0.265 C 
ATOM      2  C   LIG    1       25.055 -18.652   4.180  0.00  0.00    +0.265 C 
ATOM      3  C   LIG    1       25.958 -17.959   3.157  0.00  0.00    +0.265 C 
ATOM      4  C   LIG    1       26.604 -16.631   3.578  0.00  0.00    +0.265 C 
ATOM      5  C   LIG    1       25.699 -15.696   4.425  0.00  0.00    +0.265 C 
ATOM      6  C   LIG    1       24.342 -16.247   4.934  0.00  0.00    +0.265 C 
ENDROOT
BRANCH   2   7
ATOM      7  O   LIG    1       25.756 -19.294   5.264  0.00  0.00    -0.450 OA
BRANCH   7   8
ATOM      8  C   LIG    1       25.464 -20.560   5.612  0.00  0.00    +0.341 C 
ATOM      9  O   LIG    1       26.202 -21.327   6.224  0.00  0.00    -0.245 OA
BRANCH   8  10
ATOM     10  C   LIG    1       24.117 -20.961   5.327  0.00  0.00    +0.077 A 
ATOM     11  C   LIG    1       23.277 -21.125   6.427  0.00  0.00    +0.125 A 
ATOM     12  N   LIG    1       21.976 -21.442   6.333  0.00  0.00    -0.262 NA
ATOM     13  C   LIG    1       21.492 -21.565   5.080  0.00  0.00    +0.111 A 
ATOM     14  C   LIG    1       22.246 -21.384   3.924  0.00  0.00    +0.020 A 
ATOM     15  C   LIG    1       23.592 -21.071   4.045  0.00  0.00    +0.018 A 
ENDBRANCH   8  10
ENDBRANCH   7   8
ENDBRANCH   2   7
BRANCH   3  16
ATOM     16  O   LIG    1       26.809 -18.810   2.358  0.00  0.00    -0.450 OA
BRANCH  16  17
ATOM     17  C   LIG    1       27.379 -19.918   2.860  0.00  0.00    +0.341 C 
ATOM     18  O   LIG    1       27.430 -21.016   2.327  0.00  0.00    -0.245 OA
BRANCH  17  19
ATOM     19  C   LIG    1       28.060 -19.524   4.112  0.00  0.00    +0.077 A 
ATOM     20  C   LIG    1       28.155 -20.434   5.155  0.00  0.00    +0.125 A 
ATOM     21  N   LIG    1       28.855 -20.199   6.296  0.00  0.00    -0.262 NA
ATOM     22  C   LIG    1       29.469 -18.998   6.401  0.00  0.00    +0.111 A 
ATOM     23  C   LIG    1       29.418 -18.019   5.422  0.00  0.00    +0.020 A 
ATOM     24  C   LIG    1       28.706 -18.290   4.258  0.00  0.00    +0.018 A 
ENDBRANCH  17  19
ENDBRANCH  16  17
ENDBRANCH   3  16
BRANCH   4  25
ATOM     25  O   LIG    1       27.006 -15.841   2.377  0.00  0.00    -0.450 OA
BRANCH  25  26
ATOM     26  C   LIG    1       27.277 -14.498   2.475  0.00  0.00    +0.341 C 
ATOM     27  O   LIG    1       28.321 -13.958   2.469  0.00  0.00    -0.245 OA
BRANCH  26  28
ATOM     28  C   LIG    1       26.078 -13.696   2.321  0.00  0.00    +0.077 A 
ATOM     29  C   LIG    1       24.845 -14.243   1.974  0.00  0.00    +0.125 A 
ATOM     30  N   LIG    1       23.734 -13.497   1.817  0.00  0.00    -0.262 NA
ATOM     31  C   LIG    1       23.850 -12.161   2.005  0.00  0.00    +0.111 A 
ATOM     32  C   LIG    1       25.030 -11.525   2.367  0.00  0.00    +0.020 A 
ATOM     33  C   LIG    1       26.154 -12.310   2.533  0.00  0.00    +0.018 A 
ENDBRANCH  26  28
ENDBRANCH  25  26
ENDBRANCH   4  25
BRANCH   5  34
ATOM     34  O   LIG    1       26.304 -15.048   5.602  0.00  0.00    -0.450 OA
BRANCH  34  35
ATOM     35  C   LIG    1       27.616 -15.061   5.923  0.00  0.00    +0.341 C 
ATOM     36  O   LIG    1       28.183 -15.904   6.586  0.00  0.00    -0.245 OA
BRANCH  35  37
ATOM     37  C   LIG    1       28.272 -13.849   5.362  0.00  0.00    +0.077 A 
ATOM     38  C   LIG    1       28.893 -13.861   4.116  0.00  0.00    +0.125 A 
ATOM     39  N   LIG    1       29.474 -12.784   3.535  0.00  0.00    -0.262 NA
ATOM     40  C   LIG    1       29.452 -11.636   4.235  0.00  0.00    +0.111 A 
ATOM     41  C   LIG    1       28.853 -11.511   5.479  0.00  0.00    +0.020 A 
ATOM     42  C   LIG    1       28.243 -12.633   6.047  0.00  0.00    +0.018 A 
ENDBRANCH  35  37
ENDBRANCH  34  35
ENDBRANCH   5  34
BRANCH   1  43
ATOM     43  O   LIG    1       22.990 -18.184   5.508  0.00  0.00    -0.450 OA
BRANCH  43  45
ATOM     44  O   LIG    1       21.150 -17.322   6.551  0.00  0.00    -0.245 OA
ATOM     45  C   LIG    1       21.725 -17.703   5.551  0.00  0.00    +0.341 C 
BRANCH  45  46
ATOM     46  C   LIG    1       21.110 -17.816   4.205  0.00  0.00    +0.077 A 
ATOM     47  C   LIG    1       20.032 -17.040   3.835  0.00  0.00    +0.125 A 
ATOM     48  N   LIG    1       19.362 -17.179   2.656  0.00  0.00    -0.262 NA
ATOM     49  C   LIG    1       19.781 -18.151   1.817  0.00  0.00    +0.111 A 
ATOM     50  C   LIG    1       20.849 -18.970   2.094  0.00  0.00    +0.020 A 
ATOM     51  C   LIG    1       21.522 -18.781   3.293  0.00  0.00    +0.018 A 
ENDBRANCH  45  46
ENDBRANCH  43  45
ENDBRANCH   1  43
BRANCH   6  52
ATOM     52  O   LIG    1       23.314 -15.264   4.579  0.00  0.00    -0.450 OA
BRANCH  52  53
ATOM     53  C   LIG    1       23.577 -13.976   4.952  0.00  0.00    +0.341 C 
ATOM     54  O   LIG    1       24.589 -13.334   4.748  0.00  0.00    -0.245 OA
BRANCH  53  55
ATOM     55  C   LIG    1       22.493 -13.437   5.764  0.00  0.00    +0.077 A 
ATOM     56  C   LIG    1       22.377 -12.060   5.893  0.00  0.00    +0.125 A 
ATOM     57  N   LIG    1       21.376 -11.450   6.559  0.00  0.00    -0.262 NA
ATOM     58  C   LIG    1       20.418 -12.259   7.056  0.00  0.00    +0.111 A 
ATOM     59  C   LIG    1       20.440 -13.645   6.949  0.00  0.00    +0.020 A 
ATOM     60  C   LIG    1       21.513 -14.250   6.308  0.00  0.00    +0.018 A 
ENDBRANCH  53  55
ENDBRANCH  52  53
ENDBRANCH   6  52
TORSDOF 18
ENDMDL
