MODEL 1
REMARK VINA RESULT:      -3.8      0.000      0.000
REMARK  Name = *****
REMARK                            x       y       z     vdW  Elec       q    Type
REMARK                         _______ _______ _______ _____ _____    ______ ____
ROOT
ATOM      1  O   LIG    1       30.725 -22.178  10.343  0.00  0.00    -0.137 OA
ATOM      2  S   LIG    1       31.189 -21.687   9.013  0.00  0.00    +0.137 S 
ENDROOT
BRANCH   2   3
ATOM      3  O   LIG    1       32.238 -22.776   8.500  0.00  0.00    -0.246 OA
ATOM      4  H   LIG    1       31.966 -23.012   7.584  0.00  0.00    +0.245 HD
ENDBRANCH   2   3
BRANCH   2   5
ATOM      5  O   LIG    1       32.244 -20.531   9.331  0.00  0.00    -0.246 OA
ATOM      6  H   LIG    1       31.857 -19.995  10.059  0.00  0.00    +0.245 HD
ENDBRANCH   2   5
TORSDOF 2
ENDMDL
MODEL 2
REMARK VINA RESULT:      -3.7      0.215      2.096
REMARK  Name = *****
REMARK                            x       y       z     vdW  Elec       q    Type
REMARK                         _______ _______ _______ _____ _____    ______ ____
ROOT
ATOM      1  O   LIG    1       32.020 -20.295   9.259  0.00  0.00    -0.137 OA
ATOM      2  S   LIG    1       31.180 -21.489   8.948  0.00  0.00    +0.137 S 
ENDROOT
BRANCH   2   3
ATOM      3  O   LIG    1       30.781 -22.108  10.365  0.00  0.00    -0.246 OA
ATOM      4  H   LIG    1       31.476 -21.819  10.999  0.00  0.00    +0.245 HD
ENDBRANCH   2   3
BRANCH   2   5
ATOM      5  O   LIG    1       32.208 -22.632   8.515  0.00  0.00    -0.246 OA
ATOM      6  H   LIG    1       33.089 -22.200   8.446  0.00  0.00    +0.245 HD
ENDBRANCH   2   5
TORSDOF 2
ENDMDL
MODEL 3
REMARK VINA RESULT:      -3.5      1.735      3.080
REMARK  Name = *****
REMARK                            x       y       z     vdW  Elec       q    Type
REMARK                         _______ _______ _______ _____ _____    ______ ____
ROOT
ATOM      1  O   LIG    1       31.805 -19.652   7.329  0.00  0.00    -0.137 OA
ATOM      2  S   LIG    1       31.330 -19.873   8.726  0.00  0.00    +0.137 S 
ENDROOT
BRANCH   2   3
ATOM      3  O   LIG    1       32.030 -18.734   9.599  0.00  0.00    -0.246 OA
ATOM      4  H   LIG    1       32.862 -18.499   9.131  0.00  0.00    +0.245 HD
ENDBRANCH   2   3
BRANCH   2   5
ATOM      5  O   LIG    1       32.188 -21.101   9.279  0.00  0.00    -0.246 OA
ATOM      6  H   LIG    1       33.127 -20.900   9.068  0.00  0.00    +0.245 HD
ENDBRANCH   2   5
TORSDOF 2
ENDMDL
MODEL 4
REMARK VINA RESULT:      -3.4      1.652      2.430
REMARK  Name = *****
REMARK                            x       y       z     vdW  Elec       q    Type
REMARK                         _______ _______ _______ _____ _____    ______ ____
ROOT
ATOM      1  O   LIG    1       31.962 -18.838   9.516  0.00  0.00    -0.137 OA
ATOM      2  S   LIG    1       31.298 -20.017   8.886  0.00  0.00    +0.137 S 
ENDROOT
BRANCH   2   3
ATOM      3  O   LIG    1       32.196 -21.275   9.285  0.00  0.00    -0.246 OA
ATOM      4  H   LIG    1       32.450 -21.146  10.227  0.00  0.00    +0.245 HD
ENDBRANCH   2   3
BRANCH   2   5
ATOM      5  O   LIG    1       31.707 -19.963   7.343  0.00  0.00    -0.246 OA
ATOM      6  H   LIG    1       31.740 -19.011   7.099  0.00  0.00    +0.245 HD
ENDBRANCH   2   5
TORSDOF 2
ENDMDL
MODEL 5
REMARK VINA RESULT:      -3.4      2.608      3.104
REMARK  Name = *****
REMARK                            x       y       z     vdW  Elec       q    Type
REMARK                         _______ _______ _______ _____ _____    ______ ____
ROOT
ATOM      1  O   LIG    1       32.119 -19.745   9.373  0.00  0.00    -0.137 OA
ATOM      2  S   LIG    1       31.354 -18.978   8.346  0.00  0.00    +0.137 S 
ENDROOT
BRANCH   2   3
ATOM      3  O   LIG    1       31.650 -19.712   6.959  0.00  0.00    -0.246 OA
ATOM      4  H   LIG    1       32.173 -20.516   7.177  0.00  0.00    +0.245 HD
ENDBRANCH   2   3
BRANCH   2   5
ATOM      5  O   LIG    1       32.218 -17.665   8.064  0.00  0.00    -0.246 OA
ATOM      6  H   LIG    1       32.245 -17.557   7.087  0.00  0.00    +0.245 HD
ENDBRANCH   2   5
TORSDOF 2
ENDMDL
MODEL 6
REMARK VINA RESULT:      -3.4      1.496      1.865
REMARK  Name = *****
REMARK                            x       y       z     vdW  Elec       q    Type
REMARK                         _______ _______ _______ _____ _____    ______ ____
ROOT
ATOM      1  O   LIG    1       32.036 -21.742   9.275  0.00  0.00    -0.137 OA
ATOM      2  S   LIG    1       31.249 -20.529   8.904  0.00  0.00    +0.137 S 
ENDROOT
BRANCH   2   3
ATOM      3  O   LIG    1       31.521 -20.307   7.346  0.00  0.00    -0.246 OA
ATOM      4  H   LIG    1       31.768 -21.186   6.980  0.00  0.00    +0.245 HD
ENDBRANCH   2   3
BRANCH   2   5
ATOM      5  O   LIG    1       32.105 -19.289   9.433  0.00  0.00    -0.246 OA
ATOM      6  H   LIG    1       32.112 -19.355  10.414  0.00  0.00    +0.245 HD
ENDBRANCH   2   5
TORSDOF 2
ENDMDL
MODEL 7
REMARK VINA RESULT:      -3.3      2.775      3.750
REMARK  Name = *****
REMARK                            x       y       z     vdW  Elec       q    Type
REMARK                         _______ _______ _______ _____ _____    ______ ____
ROOT
ATOM      1  O   LIG    1       32.086 -19.797   9.147  0.00  0.00    -0.137 OA
ATOM      2  S   LIG    1       31.552 -18.410   9.283  0.00  0.00    +0.137 S 
ENDROOT
BRANCH   2   3
ATOM      3  O   LIG    1       32.273 -17.563   8.136  0.00  0.00    -0.246 OA
ATOM      4  H   LIG    1       31.765 -16.726   8.050  0.00  0.00    +0.245 HD
ENDBRANCH   2   3
BRANCH   2   5
ATOM      5  O   LIG    1       32.334 -17.772  10.521  0.00  0.00    -0.246 OA
ATOM      6  H   LIG    1       31.749 -17.884  11.304  0.00  0.00    +0.245 HD
ENDBRANCH   2   5
TORSDOF 2
ENDMDL
MODEL 8
REMARK VINA RESULT:      -3.3      1.821      2.124
REMARK  Name = *****
REMARK                            x       y       z     vdW  Elec       q    Type
REMARK                         _______ _______ _______ _____ _____    ______ ____
ROOT
ATOM      1  O   LIG    1       29.887 -20.969   8.599  0.00  0.00    -0.137 OA
ATOM      2  S   LIG    1       31.064 -20.056   8.702  0.00  0.00    +0.137 S 
ENDROOT
BRANCH   2   3
ATOM      3  O   LIG    1       31.656 -19.960   7.222  0.00  0.00    -0.246 OA
ATOM      4  H   LIG    1       31.777 -19.002   7.034  0.00  0.00    +0.245 HD
ENDBRANCH   2   3
BRANCH   2   5
ATOM      5  O   LIG    1       32.236 -20.942   9.327  0.00  0.00    -0.246 OA
ATOM      6  H   LIG    1       32.683 -20.376   9.996  0.00  0.00    +0.245 HD
ENDBRANCH   2   5
TORSDOF 2
ENDMDL
MODEL 9
REMARK VINA RESULT:      -3.2      4.135      4.510
REMARK  Name = *****
REMARK                            x       y       z     vdW  Elec       q    Type
REMARK                         _______ _______ _______ _____ _____    ______ ____
ROOT
ATOM      1  O   LIG    1       32.308 -18.035  10.268  0.00  0.00    -0.137 OA
ATOM      2  S   LIG    1       31.673 -17.273   9.153  0.00  0.00    +0.137 S 
ENDROOT
BRANCH   2   3
ATOM      3  O   LIG    1       31.909 -18.157   7.845  0.00  0.00    -0.246 OA
ATOM      4  H   LIG    1       31.549 -17.637   7.091  0.00  0.00    +0.245 HD
ENDBRANCH   2   3
BRANCH   2   5
ATOM      5  O   LIG    1       32.704 -16.108   8.793  0.00  0.00    -0.246 OA
ATOM      6  H   LIG    1       32.996 -16.273   7.869  0.00  0.00    +0.245 HD
ENDBRANCH   2   5
TORSDOF 2
ENDMDL
