MODEL 1
REMARK VINA RESULT:       3.5      0.000      0.000
REMARK  Name = *****
REMARK                            x       y       z     vdW  Elec       q    Type
REMARK                         _______ _______ _______ _____ _____    ______ ____
ROOT
ATOM      1  C   LIG    1       25.222 -17.318   3.712  0.00  0.00    +0.325 C 
ATOM      2  C   LIG    1       26.215 -18.285   4.278  0.00  0.00    +0.109 A 
ATOM      3  C   LIG    1       26.166 -19.646   3.972  0.00  0.00    +0.144 A 
ATOM      4  C   LIG    1       27.157 -20.512   4.440  0.00  0.00    +0.048 A 
ATOM      5  C   LIG    1       28.182 -20.023   5.253  0.00  0.00    +0.023 A 
ATOM      6  C   LIG    1       28.213 -18.669   5.585  0.00  0.00    +0.042 A 
ATOM      7 CL   LIG    1       29.475 -18.068   6.587  0.00  0.00    -0.084 Cl
ATOM      8  O   LIG    1       25.183 -20.192   3.186  0.00  0.00    -0.451 OA
ATOM      9  C   LIG    1       23.925 -20.050   3.724  0.00  0.00    +0.179 A 
ATOM     10  C   LIG    1       23.357 -18.792   3.959  0.00  0.00    +0.218 A 
ATOM     11  C   LIG    1       22.068 -18.744   4.502  0.00  0.00    +0.059 A 
ATOM     12  C   LIG    1       21.368 -19.916   4.808  0.00  0.00    +0.004 A 
ATOM     13  C   LIG    1       21.944 -21.158   4.555  0.00  0.00    +0.004 A 
ATOM     14  C   LIG    1       23.223 -21.228   4.005  0.00  0.00    +0.051 A 
ATOM     15  C   LIG    1       27.239 -17.798   5.102  0.00  0.00    +0.039 A 
ATOM     16  N   LIG    1       23.947 -17.572   3.600  0.00  0.00    -0.038 NA
ENDROOT
BRANCH   1  21
ATOM     17  C   LIG    1       27.159 -12.778   4.291  0.00  0.00    +0.105 C 
ATOM     18  N   LIG    1       26.797 -13.314   2.980  0.00  0.00    -0.298 NA
ATOM     19  C   LIG    1       27.565 -14.539   2.664  0.00  0.00    +0.127 C 
ATOM     20  C   LIG    1       27.150 -15.803   3.447  0.00  0.00    +0.241 C 
ATOM     21  N   LIG    1       25.696 -16.058   3.321  0.00  0.00    -0.217 N 
ATOM     22  C   LIG    1       24.893 -14.867   3.683  0.00  0.00    +0.241 C 
ATOM     23  C   LIG    1       25.354 -13.621   2.894  0.00  0.00    +0.127 C 
ENDBRANCH   1  21
TORSDOF 1
ENDMDL
MODEL 2
REMARK VINA RESULT:       4.9      2.791      6.959
REMARK  Name = *****
REMARK                            x       y       z     vdW  Elec       q    Type
REMARK                         _______ _______ _______ _____ _____    ______ ____
ROOT
ATOM      1  C   LIG    1       25.584 -16.239   3.524  0.00  0.00    +0.325 C 
ATOM      2  C   LIG    1       24.571 -15.232   3.974  0.00  0.00    +0.109 A 
ATOM      3  C   LIG    1       24.514 -13.953   3.418  0.00  0.00    +0.144 A 
ATOM      4  C   LIG    1       23.502 -13.064   3.790  0.00  0.00    +0.048 A 
ATOM      5  C   LIG    1       22.566 -13.441   4.754  0.00  0.00    +0.023 A 
ATOM      6  C   LIG    1       22.642 -14.707   5.334  0.00  0.00    +0.042 A 
ATOM      7 CL   LIG    1       21.488 -15.170   6.523  0.00  0.00    -0.084 Cl
ATOM      8  O   LIG    1       25.407 -13.518   2.472  0.00  0.00    -0.451 OA
ATOM      9  C   LIG    1       26.704 -13.493   2.929  0.00  0.00    +0.179 A 
ATOM     10  C   LIG    1       27.365 -14.653   3.351  0.00  0.00    +0.218 A 
ATOM     11  C   LIG    1       28.686 -14.533   3.794  0.00  0.00    +0.059 A 
ATOM     12  C   LIG    1       29.330 -13.291   3.824  0.00  0.00    +0.004 A 
ATOM     13  C   LIG    1       28.660 -12.149   3.388  0.00  0.00    +0.004 A 
ATOM     14  C   LIG    1       27.347 -12.250   2.933  0.00  0.00    +0.051 A 
ATOM     15  C   LIG    1       23.636 -15.605   4.949  0.00  0.00    +0.039 A 
ATOM     16  N   LIG    1       26.831 -15.947   3.270  0.00  0.00    -0.038 NA
ENDROOT
BRANCH   1  21
ATOM     17  C   LIG    1       24.313 -20.781   5.086  0.00  0.00    +0.105 C 
ATOM     18  N   LIG    1       24.307 -20.409   3.673  0.00  0.00    -0.298 NA
ATOM     19  C   LIG    1       23.364 -19.300   3.408  0.00  0.00    +0.127 C 
ATOM     20  C   LIG    1       23.815 -17.911   3.913  0.00  0.00    +0.241 C 
ATOM     21  N   LIG    1       25.167 -17.572   3.411  0.00  0.00    -0.217 N 
ATOM     22  C   LIG    1       26.150 -18.639   3.707  0.00  0.00    +0.241 C 
ATOM     23  C   LIG    1       25.652 -20.013   3.206  0.00  0.00    +0.127 C 
ENDBRANCH   1  21
TORSDOF 1
ENDMDL
