MODEL 1
REMARK VINA RESULT:      -2.4      0.000      0.000
REMARK  Name = *****
REMARK                            x       y       z     vdW  Elec       q    Type
REMARK                         _______ _______ _______ _____ _____    ______ ____
ROOT
ATOM      1  C   LIG    1       23.912 -17.960   3.436  0.00  0.00    +0.031 C 
ATOM      2  C   LIG    1       22.627 -18.547   2.942  0.00  0.00    +0.121 C 
ATOM      3  C   LIG    1       21.376 -18.117   3.673  0.00  0.00    +0.063 C 
ATOM      4  C   LIG    1       21.999 -17.970   5.113  0.00  0.00    +0.124 C 
ATOM      5  C   LIG    1       23.340 -17.255   4.734  0.00  0.00    +0.046 C 
ENDROOT
BRANCH   2   6
ATOM      6  O   LIG    1       22.699 -19.718   3.656  0.00  0.00    -0.391 OA
ATOM      7  H   LIG    1       22.524 -20.316   2.922  0.00  0.00    +0.210 HD
ENDBRANCH   2   6
BRANCH   4   8
ATOM      8  O   LIG    1       22.348 -19.114   5.914  0.00  0.00    -0.391 OA
ATOM      9  H   LIG    1       21.527 -19.440   6.338  0.00  0.00    +0.210 HD
ENDBRANCH   4   8
BRANCH   5  10
ATOM     10  C   LIG    1       23.052 -15.814   4.404  0.00  0.00    -0.022 C 
ATOM     11  C   LIG    1       23.893 -15.017   3.724  0.00  0.00    -0.000 C 
BRANCH  11  12
ATOM     12  C   LIG    1       23.662 -13.611   3.339  0.00  0.00    +0.138 C 
BRANCH  12  13
ATOM     13  O   LIG    1       23.740 -12.824   4.523  0.00  0.00    -0.388 OA
ATOM     14  H   LIG    1       23.485 -13.385   5.276  0.00  0.00    +0.210 HD
ENDBRANCH  12  13
BRANCH  12  15
ATOM     15  C   LIG    1       24.699 -13.154   2.316  0.00  0.00    +0.040 C 
BRANCH  15  16
ATOM     16  C   LIG    1       26.040 -13.914   2.378  0.00  0.00    +0.038 C 
BRANCH  16  17
ATOM     17  C   LIG    1       27.017 -13.438   3.430  0.00  0.00    -0.047 A 
ATOM     18  C   LIG    1       26.693 -13.613   4.786  0.00  0.00    +0.003 A 
ATOM     19  C   LIG    1       27.529 -13.113   5.787  0.00  0.00    +0.000 A 
ATOM     20  C   LIG    1       28.699 -12.440   5.446  0.00  0.00    +0.000 A 
ATOM     21  C   LIG    1       29.052 -12.298   4.109  0.00  0.00    +0.000 A 
ATOM     22  C   LIG    1       28.218 -12.794   3.109  0.00  0.00    +0.003 A 
ENDBRANCH  16  17
ENDBRANCH  15  16
ENDBRANCH  12  15
ENDBRANCH  11  12
ENDBRANCH   5  10
BRANCH   1  23
ATOM     23  C   LIG    1       25.106 -19.003   3.741  0.00  0.00    +0.033 C 
BRANCH  23  25
ATOM     24  C   LIG    1       24.758 -21.518   4.744  0.00  0.00    -0.031 C 
ATOM     25  C   LIG    1       24.951 -20.551   3.800  0.00  0.00    -0.031 C 
BRANCH  24  26
ATOM     26  C   LIG    1       24.494 -21.570   6.280  0.00  0.00    +0.027 C 
BRANCH  26  27
ATOM     27  C   LIG    1       25.726 -21.286   7.062  0.00  0.00    +0.013 C 
BRANCH  27  28
ATOM     28  C   LIG    1       27.270 -21.496   6.759  0.00  0.00    +0.096 C 
BRANCH  28  31
ATOM     29  N   LIG    1       27.915 -19.445   5.319  0.00  0.00    -0.316 N 
ATOM     30  H   LIG    1       26.916 -19.192   5.290  0.00  0.00    +0.149 HD
ATOM     31  C   LIG    1       28.245 -20.274   6.368  0.00  0.00    +0.213 C 
ATOM     32  O   LIG    1       29.473 -20.167   6.860  0.00  0.00    -0.276 OA
BRANCH  29  34
ATOM     33  C   LIG    1       28.214 -17.021   4.688  0.00  0.00    +0.024 C 
ATOM     34  C   LIG    1       28.839 -18.408   4.797  0.00  0.00    +0.101 C 
ENDBRANCH  29  34
ENDBRANCH  28  31
ENDBRANCH  27  28
ENDBRANCH  26  27
ENDBRANCH  24  26
ENDBRANCH  23  25
ENDBRANCH   1  23
TORSDOF 15
ENDMDL
MODEL 2
REMARK VINA RESULT:      -1.1      1.901      3.548
REMARK  Name = *****
REMARK                            x       y       z     vdW  Elec       q    Type
REMARK                         _______ _______ _______ _____ _____    ______ ____
ROOT
ATOM      1  C   LIG    1       24.390 -19.743   5.458  0.00  0.00    +0.031 C 
ATOM      2  C   LIG    1       24.877 -20.168   4.107  0.00  0.00    +0.121 C 
ATOM      3  C   LIG    1       23.911 -19.974   2.961  0.00  0.00    +0.063 C 
ATOM      4  C   LIG    1       22.574 -20.246   3.748  0.00  0.00    +0.124 C 
ATOM      5  C   LIG    1       22.886 -19.446   5.058  0.00  0.00    +0.046 C 
ENDROOT
BRANCH   2   6
ATOM      6  O   LIG    1       24.544 -21.494   4.226  0.00  0.00    -0.391 OA
ATOM      7  H   LIG    1       23.608 -21.367   4.414  0.00  0.00    +0.210 HD
ENDBRANCH   2   6
BRANCH   4   8
ATOM      8  O   LIG    1       22.182 -21.572   4.153  0.00  0.00    -0.391 OA
ATOM      9  H   LIG    1       22.188 -21.595   5.132  0.00  0.00    +0.210 HD
ENDBRANCH   4   8
BRANCH   5  10
ATOM     10  C   LIG    1       22.751 -17.973   4.777  0.00  0.00    -0.022 C 
ATOM     11  C   LIG    1       22.118 -17.109   5.589  0.00  0.00    -0.000 C 
BRANCH  11  12
ATOM     12  C   LIG    1       21.977 -15.652   5.393  0.00  0.00    +0.138 C 
BRANCH  12  13
ATOM     13  O   LIG    1       21.714 -15.072   6.667  0.00  0.00    -0.388 OA
ATOM     14  H   LIG    1       20.915 -14.523   6.590  0.00  0.00    +0.210 HD
ENDBRANCH  12  13
BRANCH  12  15
ATOM     15  C   LIG    1       23.247 -15.065   4.783  0.00  0.00    +0.040 C 
BRANCH  15  16
ATOM     16  C   LIG    1       23.087 -14.549   3.338  0.00  0.00    +0.038 C 
BRANCH  16  17
ATOM     17  C   LIG    1       24.151 -13.586   2.862  0.00  0.00    -0.047 A 
ATOM     18  C   LIG    1       23.759 -12.331   2.368  0.00  0.00    +0.003 A 
ATOM     19  C   LIG    1       24.703 -11.447   1.842  0.00  0.00    +0.000 A 
ATOM     20  C   LIG    1       26.049 -11.801   1.812  0.00  0.00    +0.000 A 
ATOM     21  C   LIG    1       26.456 -13.023   2.338  0.00  0.00    +0.000 A 
ATOM     22  C   LIG    1       25.513 -13.908   2.860  0.00  0.00    +0.003 A 
ENDBRANCH  16  17
ENDBRANCH  15  16
ENDBRANCH  12  15
ENDBRANCH  11  12
ENDBRANCH   5  10
BRANCH   1  23
ATOM     23  C   LIG    1       24.541 -20.823   6.647  0.00  0.00    +0.033 C 
BRANCH  23  25
ATOM     24  C   LIG    1       27.197 -21.312   7.054  0.00  0.00    -0.031 C 
ATOM     25  C   LIG    1       25.856 -21.571   7.016  0.00  0.00    -0.031 C 
BRANCH  24  26
ATOM     26  C   LIG    1       28.122 -20.077   6.832  0.00  0.00    +0.027 C 
BRANCH  26  27
ATOM     27  C   LIG    1       27.825 -19.389   5.547  0.00  0.00    +0.013 C 
BRANCH  27  28
ATOM     28  C   LIG    1       28.588 -18.270   4.721  0.00  0.00    +0.096 C 
BRANCH  28  31
ATOM     29  N   LIG    1       28.257 -15.704   4.792  0.00  0.00    -0.316 N 
ATOM     30  H   LIG    1       29.278 -15.608   4.895  0.00  0.00    +0.149 HD
ATOM     31  C   LIG    1       27.868 -16.908   4.248  0.00  0.00    +0.213 C 
ATOM     32  O   LIG    1       26.753 -16.914   3.528  0.00  0.00    -0.276 OA
BRANCH  29  34
ATOM     33  C   LIG    1       27.291 -13.595   5.781  0.00  0.00    +0.024 C 
ATOM     34  C   LIG    1       27.533 -14.436   4.532  0.00  0.00    +0.101 C 
ENDBRANCH  29  34
ENDBRANCH  28  31
ENDBRANCH  27  28
ENDBRANCH  26  27
ENDBRANCH  24  26
ENDBRANCH  23  25
ENDBRANCH   1  23
TORSDOF 15
ENDMDL
MODEL 3
REMARK VINA RESULT:      -1.0      2.030      7.456
REMARK  Name = *****
REMARK                            x       y       z     vdW  Elec       q    Type
REMARK                         _______ _______ _______ _____ _____    ______ ____
ROOT
ATOM      1  C   LIG    1       26.329 -14.268   2.404  0.00  0.00    +0.031 C 
ATOM      2  C   LIG    1       27.653 -13.573   2.320  0.00  0.00    +0.121 C 
ATOM      3  C   LIG    1       28.592 -13.790   3.483  0.00  0.00    +0.063 C 
ATOM      4  C   LIG    1       27.512 -13.894   4.625  0.00  0.00    +0.124 C 
ATOM      5  C   LIG    1       26.459 -14.793   3.893  0.00  0.00    +0.046 C 
ENDROOT
BRANCH   2   6
ATOM      6  O   LIG    1       27.233 -12.366   2.821  0.00  0.00    -0.391 OA
ATOM      7  H   LIG    1       26.602 -12.715   3.460  0.00  0.00    +0.210 HD
ENDBRANCH   2   6
BRANCH   4   8
ATOM      8  O   LIG    1       26.806 -12.739   5.116  0.00  0.00    -0.391 OA
ATOM      9  H   LIG    1       25.853 -12.878   4.936  0.00  0.00    +0.210 HD
ENDBRANCH   4   8
BRANCH   5  10
ATOM     10  C   LIG    1       26.965 -16.211   3.855  0.00  0.00    -0.022 C 
ATOM     11  C   LIG    1       27.757 -16.751   4.797  0.00  0.00    -0.000 C 
BRANCH  11  12
ATOM     12  C   LIG    1       28.260 -18.138   4.839  0.00  0.00    +0.138 C 
BRANCH  12  13
ATOM     13  O   LIG    1       29.473 -18.176   4.093  0.00  0.00    -0.388 OA
ATOM     14  H   LIG    1       30.212 -18.247   4.721  0.00  0.00    +0.210 HD
ENDBRANCH  12  13
BRANCH  12  15
ATOM     15  C   LIG    1       28.498 -18.581   6.280  0.00  0.00    +0.040 C 
BRANCH  15  16
ATOM     16  C   LIG    1       28.078 -20.035   6.582  0.00  0.00    +0.038 C 
BRANCH  16  17
ATOM     17  C   LIG    1       26.681 -20.418   6.150  0.00  0.00    -0.047 A 
ATOM     18  C   LIG    1       26.400 -20.523   4.777  0.00  0.00    +0.003 A 
ATOM     19  C   LIG    1       25.103 -20.793   4.335  0.00  0.00    +0.000 A 
ATOM     20  C   LIG    1       24.074 -20.969   5.257  0.00  0.00    +0.000 A 
ATOM     21  C   LIG    1       24.348 -20.910   6.620  0.00  0.00    +0.000 A 
ATOM     22  C   LIG    1       25.642 -20.638   7.062  0.00  0.00    +0.003 A 
ENDBRANCH  16  17
ENDBRANCH  15  16
ENDBRANCH  12  15
ENDBRANCH  11  12
ENDBRANCH   5  10
BRANCH   1  23
ATOM     23  C   LIG    1       25.022 -13.355   2.152  0.00  0.00    +0.033 C 
BRANCH  23  25
ATOM     24  C   LIG    1       23.662 -12.919   4.480  0.00  0.00    -0.031 C 
ATOM     25  C   LIG    1       24.211 -12.626   3.263  0.00  0.00    -0.031 C 
BRANCH  24  26
ATOM     26  C   LIG    1       23.641 -14.136   5.453  0.00  0.00    +0.027 C 
BRANCH  26  27
ATOM     27  C   LIG    1       22.785 -15.238   4.939  0.00  0.00    +0.013 C 
BRANCH  27  28
ATOM     28  C   LIG    1       23.113 -16.618   4.227  0.00  0.00    +0.096 C 
BRANCH  28  31
ATOM     29  N   LIG    1       21.311 -18.370   3.611  0.00  0.00    -0.316 N 
ATOM     30  H   LIG    1       21.606 -18.280   2.627  0.00  0.00    +0.149 HD
ATOM     31  C   LIG    1       22.265 -17.958   4.514  0.00  0.00    +0.213 C 
ATOM     32  O   LIG    1       22.277 -18.561   5.697  0.00  0.00    -0.276 OA
BRANCH  29  34
ATOM     33  C   LIG    1       21.063 -20.853   3.977  0.00  0.00    +0.024 C 
ATOM     34  C   LIG    1       20.380 -19.492   3.884  0.00  0.00    +0.101 C 
ENDBRANCH  29  34
ENDBRANCH  28  31
ENDBRANCH  27  28
ENDBRANCH  26  27
ENDBRANCH  24  26
ENDBRANCH  23  25
ENDBRANCH   1  23
TORSDOF 15
ENDMDL
MODEL 4
REMARK VINA RESULT:      -0.2      1.979      6.716
REMARK  Name = *****
REMARK                            x       y       z     vdW  Elec       q    Type
REMARK                         _______ _______ _______ _____ _____    ______ ____
ROOT
ATOM      1  C   LIG    1       25.535 -14.502   2.826  0.00  0.00    +0.031 C 
ATOM      2  C   LIG    1       26.805 -13.780   2.500  0.00  0.00    +0.121 C 
ATOM      3  C   LIG    1       28.022 -14.178   3.302  0.00  0.00    +0.063 C 
ATOM      4  C   LIG    1       27.296 -14.498   4.663  0.00  0.00    +0.124 C 
ATOM      5  C   LIG    1       26.054 -15.275   4.108  0.00  0.00    +0.046 C 
ENDROOT
BRANCH   2   6
ATOM      6  O   LIG    1       26.578 -12.686   3.297  0.00  0.00    -0.391 OA
ATOM      7  H   LIG    1       27.114 -12.060   2.798  0.00  0.00    +0.210 HD
ENDBRANCH   2   6
BRANCH   4   8
ATOM      8  O   LIG    1       26.788 -13.459   5.521  0.00  0.00    -0.391 OA
ATOM      9  H   LIG    1       27.245 -12.628   5.280  0.00  0.00    +0.210 HD
ENDBRANCH   4   8
BRANCH   5  10
ATOM     10  C   LIG    1       26.486 -16.656   3.689  0.00  0.00    -0.022 C 
ATOM     11  C   LIG    1       25.634 -17.664   3.434  0.00  0.00    -0.000 C 
BRANCH  11  12
ATOM     12  C   LIG    1       25.985 -19.026   2.989  0.00  0.00    +0.138 C 
BRANCH  12  13
ATOM     13  O   LIG    1       27.402 -19.151   3.069  0.00  0.00    -0.388 OA
ATOM     14  H   LIG    1       27.797 -18.516   2.448  0.00  0.00    +0.210 HD
ENDBRANCH  12  13
BRANCH  12  15
ATOM     15  C   LIG    1       25.300 -20.073   3.863  0.00  0.00    +0.040 C 
BRANCH  15  16
ATOM     16  C   LIG    1       25.509 -19.879   5.380  0.00  0.00    +0.038 C 
BRANCH  16  17
ATOM     17  C   LIG    1       26.921 -20.085   5.880  0.00  0.00    -0.047 A 
ATOM     18  C   LIG    1       27.247 -21.297   6.512  0.00  0.00    +0.003 A 
ATOM     19  C   LIG    1       28.516 -21.493   7.061  0.00  0.00    +0.000 A 
ATOM     20  C   LIG    1       29.475 -20.487   6.979  0.00  0.00    +0.000 A 
ATOM     21  C   LIG    1       29.178 -19.299   6.318  0.00  0.00    +0.000 A 
ATOM     22  C   LIG    1       27.911 -19.101   5.772  0.00  0.00    +0.003 A 
ENDBRANCH  16  17
ENDBRANCH  15  16
ENDBRANCH  12  15
ENDBRANCH  11  12
ENDBRANCH   5  10
BRANCH   1  23
ATOM     23  C   LIG    1       24.239 -13.583   3.107  0.00  0.00    +0.033 C 
BRANCH  23  25
ATOM     24  C   LIG    1       22.800 -14.417   5.273  0.00  0.00    -0.031 C 
ATOM     25  C   LIG    1       23.442 -13.541   4.444  0.00  0.00    -0.031 C 
BRANCH  24  26
ATOM     26  C   LIG    1       22.604 -15.961   5.363  0.00  0.00    +0.027 C 
BRANCH  26  27
ATOM     27  C   LIG    1       22.277 -16.553   4.038  0.00  0.00    +0.013 C 
BRANCH  27  28
ATOM     28  C   LIG    1       22.110 -18.050   3.536  0.00  0.00    +0.096 C 
BRANCH  28  31
ATOM     29  N   LIG    1       22.627 -19.448   5.652  0.00  0.00    -0.316 N 
ATOM     30  H   LIG    1       22.867 -18.569   6.134  0.00  0.00    +0.149 HD
ATOM     31  C   LIG    1       21.823 -19.270   4.548  0.00  0.00    +0.213 C 
ATOM     32  O   LIG    1       20.988 -20.256   4.243  0.00  0.00    -0.276 OA
BRANCH  29  34
ATOM     33  C   LIG    1       23.873 -21.132   7.055  0.00  0.00    +0.024 C 
ATOM     34  C   LIG    1       22.529 -20.638   6.531  0.00  0.00    +0.101 C 
ENDBRANCH  29  34
ENDBRANCH  28  31
ENDBRANCH  27  28
ENDBRANCH  26  27
ENDBRANCH  24  26
ENDBRANCH  23  25
ENDBRANCH   1  23
TORSDOF 15
ENDMDL
MODEL 5
REMARK VINA RESULT:       0.1      1.889      4.809
REMARK  Name = *****
REMARK                            x       y       z     vdW  Elec       q    Type
REMARK                         _______ _______ _______ _____ _____    ______ ____
ROOT
ATOM      1  C   LIG    1       24.368 -13.972   4.349  0.00  0.00    +0.031 C 
ATOM      2  C   LIG    1       23.805 -13.487   3.050  0.00  0.00    +0.121 C 
ATOM      3  C   LIG    1       23.851 -11.994   2.821  0.00  0.00    +0.063 C 
ATOM      4  C   LIG    1       23.642 -11.534   4.313  0.00  0.00    +0.124 C 
ATOM      5  C   LIG    1       24.590 -12.557   5.026  0.00  0.00    +0.046 C 
ENDROOT
BRANCH   2   6
ATOM      6  O   LIG    1       22.494 -13.433   3.453  0.00  0.00    -0.391 OA
ATOM      7  H   LIG    1       22.506 -14.222   4.006  0.00  0.00    +0.210 HD
ENDBRANCH   2   6
BRANCH   4   8
ATOM      8  O   LIG    1       22.363 -11.624   4.969  0.00  0.00    -0.391 OA
ATOM      9  H   LIG    1       22.078 -12.560   4.932  0.00  0.00    +0.210 HD
ENDBRANCH   4   8
BRANCH   5  10
ATOM     10  C   LIG    1       26.020 -12.141   4.802  0.00  0.00    -0.022 C 
ATOM     11  C   LIG    1       27.077 -12.755   5.359  0.00  0.00    -0.000 C 
BRANCH  11  12
ATOM     12  C   LIG    1       28.501 -12.422   5.157  0.00  0.00    +0.138 C 
BRANCH  12  13
ATOM     13  O   LIG    1       29.186 -12.719   6.370  0.00  0.00    -0.388 OA
ATOM     14  H   LIG    1       28.681 -12.332   7.105  0.00  0.00    +0.210 HD
ENDBRANCH  12  13
BRANCH  12  15
ATOM     15  C   LIG    1       29.083 -13.225   3.997  0.00  0.00    +0.040 C 
BRANCH  15  16
ATOM     16  C   LIG    1       28.031 -13.837   3.048  0.00  0.00    +0.038 C 
BRANCH  16  17
ATOM     17  C   LIG    1       27.549 -15.223   3.409  0.00  0.00    -0.047 A 
ATOM     18  C   LIG    1       28.363 -16.036   4.216  0.00  0.00    +0.003 A 
ATOM     19  C   LIG    1       27.992 -17.352   4.503  0.00  0.00    +0.000 A 
ATOM     20  C   LIG    1       26.803 -17.868   3.995  0.00  0.00    +0.000 A 
ATOM     21  C   LIG    1       25.968 -17.059   3.230  0.00  0.00    +0.000 A 
ATOM     22  C   LIG    1       26.339 -15.747   2.941  0.00  0.00    +0.003 A 
ENDBRANCH  16  17
ENDBRANCH  15  16
ENDBRANCH  12  15
ENDBRANCH  11  12
ENDBRANCH   5  10
BRANCH   1  23
ATOM     23  C   LIG    1       23.431 -14.962   5.213  0.00  0.00    +0.033 C 
BRANCH  23  25
ATOM     24  C   LIG    1       22.194 -17.200   4.254  0.00  0.00    -0.031 C 
ATOM     25  C   LIG    1       22.329 -15.892   4.625  0.00  0.00    -0.031 C 
BRANCH  24  26
ATOM     26  C   LIG    1       23.062 -18.493   4.314  0.00  0.00    +0.027 C 
BRANCH  26  27
ATOM     27  C   LIG    1       22.580 -19.433   5.360  0.00  0.00    +0.013 C 
BRANCH  27  28
ATOM     28  C   LIG    1       23.330 -20.400   6.372  0.00  0.00    +0.096 C 
BRANCH  28  31
ATOM     29  N   LIG    1       25.789 -20.862   7.031  0.00  0.00    -0.316 N 
ATOM     30  H   LIG    1       25.462 -21.055   7.989  0.00  0.00    +0.149 HD
ATOM     31  C   LIG    1       24.803 -20.981   6.076  0.00  0.00    +0.213 C 
ATOM     32  O   LIG    1       25.180 -21.362   4.862  0.00  0.00    -0.276 OA
BRANCH  29  34
ATOM     33  C   LIG    1       28.191 -20.094   7.059  0.00  0.00    +0.024 C 
ATOM     34  C   LIG    1       27.204 -21.220   6.769  0.00  0.00    +0.101 C 
ENDBRANCH  29  34
ENDBRANCH  28  31
ENDBRANCH  27  28
ENDBRANCH  26  27
ENDBRANCH  24  26
ENDBRANCH  23  25
ENDBRANCH   1  23
TORSDOF 15
ENDMDL
