MODEL 1
REMARK VINA RESULT:       1.8      0.000      0.000
REMARK  Name = *****
REMARK                            x       y       z     vdW  Elec       q    Type
REMARK                         _______ _______ _______ _____ _____    ______ ____
ROOT
ATOM      1  C   LIG    1       28.198 -19.460   5.900  0.00  0.00    +0.162 A 
ATOM      2  C   LIG    1       26.982 -19.930   5.440  0.00  0.00    +0.167 A 
ATOM      3  O   LIG    1       26.159 -20.894   6.037  0.00  0.00    -0.476 OA
ATOM      4  C   LIG    1       24.864 -20.360   5.702  0.00  0.00    +0.250 C 
ATOM      5  C   LIG    1       25.158 -19.969   3.946  0.00  0.00    +0.049 C 
ATOM      6  C   LIG    1       24.081 -19.193   2.821  0.00  0.00    +0.021 C 
ATOM      7  C   LIG    1       24.278 -17.716   3.096  0.00  0.00    +0.065 C 
ATOM      8  N   LIG    1       23.869 -17.628   4.486  0.00  0.00    -0.302 NA
ATOM      9  C   LIG    1       23.222 -18.888   4.910  0.00  0.00    +0.085 C 
ATOM     10  C   LIG    1       23.101 -16.430   4.794  0.00  0.00    +0.105 C 
ATOM     11  C   LIG    1       25.796 -17.312   2.937  0.00  0.00    +0.054 C 
ATOM     12  C   LIG    1       26.749 -18.063   3.857  0.00  0.00    -0.038 A 
ATOM     13  C   LIG    1       27.971 -17.575   4.311  0.00  0.00    +0.008 A 
ATOM     14  C   LIG    1       22.270 -19.797   3.000  0.00  0.00    +0.014 C 
ATOM     15  C   LIG    1       21.862 -20.811   4.564  0.00  0.00    +0.078 C 
ATOM     16  C   LIG    1       23.951 -20.569   4.128  0.00  0.00    +0.031 C 
ATOM     17  C   LIG    1       23.070 -20.999   6.017  0.00  0.00    +0.174 C 
ATOM     18  O   LIG    1       22.735 -21.552   7.062  0.00  0.00    -0.293 OA
ATOM     19  C   LIG    1       26.349 -19.283   4.372  0.00  0.00    +0.012 A 
ATOM     20  C   LIG    1       28.695 -18.285   5.299  0.00  0.00    +0.050 A 
ENDROOT
BRANCH   1  22
ATOM     21  C   LIG    1       28.996 -21.370   7.059  0.00  0.00    +0.277 C 
ATOM     22  O   LIG    1       28.970 -19.955   6.908  0.00  0.00    -0.491 OA
ENDBRANCH   1  22
TORSDOF 1
ENDMDL
MODEL 2
REMARK VINA RESULT:       2.3      2.369      4.488
REMARK  Name = *****
REMARK                            x       y       z     vdW  Elec       q    Type
REMARK                         _______ _______ _______ _____ _____    ______ ____
ROOT
ATOM      1  C   LIG    1       25.179 -15.036   3.880  0.00  0.00    +0.162 A 
ATOM      2  C   LIG    1       25.359 -16.396   3.713  0.00  0.00    +0.167 A 
ATOM      3  O   LIG    1       26.565 -17.110   3.753  0.00  0.00    -0.476 OA
ATOM      4  C   LIG    1       26.113 -18.330   4.368  0.00  0.00    +0.250 C 
ATOM      5  C   LIG    1       24.600 -18.605   3.390  0.00  0.00    +0.049 C 
ATOM      6  C   LIG    1       23.409 -19.860   3.578  0.00  0.00    +0.021 C 
ATOM      7  C   LIG    1       22.505 -19.335   4.674  0.00  0.00    +0.065 C 
ATOM      8  N   LIG    1       23.437 -19.214   5.780  0.00  0.00    -0.302 NA
ATOM      9  C   LIG    1       24.717 -19.874   5.445  0.00  0.00    +0.085 C 
ATOM     10  C   LIG    1       22.877 -19.614   7.062  0.00  0.00    +0.105 C 
ATOM     11  C   LIG    1       21.915 -17.923   4.287  0.00  0.00    +0.054 C 
ATOM     12  C   LIG    1       22.963 -16.850   4.029  0.00  0.00    -0.038 A 
ATOM     13  C   LIG    1       22.765 -15.483   4.202  0.00  0.00    +0.008 A 
ATOM     14  C   LIG    1       24.194 -21.570   3.950  0.00  0.00    +0.014 C 
ATOM     15  C   LIG    1       26.042 -21.572   4.429  0.00  0.00    +0.078 C 
ATOM     16  C   LIG    1       25.308 -19.756   3.546  0.00  0.00    +0.031 C 
ATOM     17  C   LIG    1       27.014 -19.983   4.800  0.00  0.00    +0.174 C 
ATOM     18  O   LIG    1       28.166 -20.021   5.225  0.00  0.00    -0.293 OA
ATOM     19  C   LIG    1       24.244 -17.244   3.689  0.00  0.00    +0.012 A 
ATOM     20  C   LIG    1       23.859 -14.590   4.100  0.00  0.00    +0.050 A 
ENDROOT
BRANCH   1  22
ATOM     21  C   LIG    1       26.694 -13.667   2.672  0.00  0.00    +0.277 C 
ATOM     22  O   LIG    1       26.126 -14.056   3.917  0.00  0.00    -0.491 OA
ENDBRANCH   1  22
TORSDOF 1
ENDMDL
MODEL 3
REMARK VINA RESULT:       2.3      3.831      6.112
REMARK  Name = *****
REMARK                            x       y       z     vdW  Elec       q    Type
REMARK                         _______ _______ _______ _____ _____    ______ ____
ROOT
ATOM      1  C   LIG    1       23.415 -17.921   4.382  0.00  0.00    +0.162 A 
ATOM      2  C   LIG    1       23.563 -16.595   4.021  0.00  0.00    +0.167 A 
ATOM      3  O   LIG    1       22.725 -15.521   4.354  0.00  0.00    -0.476 OA
ATOM      4  C   LIG    1       23.704 -14.476   4.500  0.00  0.00    +0.250 C 
ATOM      5  C   LIG    1       24.693 -14.794   3.003  0.00  0.00    +0.049 C 
ATOM      6  C   LIG    1       26.149 -13.994   2.484  0.00  0.00    +0.021 C 
ATOM      7  C   LIG    1       27.243 -14.703   3.256  0.00  0.00    +0.065 C 
ATOM      8  N   LIG    1       26.852 -14.424   4.626  0.00  0.00    -0.302 NA
ATOM      9  C   LIG    1       25.782 -13.405   4.655  0.00  0.00    +0.085 C 
ATOM     10  C   LIG    1       27.976 -14.136   5.505  0.00  0.00    +0.105 C 
ATOM     11  C   LIG    1       27.211 -16.256   2.974  0.00  0.00    +0.054 C 
ATOM     12  C   LIG    1       25.900 -16.938   3.340  0.00  0.00    -0.038 A 
ATOM     13  C   LIG    1       25.770 -18.276   3.702  0.00  0.00    +0.008 A 
ATOM     14  C   LIG    1       26.086 -12.098   2.763  0.00  0.00    +0.014 C 
ATOM     15  C   LIG    1       24.677 -11.447   3.874  0.00  0.00    +0.078 C 
ATOM     16  C   LIG    1       24.455 -13.464   3.170  0.00  0.00    +0.031 C 
ATOM     17  C   LIG    1       23.549 -12.591   4.887  0.00  0.00    +0.174 C 
ATOM     18  O   LIG    1       22.732 -12.141   5.687  0.00  0.00    -0.293 OA
ATOM     19  C   LIG    1       24.753 -16.169   3.420  0.00  0.00    +0.012 A 
ATOM     20  C   LIG    1       24.532 -18.761   4.189  0.00  0.00    +0.050 A 
ENDROOT
BRANCH   1  22
ATOM     21  C   LIG    1       22.429 -19.932   5.163  0.00  0.00    +0.277 C 
ATOM     22  O   LIG    1       22.339 -18.526   4.960  0.00  0.00    -0.491 OA
ENDBRANCH   1  22
TORSDOF 1
ENDMDL
MODEL 4
REMARK VINA RESULT:       3.5      3.195      4.999
REMARK  Name = *****
REMARK                            x       y       z     vdW  Elec       q    Type
REMARK                         _______ _______ _______ _____ _____    ______ ____
ROOT
ATOM      1  C   LIG    1       26.327 -19.078   4.359  0.00  0.00    +0.162 A 
ATOM      2  C   LIG    1       25.932 -17.880   3.795  0.00  0.00    +0.167 A 
ATOM      3  O   LIG    1       24.629 -17.478   3.470  0.00  0.00    -0.476 OA
ATOM      4  C   LIG    1       24.718 -16.073   3.774  0.00  0.00    +0.250 C 
ATOM      5  C   LIG    1       26.312 -15.704   2.970  0.00  0.00    +0.049 C 
ATOM      6  C   LIG    1       27.188 -14.200   2.957  0.00  0.00    +0.021 C 
ATOM      7  C   LIG    1       27.948 -14.216   4.268  0.00  0.00    +0.065 C 
ATOM      8  N   LIG    1       26.860 -14.276   5.227  0.00  0.00    -0.302 NA
ATOM      9  C   LIG    1       25.568 -14.033   4.552  0.00  0.00    +0.085 C 
ATOM     10  C   LIG    1       27.079 -13.456   6.409  0.00  0.00    +0.105 C 
ATOM     11  C   LIG    1       28.855 -15.504   4.376  0.00  0.00    +0.054 C 
ATOM     12  C   LIG    1       28.095 -16.821   4.290  0.00  0.00    -0.038 A 
ATOM     13  C   LIG    1       28.508 -18.019   4.865  0.00  0.00    +0.008 A 
ATOM     14  C   LIG    1       26.041 -12.681   2.727  0.00  0.00    +0.014 C 
ATOM     15  C   LIG    1       24.168 -12.990   2.932  0.00  0.00    +0.078 C 
ATOM     16  C   LIG    1       25.384 -14.746   2.700  0.00  0.00    +0.031 C 
ATOM     17  C   LIG    1       23.458 -14.620   3.599  0.00  0.00    +0.174 C 
ATOM     18  O   LIG    1       22.260 -14.747   3.837  0.00  0.00    -0.293 OA
ATOM     19  C   LIG    1       26.852 -16.830   3.684  0.00  0.00    +0.012 A 
ATOM     20  C   LIG    1       27.641 -19.138   4.870  0.00  0.00    +0.050 A 
ENDROOT
BRANCH   1  22
ATOM     21  C   LIG    1       25.652 -20.812   5.830  0.00  0.00    +0.277 C 
ATOM     22  O   LIG    1       25.592 -20.211   4.542  0.00  0.00    -0.491 OA
ENDBRANCH   1  22
TORSDOF 1
ENDMDL
