MODEL 1
REMARK VINA RESULT:      -3.9      0.000      0.000
REMARK  Name = *****
REMARK                            x       y       z     vdW  Elec       q    Type
REMARK                         _______ _______ _______ _____ _____    ______ ____
ROOT
ATOM      1  C   LIG    1       26.866 -17.066   3.729  0.00  0.00    +0.034 A 
ATOM      2  C   LIG    1       27.721 -17.776   4.585  0.00  0.00    +0.038 A 
ATOM      3  C   LIG    1       27.422 -19.100   4.977  0.00  0.00    +0.060 A 
ATOM      4  C   LIG    1       26.233 -19.708   4.518  0.00  0.00    +0.131 A 
ATOM      5  C   LIG    1       25.393 -18.969   3.685  0.00  0.00    +0.048 A 
ATOM      6  C   LIG    1       25.698 -17.675   3.313  0.00  0.00    +0.027 A 
ENDROOT
BRANCH   1   8
ATOM      7  C   LIG    1       26.410 -14.649   3.417  0.00  0.00    +0.217 C 
ATOM      8  N   LIG    1       27.232 -15.779   3.318  0.00  0.00    -0.285 N 
ATOM      9  H   LIG    1       28.129 -15.665   2.875  0.00  0.00    +0.155 HD
ATOM     10  O   LIG    1       25.279 -14.589   3.860  0.00  0.00    -0.276 OA
BRANCH   7  11
ATOM     11  C   LIG    1       27.049 -13.404   2.842  0.00  0.00    +0.096 C 
BRANCH  11  13
ATOM     12  C   LIG    1       28.330 -12.730   4.879  0.00  0.00    +0.004 C 
ATOM     13  C   LIG    1       28.433 -13.228   3.450  0.00  0.00    +0.006 C 
ENDBRANCH  11  13
ENDBRANCH   7  11
ENDBRANCH   1   8
BRANCH   3  14
ATOM     14  C   LIG    1       28.399 -19.793   5.884  0.00  0.00    +0.164 C 
ATOM     15  O   LIG    1       28.629 -20.996   5.765  0.00  0.00    -0.292 OA
ATOM     16  C   LIG    1       29.079 -18.979   6.971  0.00  0.00    +0.091 C 
ENDBRANCH   3  14
BRANCH   4  17
ATOM     17  O   LIG    1       25.937 -21.006   4.849  0.00  0.00    -0.489 OA
BRANCH  17  18
ATOM     18  C   LIG    1       25.365 -21.275   6.150  0.00  0.00    +0.261 C 
BRANCH  18  19
ATOM     19  C   LIG    1       23.821 -21.241   6.149  0.00  0.00    +0.166 C 
BRANCH  19  20
ATOM     20  O   LIG    1       23.306 -20.271   7.062  0.00  0.00    -0.387 OA
ATOM     21  H   LIG    1       22.544 -20.706   7.494  0.00  0.00    +0.210 HD
ENDBRANCH  19  20
BRANCH  19  22
ATOM     22  C   LIG    1       23.263 -20.988   4.737  0.00  0.00    +0.115 C 
BRANCH  22  23
ATOM     23  N   LIG    1       21.951 -20.315   4.753  0.00  0.00    -0.311 NA
ATOM     24  H   LIG    1       21.696 -20.124   5.731  0.00  0.00    +0.122 HD
BRANCH  23  25
ATOM     25  C   LIG    1       21.947 -19.050   4.008  0.00  0.00    +0.048 C 
ATOM     26  C   LIG    1       22.324 -17.856   4.887  0.00  0.00    +0.024 C 
ATOM     27  C   LIG    1       20.553 -18.820   3.412  0.00  0.00    +0.024 C 
ENDBRANCH  23  25
ENDBRANCH  22  23
ENDBRANCH  19  22
ENDBRANCH  18  19
ENDBRANCH  17  18
ENDBRANCH   4  17
TORSDOF 11
ENDMDL
MODEL 2
REMARK VINA RESULT:      -3.3      1.969      6.267
REMARK  Name = *****
REMARK                            x       y       z     vdW  Elec       q    Type
REMARK                         _______ _______ _______ _____ _____    ______ ____
ROOT
ATOM      1  C   LIG    1       25.064 -19.591   4.298  0.00  0.00    +0.034 A 
ATOM      2  C   LIG    1       26.280 -19.740   4.982  0.00  0.00    +0.038 A 
ATOM      3  C   LIG    1       27.314 -18.788   4.843  0.00  0.00    +0.060 A 
ATOM      4  C   LIG    1       27.127 -17.681   3.985  0.00  0.00    +0.131 A 
ATOM      5  C   LIG    1       25.915 -17.571   3.303  0.00  0.00    +0.048 A 
ATOM      6  C   LIG    1       24.915 -18.513   3.448  0.00  0.00    +0.027 A 
ENDROOT
BRANCH   1   8
ATOM      7  C   LIG    1       23.011 -20.375   5.447  0.00  0.00    +0.217 C 
ATOM      8  N   LIG    1       24.045 -20.527   4.513  0.00  0.00    -0.285 N 
ATOM      9  H   LIG    1       24.084 -21.390   3.997  0.00  0.00    +0.155 HD
ATOM     10  O   LIG    1       22.825 -19.442   6.205  0.00  0.00    -0.276 OA
BRANCH   7  11
ATOM     11  C   LIG    1       22.086 -21.571   5.500  0.00  0.00    +0.096 C 
BRANCH  11  13
ATOM     12  C   LIG    1       20.858 -19.926   4.076  0.00  0.00    +0.004 C 
ATOM     13  C   LIG    1       20.970 -21.383   4.484  0.00  0.00    +0.006 C 
ENDBRANCH  11  13
ENDBRANCH   7  11
ENDBRANCH   1   8
BRANCH   3  14
ATOM     14  C   LIG    1       28.578 -19.016   5.621  0.00  0.00    +0.164 C 
ATOM     15  O   LIG    1       29.474 -18.173   5.634  0.00  0.00    -0.292 OA
ATOM     16  C   LIG    1       28.737 -20.326   6.373  0.00  0.00    +0.091 C 
ENDBRANCH   3  14
BRANCH   4  17
ATOM     17  O   LIG    1       28.098 -16.719   3.862  0.00  0.00    -0.489 OA
BRANCH  17  18
ATOM     18  C   LIG    1       27.852 -15.411   4.427  0.00  0.00    +0.261 C 
BRANCH  18  19
ATOM     19  C   LIG    1       27.634 -14.322   3.354  0.00  0.00    +0.166 C 
BRANCH  19  20
ATOM     20  O   LIG    1       26.792 -14.775   2.293  0.00  0.00    -0.387 OA
ATOM     21  H   LIG    1       26.115 -14.078   2.189  0.00  0.00    +0.210 HD
ENDBRANCH  19  20
BRANCH  19  22
ATOM     22  C   LIG    1       27.063 -13.030   3.968  0.00  0.00    +0.115 C 
BRANCH  22  23
ATOM     23  N   LIG    1       25.897 -13.278   4.835  0.00  0.00    -0.311 NA
ATOM     24  H   LIG    1       25.946 -12.634   5.637  0.00  0.00    +0.122 HD
BRANCH  23  25
ATOM     25  C   LIG    1       24.616 -13.076   4.145  0.00  0.00    +0.048 C 
ATOM     26  C   LIG    1       23.835 -11.885   4.705  0.00  0.00    +0.024 C 
ATOM     27  C   LIG    1       23.767 -14.346   4.275  0.00  0.00    +0.024 C 
ENDBRANCH  23  25
ENDBRANCH  22  23
ENDBRANCH  19  22
ENDBRANCH  18  19
ENDBRANCH  17  18
ENDBRANCH   4  17
TORSDOF 11
ENDMDL
MODEL 3
REMARK VINA RESULT:      -2.4      2.270      5.903
REMARK  Name = *****
REMARK                            x       y       z     vdW  Elec       q    Type
REMARK                         _______ _______ _______ _____ _____    ______ ____
ROOT
ATOM      1  C   LIG    1       27.313 -17.257   4.144  0.00  0.00    +0.034 A 
ATOM      2  C   LIG    1       28.006 -16.057   4.360  0.00  0.00    +0.038 A 
ATOM      3  C   LIG    1       27.563 -14.847   3.781  0.00  0.00    +0.060 A 
ATOM      4  C   LIG    1       26.418 -14.851   2.954  0.00  0.00    +0.131 A 
ATOM      5  C   LIG    1       25.763 -16.065   2.741  0.00  0.00    +0.048 A 
ATOM      6  C   LIG    1       26.210 -17.239   3.313  0.00  0.00    +0.027 A 
ENDROOT
BRANCH   1   8
ATOM      7  C   LIG    1       26.986 -19.583   4.938  0.00  0.00    +0.217 C 
ATOM      8  N   LIG    1       27.753 -18.420   4.787  0.00  0.00    -0.285 N 
ATOM      9  H   LIG    1       28.664 -18.404   5.214  0.00  0.00    +0.155 HD
ATOM     10  O   LIG    1       25.849 -19.779   4.553  0.00  0.00    -0.276 OA
BRANCH   7  11
ATOM     11  C   LIG    1       27.700 -20.661   5.725  0.00  0.00    +0.096 C 
BRANCH  11  13
ATOM     12  C   LIG    1       29.475 -19.372   6.921  0.00  0.00    +0.004 C 
ATOM     13  C   LIG    1       28.145 -20.088   7.062  0.00  0.00    +0.006 C 
ENDBRANCH  11  13
ENDBRANCH   7  11
ENDBRANCH   1   8
BRANCH   3  14
ATOM     14  C   LIG    1       28.355 -13.605   4.076  0.00  0.00    +0.164 C 
ATOM     15  O   LIG    1       29.328 -13.298   3.389  0.00  0.00    -0.292 OA
ATOM     16  C   LIG    1       27.942 -12.748   5.259  0.00  0.00    +0.091 C 
ENDBRANCH   3  14
BRANCH   4  17
ATOM     17  O   LIG    1       25.941 -13.686   2.412  0.00  0.00    -0.489 OA
BRANCH  17  18
ATOM     18  C   LIG    1       24.585 -13.284   2.714  0.00  0.00    +0.261 C 
BRANCH  18  19
ATOM     19  C   LIG    1       24.384 -12.910   4.200  0.00  0.00    +0.166 C 
BRANCH  19  20
ATOM     20  O   LIG    1       23.576 -11.742   4.353  0.00  0.00    -0.387 OA
ATOM     21  H   LIG    1       23.749 -11.206   3.554  0.00  0.00    +0.210 HD
ENDBRANCH  19  20
BRANCH  19  22
ATOM     22  C   LIG    1       23.783 -14.079   5.000  0.00  0.00    +0.115 C 
BRANCH  22  23
ATOM     23  N   LIG    1       23.165 -15.103   4.137  0.00  0.00    -0.311 NA
ATOM     24  H   LIG    1       23.902 -15.747   3.818  0.00  0.00    +0.122 HD
BRANCH  23  25
ATOM     25  C   LIG    1       22.124 -15.879   4.824  0.00  0.00    +0.048 C 
ATOM     26  C   LIG    1       22.020 -15.525   6.309  0.00  0.00    +0.024 C 
ATOM     27  C   LIG    1       22.431 -17.374   4.680  0.00  0.00    +0.024 C 
ENDBRANCH  23  25
ENDBRANCH  22  23
ENDBRANCH  19  22
ENDBRANCH  18  19
ENDBRANCH  17  18
ENDBRANCH   4  17
TORSDOF 11
ENDMDL
MODEL 4
REMARK VINA RESULT:      -1.5      2.408      4.196
REMARK  Name = *****
REMARK                            x       y       z     vdW  Elec       q    Type
REMARK                         _______ _______ _______ _____ _____    ______ ____
ROOT
ATOM      1  C   LIG    1       23.081 -16.433   4.385  0.00  0.00    +0.034 A 
ATOM      2  C   LIG    1       24.307 -17.018   4.033  0.00  0.00    +0.038 A 
ATOM      3  C   LIG    1       24.406 -18.406   3.789  0.00  0.00    +0.060 A 
ATOM      4  C   LIG    1       23.258 -19.218   3.924  0.00  0.00    +0.131 A 
ATOM      5  C   LIG    1       22.059 -18.610   4.296  0.00  0.00    +0.048 A 
ATOM      6  C   LIG    1       21.980 -17.251   4.533  0.00  0.00    +0.027 A 
ENDROOT
BRANCH   1   8
ATOM      7  C   LIG    1       23.970 -14.139   4.073  0.00  0.00    +0.217 C 
ATOM      8  N   LIG    1       23.017 -15.044   4.558  0.00  0.00    -0.285 N 
ATOM      9  H   LIG    1       22.261 -14.675   5.109  0.00  0.00    +0.155 HD
ATOM     10  O   LIG    1       24.980 -14.389   3.442  0.00  0.00    -0.276 OA
BRANCH   7  11
ATOM     11  C   LIG    1       23.670 -12.707   4.458  0.00  0.00    +0.096 C 
BRANCH  11  13
ATOM     12  C   LIG    1       24.009 -11.817   2.148  0.00  0.00    +0.004 C 
ATOM     13  C   LIG    1       24.494 -11.773   3.585  0.00  0.00    +0.006 C 
ENDBRANCH  11  13
ENDBRANCH   7  11
ENDBRANCH   1   8
BRANCH   3  14
ATOM     14  C   LIG    1       25.752 -18.949   3.403  0.00  0.00    +0.164 C 
ATOM     15  O   LIG    1       25.862 -19.794   2.515  0.00  0.00    -0.292 OA
ATOM     16  C   LIG    1       26.975 -18.449   4.152  0.00  0.00    +0.091 C 
ENDBRANCH   3  14
BRANCH   4  17
ATOM     17  O   LIG    1       23.316 -20.562   3.654  0.00  0.00    -0.489 OA
BRANCH  17  18
ATOM     18  C   LIG    1       23.755 -21.460   4.699  0.00  0.00    +0.261 C 
BRANCH  18  19
ATOM     19  C   LIG    1       24.284 -20.720   5.948  0.00  0.00    +0.166 C 
BRANCH  19  20
ATOM     20  O   LIG    1       23.384 -20.822   7.052  0.00  0.00    -0.387 OA
ATOM     21  H   LIG    1       23.709 -20.171   7.706  0.00  0.00    +0.210 HD
ENDBRANCH  19  20
BRANCH  19  22
ATOM     22  C   LIG    1       25.680 -21.225   6.354  0.00  0.00    +0.115 C 
BRANCH  22  23
ATOM     23  N   LIG    1       26.473 -20.203   7.062  0.00  0.00    -0.311 NA
ATOM     24  H   LIG    1       26.147 -20.156   8.037  0.00  0.00    +0.122 HD
BRANCH  23  25
ATOM     25  C   LIG    1       27.913 -20.491   7.059  0.00  0.00    +0.048 C 
ATOM     26  C   LIG    1       28.755 -19.249   6.760  0.00  0.00    +0.024 C 
ATOM     27  C   LIG    1       28.210 -21.568   6.009  0.00  0.00    +0.024 C 
ENDBRANCH  23  25
ENDBRANCH  22  23
ENDBRANCH  19  22
ENDBRANCH  18  19
ENDBRANCH  17  18
ENDBRANCH   4  17
TORSDOF 11
ENDMDL
