MODEL 1
REMARK VINA RESULT:      -8.8      0.000      0.000
REMARK  Name = *****
REMARK                            x       y       z     vdW  Elec       q    Type
REMARK                         _______ _______ _______ _____ _____    ______ ____
ROOT
ATOM      1  O   LIG    1       28.499 -21.997   7.117  0.00  0.00    -0.252 OA
ATOM      2  C   LIG    1       27.481 -21.447   6.734  0.00  0.00    +0.306 C 
ATOM      3  N   LIG    1       26.171 -21.925   6.861  0.00  0.00    -0.271 N 
ATOM      4  C   LIG    1       25.230 -20.839   6.599  0.00  0.00    +0.155 C 
ATOM      5  C   LIG    1       26.042 -19.910   5.693  0.00  0.00    +0.152 C 
ATOM      6  C   LIG    1       25.781 -20.319   4.239  0.00  0.00    +0.302 C 
ATOM      7  S   LIG    1       24.213 -21.249   4.099  0.00  0.00    -0.004 S 
ATOM      8  C   LIG    1       23.105 -19.840   3.772  0.00  0.00    +0.278 C 
ATOM      9  C   LIG    1       22.908 -19.084   5.067  0.00  0.00    +0.059 C 
ATOM     10  C   LIG    1       22.802 -20.145   6.146  0.00  0.00    +0.064 C 
ATOM     11  C   LIG    1       23.908 -21.184   5.918  0.00  0.00    +0.230 C 
ATOM     12  N   LIG    1       27.405 -20.205   6.108  0.00  0.00    -0.272 N 
ENDROOT
BRANCH   3  13
ATOM     13  C   LIG    1       25.862 -23.085   7.680  0.00  0.00    +0.145 C 
BRANCH  13  14
ATOM     14  C   LIG    1       25.493 -24.322   6.894  0.00  0.00    -0.030 A 
ATOM     15  C   LIG    1       26.450 -25.277   6.520  0.00  0.00    +0.005 A 
ATOM     16  C   LIG    1       26.080 -26.417   5.804  0.00  0.00    +0.000 A 
ATOM     17  C   LIG    1       24.744 -26.635   5.479  0.00  0.00    +0.000 A 
ATOM     18  C   LIG    1       23.775 -25.714   5.876  0.00  0.00    +0.000 A 
ATOM     19  C   LIG    1       24.147 -24.568   6.582  0.00  0.00    +0.005 A 
ENDBRANCH  13  14
ENDBRANCH   3  13
BRANCH  12  20
ATOM     20  C   LIG    1       28.559 -19.417   5.725  0.00  0.00    +0.145 C 
BRANCH  20  21
ATOM     21  C   LIG    1       29.494 -19.167   6.882  0.00  0.00    -0.030 A 
ATOM     22  C   LIG    1       30.878 -19.333   6.721  0.00  0.00    +0.005 A 
ATOM     23  C   LIG    1       31.753 -19.070   7.777  0.00  0.00    +0.000 A 
ATOM     24  C   LIG    1       31.254 -18.629   9.002  0.00  0.00    +0.000 A 
ATOM     25  C   LIG    1       29.880 -18.455   9.171  0.00  0.00    +0.000 A 
ATOM     26  C   LIG    1       29.004 -18.721   8.116  0.00  0.00    +0.005 A 
ENDBRANCH  20  21
ENDBRANCH  12  20
TORSDOF 4
ENDMDL
MODEL 2
REMARK VINA RESULT:      -8.4      1.944      5.088
REMARK  Name = *****
REMARK                            x       y       z     vdW  Elec       q    Type
REMARK                         _______ _______ _______ _____ _____    ______ ____
ROOT
ATOM      1  O   LIG    1       24.729 -20.785   7.848  0.00  0.00    -0.252 OA
ATOM      2  C   LIG    1       25.011 -21.826   7.279  0.00  0.00    +0.306 C 
ATOM      3  N   LIG    1       24.195 -22.548   6.400  0.00  0.00    -0.271 N 
ATOM      4  C   LIG    1       25.006 -23.524   5.675  0.00  0.00    +0.155 C 
ATOM      5  C   LIG    1       26.171 -23.765   6.639  0.00  0.00    +0.152 C 
ATOM      6  C   LIG    1       25.797 -24.939   7.550  0.00  0.00    +0.302 C 
ATOM      7  S   LIG    1       24.495 -25.967   6.782  0.00  0.00    -0.004 S 
ATOM      8  C   LIG    1       25.576 -27.147   5.912  0.00  0.00    +0.278 C 
ATOM      9  C   LIG    1       26.172 -26.445   4.711  0.00  0.00    +0.059 C 
ATOM     10  C   LIG    1       25.056 -25.584   4.148  0.00  0.00    +0.064 C 
ATOM     11  C   LIG    1       24.365 -24.861   5.311  0.00  0.00    +0.230 C 
ATOM     12  N   LIG    1       26.224 -22.505   7.364  0.00  0.00    -0.272 N 
ENDROOT
BRANCH   3  13
ATOM     13  C   LIG    1       22.947 -22.000   5.898  0.00  0.00    +0.145 C 
BRANCH  13  14
ATOM     14  C   LIG    1       23.101 -20.721   5.108  0.00  0.00    -0.030 A 
ATOM     15  C   LIG    1       22.223 -19.639   5.267  0.00  0.00    +0.005 A 
ATOM     16  C   LIG    1       22.396 -18.465   4.533  0.00  0.00    +0.000 A 
ATOM     17  C   LIG    1       23.468 -18.343   3.652  0.00  0.00    +0.000 A 
ATOM     18  C   LIG    1       24.371 -19.395   3.510  0.00  0.00    +0.000 A 
ATOM     19  C   LIG    1       24.191 -20.574   4.236  0.00  0.00    +0.005 A 
ENDBRANCH  13  14
ENDBRANCH   3  13
BRANCH  12  20
ATOM     20  C   LIG    1       27.312 -22.115   8.238  0.00  0.00    +0.145 C 
BRANCH  20  21
ATOM     21  C   LIG    1       28.266 -21.154   7.576  0.00  0.00    -0.030 A 
ATOM     22  C   LIG    1       27.843 -20.375   6.487  0.00  0.00    +0.005 A 
ATOM     23  C   LIG    1       28.710 -19.457   5.891  0.00  0.00    +0.000 A 
ATOM     24  C   LIG    1       30.005 -19.300   6.383  0.00  0.00    +0.000 A 
ATOM     25  C   LIG    1       30.434 -20.065   7.467  0.00  0.00    +0.000 A 
ATOM     26  C   LIG    1       29.569 -20.986   8.062  0.00  0.00    +0.005 A 
ENDBRANCH  20  21
ENDBRANCH  12  20
TORSDOF 4
ENDMDL
MODEL 3
REMARK VINA RESULT:      -8.2      1.582      2.209
REMARK  Name = *****
REMARK                            x       y       z     vdW  Elec       q    Type
REMARK                         _______ _______ _______ _____ _____    ______ ____
ROOT
ATOM      1  O   LIG    1       25.914 -23.252   8.465  0.00  0.00    -0.252 OA
ATOM      2  C   LIG    1       25.297 -22.473   7.758  0.00  0.00    +0.306 C 
ATOM      3  N   LIG    1       24.322 -22.797   6.807  0.00  0.00    -0.271 N 
ATOM      4  C   LIG    1       23.588 -21.590   6.433  0.00  0.00    +0.155 C 
ATOM      5  C   LIG    1       24.606 -20.483   6.719  0.00  0.00    +0.152 C 
ATOM      6  C   LIG    1       25.412 -20.238   5.440  0.00  0.00    +0.302 C 
ATOM      7  S   LIG    1       24.497 -20.832   3.973  0.00  0.00    -0.004 S 
ATOM      8  C   LIG    1       23.622 -19.285   3.570  0.00  0.00    +0.278 C 
ATOM      9  C   LIG    1       22.510 -19.095   4.579  0.00  0.00    +0.059 C 
ATOM     10  C   LIG    1       21.935 -20.479   4.816  0.00  0.00    +0.064 C 
ATOM     11  C   LIG    1       23.096 -21.466   4.993  0.00  0.00    +0.230 C 
ATOM     12  N   LIG    1       25.414 -21.085   7.769  0.00  0.00    -0.272 N 
ENDROOT
BRANCH   3  13
ATOM     13  C   LIG    1       23.778 -24.140   6.703  0.00  0.00    +0.145 C 
BRANCH  13  14
ATOM     14  C   LIG    1       24.735 -25.156   6.124  0.00  0.00    -0.030 A 
ATOM     15  C   LIG    1       25.497 -26.008   6.938  0.00  0.00    +0.005 A 
ATOM     16  C   LIG    1       26.364 -26.946   6.376  0.00  0.00    +0.000 A 
ATOM     17  C   LIG    1       26.460 -27.069   4.993  0.00  0.00    +0.000 A 
ATOM     18  C   LIG    1       25.682 -26.256   4.170  0.00  0.00    +0.000 A 
ATOM     19  C   LIG    1       24.823 -25.309   4.731  0.00  0.00    +0.005 A 
ENDBRANCH  13  14
ENDBRANCH   3  13
BRANCH  12  20
ATOM     20  C   LIG    1       26.380 -20.359   8.569  0.00  0.00    +0.145 C 
BRANCH  20  21
ATOM     21  C   LIG    1       27.755 -20.361   7.952  0.00  0.00    -0.030 A 
ATOM     22  C   LIG    1       28.091 -19.419   6.967  0.00  0.00    +0.005 A 
ATOM     23  C   LIG    1       29.373 -19.393   6.416  0.00  0.00    +0.000 A 
ATOM     24  C   LIG    1       30.337 -20.301   6.851  0.00  0.00    +0.000 A 
ATOM     25  C   LIG    1       30.016 -21.238   7.833  0.00  0.00    +0.000 A 
ATOM     26  C   LIG    1       28.733 -21.268   8.382  0.00  0.00    +0.005 A 
ENDBRANCH  20  21
ENDBRANCH  12  20
TORSDOF 4
ENDMDL
MODEL 4
REMARK VINA RESULT:      -7.6      6.495      9.934
REMARK  Name = *****
REMARK                            x       y       z     vdW  Elec       q    Type
REMARK                         _______ _______ _______ _____ _____    ______ ____
ROOT
ATOM      1  O   LIG    1       27.176 -28.963   9.687  0.00  0.00    -0.252 OA
ATOM      2  C   LIG    1       26.019 -29.331   9.795  0.00  0.00    +0.306 C 
ATOM      3  N   LIG    1       25.338 -29.617  10.985  0.00  0.00    -0.271 N 
ATOM      4  C   LIG    1       23.903 -29.683  10.719  0.00  0.00    +0.155 C 
ATOM      5  C   LIG    1       23.859 -30.066   9.238  0.00  0.00    +0.152 C 
ATOM      6  C   LIG    1       23.820 -31.595   9.144  0.00  0.00    +0.302 C 
ATOM      7  S   LIG    1       23.214 -32.325  10.707  0.00  0.00    -0.004 S 
ATOM      8  C   LIG    1       21.439 -32.378  10.297  0.00  0.00    +0.278 C 
ATOM      9  C   LIG    1       20.894 -30.968  10.376  0.00  0.00    +0.059 C 
ATOM     10  C   LIG    1       21.575 -30.336  11.576  0.00  0.00    +0.064 C 
ATOM     11  C   LIG    1       23.069 -30.677  11.524  0.00  0.00    +0.230 C 
ATOM     12  N   LIG    1       25.116 -29.519   8.751  0.00  0.00    -0.272 N 
ENDROOT
BRANCH   3  13
ATOM     13  C   LIG    1       25.908 -29.296  12.282  0.00  0.00    +0.145 C 
BRANCH  13  14
ATOM     14  C   LIG    1       25.668 -27.874  12.733  0.00  0.00    -0.030 A 
ATOM     15  C   LIG    1       24.457 -27.473  13.316  0.00  0.00    +0.005 A 
ATOM     16  C   LIG    1       24.266 -26.156  13.735  0.00  0.00    +0.000 A 
ATOM     17  C   LIG    1       25.294 -25.226  13.606  0.00  0.00    +0.000 A 
ATOM     18  C   LIG    1       26.517 -25.616  13.062  0.00  0.00    +0.000 A 
ATOM     19  C   LIG    1       26.704 -26.932  12.633  0.00  0.00    +0.005 A 
ENDBRANCH  13  14
ENDBRANCH   3  13
BRANCH  12  20
ATOM     20  C   LIG    1       25.462 -29.398   7.349  0.00  0.00    +0.145 C 
BRANCH  20  21
ATOM     21  C   LIG    1       25.262 -27.998   6.827  0.00  0.00    -0.030 A 
ATOM     22  C   LIG    1       26.125 -26.965   7.226  0.00  0.00    +0.005 A 
ATOM     23  C   LIG    1       25.968 -25.673   6.719  0.00  0.00    +0.000 A 
ATOM     24  C   LIG    1       24.954 -25.403   5.801  0.00  0.00    +0.000 A 
ATOM     25  C   LIG    1       24.095 -26.423   5.394  0.00  0.00    +0.000 A 
ATOM     26  C   LIG    1       24.248 -27.715   5.902  0.00  0.00    +0.005 A 
ENDBRANCH  20  21
ENDBRANCH  12  20
TORSDOF 4
ENDMDL
MODEL 5
REMARK VINA RESULT:      -7.4      2.544      5.319
REMARK  Name = *****
REMARK                            x       y       z     vdW  Elec       q    Type
REMARK                         _______ _______ _______ _____ _____    ______ ____
ROOT
ATOM      1  O   LIG    1       22.993 -24.484   6.646  0.00  0.00    -0.252 OA
ATOM      2  C   LIG    1       23.907 -23.677   6.637  0.00  0.00    +0.306 C 
ATOM      3  N   LIG    1       25.201 -23.871   7.134  0.00  0.00    -0.271 N 
ATOM      4  C   LIG    1       26.079 -22.818   6.629  0.00  0.00    +0.155 C 
ATOM      5  C   LIG    1       25.100 -21.673   6.362  0.00  0.00    +0.152 C 
ATOM      6  C   LIG    1       25.012 -20.818   7.631  0.00  0.00    +0.302 C 
ATOM      7  S   LIG    1       26.487 -21.066   8.682  0.00  0.00    -0.004 S 
ATOM      8  C   LIG    1       27.518 -19.727   8.000  0.00  0.00    +0.278 C 
ATOM      9  C   LIG    1       28.022 -20.164   6.642  0.00  0.00    +0.059 C 
ATOM     10  C   LIG    1       28.351 -21.639   6.786  0.00  0.00    +0.064 C 
ATOM     11  C   LIG    1       27.202 -22.323   7.537  0.00  0.00    +0.230 C 
ATOM     12  N   LIG    1       23.863 -22.393   6.100  0.00  0.00    -0.272 N 
ENDROOT
BRANCH   3  13
ATOM     13  C   LIG    1       25.667 -25.184   7.550  0.00  0.00    +0.145 C 
BRANCH  13  14
ATOM     14  C   LIG    1       25.461 -26.272   6.521  0.00  0.00    -0.030 A 
ATOM     15  C   LIG    1       26.176 -26.298   5.315  0.00  0.00    +0.005 A 
ATOM     16  C   LIG    1       25.975 -27.322   4.387  0.00  0.00    +0.000 A 
ATOM     17  C   LIG    1       25.081 -28.351   4.666  0.00  0.00    +0.000 A 
ATOM     18  C   LIG    1       24.389 -28.360   5.877  0.00  0.00    +0.000 A 
ATOM     19  C   LIG    1       24.582 -27.330   6.799  0.00  0.00    +0.005 A 
ENDBRANCH  13  14
ENDBRANCH   3  13
BRANCH  12  20
ATOM     20  C   LIG    1       22.667 -21.783   5.554  0.00  0.00    +0.145 C 
BRANCH  20  21
ATOM     21  C   LIG    1       22.952 -20.470   4.870  0.00  0.00    -0.030 A 
ATOM     22  C   LIG    1       22.206 -19.326   5.194  0.00  0.00    +0.005 A 
ATOM     23  C   LIG    1       22.488 -18.100   4.590  0.00  0.00    +0.000 A 
ATOM     24  C   LIG    1       23.524 -18.001   3.663  0.00  0.00    +0.000 A 
ATOM     25  C   LIG    1       24.275 -19.130   3.337  0.00  0.00    +0.000 A 
ATOM     26  C   LIG    1       23.993 -20.359   3.938  0.00  0.00    +0.005 A 
ENDBRANCH  20  21
ENDBRANCH  12  20
TORSDOF 4
ENDMDL
MODEL 6
REMARK VINA RESULT:      -7.2      5.654      9.295
REMARK  Name = *****
REMARK                            x       y       z     vdW  Elec       q    Type
REMARK                         _______ _______ _______ _____ _____    ______ ____
ROOT
ATOM      1  O   LIG    1       26.367 -27.783   8.222  0.00  0.00    -0.252 OA
ATOM      2  C   LIG    1       25.781 -28.724   7.716  0.00  0.00    +0.306 C 
ATOM      3  N   LIG    1       25.453 -29.937   8.333  0.00  0.00    -0.271 N 
ATOM      4  C   LIG    1       24.467 -30.645   7.520  0.00  0.00    +0.155 C 
ATOM      5  C   LIG    1       24.739 -30.095   6.118  0.00  0.00    +0.152 C 
ATOM      6  C   LIG    1       25.768 -31.007   5.442  0.00  0.00    +0.302 C 
ATOM      7  S   LIG    1       25.791 -32.656   6.232  0.00  0.00    -0.004 S 
ATOM      8  C   LIG    1       24.555 -33.469   5.169  0.00  0.00    +0.278 C 
ATOM      9  C   LIG    1       23.186 -32.953   5.557  0.00  0.00    +0.059 C 
ATOM     10  C   LIG    1       23.210 -32.835   7.069  0.00  0.00    +0.064 C 
ATOM     11  C   LIG    1       24.528 -32.170   7.486  0.00  0.00    +0.230 C 
ATOM     12  N   LIG    1       25.286 -28.779   6.415  0.00  0.00    -0.272 N 
ENDROOT
BRANCH   3  13
ATOM     13  C   LIG    1       25.609 -30.127   9.765  0.00  0.00    +0.145 C 
BRANCH  13  14
ATOM     14  C   LIG    1       24.366 -29.829  10.572  0.00  0.00    -0.030 A 
ATOM     15  C   LIG    1       23.114 -30.361  10.231  0.00  0.00    +0.005 A 
ATOM     16  C   LIG    1       21.984 -30.079  11.000  0.00  0.00    +0.000 A 
ATOM     17  C   LIG    1       22.095 -29.287  12.139  0.00  0.00    +0.000 A 
ATOM     18  C   LIG    1       23.339 -28.780  12.513  0.00  0.00    +0.000 A 
ATOM     19  C   LIG    1       24.467 -29.053  11.737  0.00  0.00    +0.005 A 
ENDBRANCH  13  14
ENDBRANCH   3  13
BRANCH  12  20
ATOM     20  C   LIG    1       25.490 -27.741   5.425  0.00  0.00    +0.145 C 
BRANCH  20  21
ATOM     21  C   LIG    1       25.167 -26.368   5.956  0.00  0.00    -0.030 A 
ATOM     22  C   LIG    1       26.200 -25.483   6.303  0.00  0.00    +0.005 A 
ATOM     23  C   LIG    1       25.909 -24.197   6.763  0.00  0.00    +0.000 A 
ATOM     24  C   LIG    1       24.583 -23.779   6.871  0.00  0.00    +0.000 A 
ATOM     25  C   LIG    1       23.550 -24.649   6.525  0.00  0.00    +0.000 A 
ATOM     26  C   LIG    1       23.838 -25.936   6.068  0.00  0.00    +0.005 A 
ENDBRANCH  20  21
ENDBRANCH  12  20
TORSDOF 4
ENDMDL
MODEL 7
REMARK VINA RESULT:      -7.2      1.655      6.083
REMARK  Name = *****
REMARK                            x       y       z     vdW  Elec       q    Type
REMARK                         _______ _______ _______ _____ _____    ______ ____
ROOT
ATOM      1  O   LIG    1       25.343 -22.854   8.773  0.00  0.00    -0.252 OA
ATOM      2  C   LIG    1       25.139 -22.360   7.677  0.00  0.00    +0.306 C 
ATOM      3  N   LIG    1       25.484 -21.068   7.263  0.00  0.00    -0.271 N 
ATOM      4  C   LIG    1       25.389 -20.983   5.807  0.00  0.00    +0.155 C 
ATOM      5  C   LIG    1       24.362 -22.070   5.480  0.00  0.00    +0.152 C 
ATOM      6  C   LIG    1       22.971 -21.426   5.483  0.00  0.00    +0.302 C 
ATOM      7  S   LIG    1       23.094 -19.619   5.235  0.00  0.00    -0.004 S 
ATOM      8  C   LIG    1       22.963 -19.598   3.418  0.00  0.00    +0.278 C 
ATOM      9  C   LIG    1       24.277 -20.084   2.845  0.00  0.00    +0.059 C 
ATOM     10  C   LIG    1       25.354 -19.482   3.728  0.00  0.00    +0.064 C 
ATOM     11  C   LIG    1       24.938 -19.660   5.193  0.00  0.00    +0.230 C 
ATOM     12  N   LIG    1       24.540 -22.993   6.590  0.00  0.00    -0.272 N 
ENDROOT
BRANCH   3  13
ATOM     13  C   LIG    1       26.338 -20.214   8.070  0.00  0.00    +0.145 C 
BRANCH  13  14
ATOM     14  C   LIG    1       27.802 -20.267   7.697  0.00  0.00    -0.030 A 
ATOM     15  C   LIG    1       28.367 -19.374   6.774  0.00  0.00    +0.005 A 
ATOM     16  C   LIG    1       29.725 -19.438   6.457  0.00  0.00    +0.000 A 
ATOM     17  C   LIG    1       30.544 -20.374   7.081  0.00  0.00    +0.000 A 
ATOM     18  C   LIG    1       30.007 -21.244   8.029  0.00  0.00    +0.000 A 
ATOM     19  C   LIG    1       28.646 -21.188   8.337  0.00  0.00    +0.005 A 
ENDBRANCH  13  14
ENDBRANCH   3  13
BRANCH  12  20
ATOM     20  C   LIG    1       23.971 -24.325   6.640  0.00  0.00    +0.145 C 
BRANCH  20  21
ATOM     21  C   LIG    1       24.909 -25.371   6.093  0.00  0.00    -0.030 A 
ATOM     22  C   LIG    1       25.767 -26.072   6.955  0.00  0.00    +0.005 A 
ATOM     23  C   LIG    1       26.613 -27.067   6.461  0.00  0.00    +0.000 A 
ATOM     24  C   LIG    1       26.602 -27.379   5.102  0.00  0.00    +0.000 A 
ATOM     25  C   LIG    1       25.750 -26.692   4.238  0.00  0.00    +0.000 A 
ATOM     26  C   LIG    1       24.906 -25.695   4.730  0.00  0.00    +0.005 A 
ENDBRANCH  20  21
ENDBRANCH  12  20
TORSDOF 4
ENDMDL
MODEL 8
REMARK VINA RESULT:      -6.6      1.934      6.383
REMARK  Name = *****
REMARK                            x       y       z     vdW  Elec       q    Type
REMARK                         _______ _______ _______ _____ _____    ______ ____
ROOT
ATOM      1  O   LIG    1       24.814 -20.713   7.329  0.00  0.00    -0.252 OA
ATOM      2  C   LIG    1       24.754 -21.916   7.140  0.00  0.00    +0.306 C 
ATOM      3  N   LIG    1       25.730 -22.865   7.466  0.00  0.00    -0.271 N 
ATOM      4  C   LIG    1       25.147 -24.203   7.404  0.00  0.00    +0.155 C 
ATOM      5  C   LIG    1       23.999 -24.016   6.409  0.00  0.00    +0.152 C 
ATOM      6  C   LIG    1       24.533 -24.319   5.005  0.00  0.00    +0.302 C 
ATOM      7  S   LIG    1       26.037 -25.355   5.094  0.00  0.00    -0.004 S 
ATOM      8  C   LIG    1       25.233 -26.987   5.006  0.00  0.00    +0.278 C 
ATOM      9  C   LIG    1       24.581 -27.265   6.342  0.00  0.00    +0.059 C 
ATOM     10  C   LIG    1       25.548 -26.737   7.385  0.00  0.00    +0.064 C 
ATOM     11  C   LIG    1       26.037 -25.353   6.939  0.00  0.00    +0.230 C 
ATOM     12  N   LIG    1       23.681 -22.607   6.581  0.00  0.00    -0.272 N 
ENDROOT
BRANCH   3  13
ATOM     13  C   LIG    1       26.882 -22.521   8.283  0.00  0.00    +0.145 C 
BRANCH  13  14
ATOM     14  C   LIG    1       27.842 -21.555   7.629  0.00  0.00    -0.030 A 
ATOM     15  C   LIG    1       27.488 -20.807   6.496  0.00  0.00    +0.005 A 
ATOM     16  C   LIG    1       28.391 -19.912   5.920  0.00  0.00    +0.000 A 
ATOM     17  C   LIG    1       29.649 -19.728   6.485  0.00  0.00    +0.000 A 
ATOM     18  C   LIG    1       30.004 -20.436   7.633  0.00  0.00    +0.000 A 
ATOM     19  C   LIG    1       29.105 -21.339   8.203  0.00  0.00    +0.005 A 
ENDBRANCH  13  14
ENDBRANCH   3  13
BRANCH  12  20
ATOM     20  C   LIG    1       22.499 -21.968   6.040  0.00  0.00    +0.145 C 
BRANCH  20  21
ATOM     21  C   LIG    1       22.834 -20.810   5.135  0.00  0.00    -0.030 A 
ATOM     22  C   LIG    1       22.212 -19.565   5.319  0.00  0.00    +0.005 A 
ATOM     23  C   LIG    1       22.543 -18.479   4.506  0.00  0.00    +0.000 A 
ATOM     24  C   LIG    1       23.505 -18.623   3.508  0.00  0.00    +0.000 A 
ATOM     25  C   LIG    1       24.133 -19.854   3.319  0.00  0.00    +0.000 A 
ATOM     26  C   LIG    1       23.801 -20.943   4.129  0.00  0.00    +0.005 A 
ENDBRANCH  20  21
ENDBRANCH  12  20
TORSDOF 4
ENDMDL
MODEL 9
REMARK VINA RESULT:      -6.5      7.352     10.708
REMARK  Name = *****
REMARK                            x       y       z     vdW  Elec       q    Type
REMARK                         _______ _______ _______ _____ _____    ______ ____
ROOT
ATOM      1  O   LIG    1       23.060 -30.182   9.362  0.00  0.00    -0.252 OA
ATOM      2  C   LIG    1       24.003 -30.166  10.134  0.00  0.00    +0.306 C 
ATOM      3  N   LIG    1       23.943 -30.056  11.529  0.00  0.00    -0.271 N 
ATOM      4  C   LIG    1       25.236 -30.422  12.102  0.00  0.00    +0.155 C 
ATOM      5  C   LIG    1       26.203 -30.114  10.956  0.00  0.00    +0.152 C 
ATOM      6  C   LIG    1       26.682 -28.667  11.115  0.00  0.00    +0.302 C 
ATOM      7  S   LIG    1       26.468 -28.100  12.840  0.00  0.00    -0.004 S 
ATOM      8  C   LIG    1       28.105 -28.581  13.476  0.00  0.00    +0.278 C 
ATOM      9  C   LIG    1       28.124 -30.085  13.640  0.00  0.00    +0.059 C 
ATOM     10  C   LIG    1       26.752 -30.454  14.171  0.00  0.00    +0.064 C 
ATOM     11  C   LIG    1       25.695 -29.692  13.362  0.00  0.00    +0.230 C 
ATOM     12  N   LIG    1       25.348 -30.282   9.791  0.00  0.00    -0.272 N 
ENDROOT
BRANCH   3  13
ATOM     13  C   LIG    1       22.682 -30.156  12.245  0.00  0.00    +0.145 C 
BRANCH  13  14
ATOM     14  C   LIG    1       22.083 -28.827  12.640  0.00  0.00    -0.030 A 
ATOM     15  C   LIG    1       20.704 -28.666  12.847  0.00  0.00    +0.005 A 
ATOM     16  C   LIG    1       20.178 -27.429  13.224  0.00  0.00    +0.000 A 
ATOM     17  C   LIG    1       21.025 -26.343  13.428  0.00  0.00    +0.000 A 
ATOM     18  C   LIG    1       22.400 -26.495  13.263  0.00  0.00    +0.000 A 
ATOM     19  C   LIG    1       22.926 -27.730  12.875  0.00  0.00    +0.005 A 
ENDBRANCH  13  14
ENDBRANCH   3  13
BRANCH  12  20
ATOM     20  C   LIG    1       25.834 -30.340   8.427  0.00  0.00    +0.145 C 
BRANCH  20  21
ATOM     21  C   LIG    1       25.463 -29.114   7.632  0.00  0.00    -0.030 A 
ATOM     22  C   LIG    1       26.118 -27.894   7.865  0.00  0.00    +0.005 A 
ATOM     23  C   LIG    1       25.804 -26.763   7.109  0.00  0.00    +0.000 A 
ATOM     24  C   LIG    1       24.839 -26.841   6.106  0.00  0.00    +0.000 A 
ATOM     25  C   LIG    1       24.186 -28.049   5.863  0.00  0.00    +0.000 A 
ATOM     26  C   LIG    1       24.496 -29.181   6.620  0.00  0.00    +0.005 A 
ENDBRANCH  20  21
ENDBRANCH  12  20
TORSDOF 4
ENDMDL
