MODEL 1
REMARK VINA RESULT:      -9.6      0.000      0.000
REMARK  Name = *****
REMARK                            x       y       z     vdW  Elec       q    Type
REMARK                         _______ _______ _______ _____ _____    ______ ____
ROOT
ATOM      1  C   LIG    1       30.164 -19.739   7.722  0.00  0.00    -0.045 C 
ATOM      2  C   LIG    1       28.930 -20.420   7.783  0.00  0.00    +0.014 C 
ATOM      3  C   LIG    1       27.980 -20.257   6.749  0.00  0.00    +0.003 C 
ATOM      4  C   LIG    1       28.322 -19.429   5.679  0.00  0.00    +0.047 C 
ATOM      5  N   LIG    1       27.273 -19.449   4.800  0.00  0.00    -0.360 NA
ATOM      6  H   LIG    1       27.246 -18.944   3.925  0.00  0.00    +0.165 HD
ATOM      7  C   LIG    1       26.273 -20.248   5.278  0.00  0.00    +0.087 C 
ATOM      8  C   LIG    1       29.534 -18.737   5.597  0.00  0.00    +0.026 C 
ATOM      9  C   LIG    1       26.643 -20.754   6.510  0.00  0.00    -0.019 C 
ATOM     10  C   LIG    1       30.445 -18.900   6.639  0.00  0.00    +0.006 C 
ENDROOT
BRANCH   9  11
ATOM     11  C   LIG    1       25.829 -21.644   7.436  0.00  0.00    +0.023 C 
ATOM     12  C   LIG    1       24.398 -21.153   7.709  0.00  0.00    +0.023 C 
ATOM     13  C   LIG    1       23.404 -21.459   6.582  0.00  0.00    +0.085 C 
ATOM     14  N   LIG    1       23.444 -22.823   6.050  0.00  0.00    -0.305 NA
ATOM     15  C   LIG    1       22.620 -23.745   6.820  0.00  0.00    +0.105 C 
ATOM     16  C   LIG    1       24.806 -23.318   5.821  0.00  0.00    +0.085 C 
ATOM     17  C   LIG    1       25.774 -23.107   6.986  0.00  0.00    +0.023 C 
ENDBRANCH   9  11
BRANCH   1  18
ATOM     18  C   LIG    1       31.148 -19.830   8.864  0.00  0.00    +0.059 C 
BRANCH  18  19
ATOM     19  C   LIG    1       31.847 -18.492   9.018  0.00  0.00    +0.190 C 
BRANCH  19  20
ATOM     20  S   LIG    1       31.118 -17.513  10.310  0.00  0.00    +0.029 S 
ATOM     21  O   LIG    1       30.240 -16.525   9.734  0.00  0.00    -0.158 OA
ATOM     22  O   LIG    1       30.678 -18.389  11.380  0.00  0.00    -0.158 OA
BRANCH  20  24
ATOM     23  C   LIG    1       32.994 -15.594  10.093  0.00  0.00    +0.127 C 
ATOM     24  N   LIG    1       32.472 -16.698  10.903  0.00  0.00    -0.198 NA
ATOM     25  H   LIG    1       32.348 -16.485  11.895  0.00  0.00    +0.147 HD
ENDBRANCH  20  24
ENDBRANCH  19  20
ENDBRANCH  18  19
ENDBRANCH   1  18
TORSDOF 5
ENDMDL
MODEL 2
REMARK VINA RESULT:      -9.5      3.432      5.383
REMARK  Name = *****
REMARK                            x       y       z     vdW  Elec       q    Type
REMARK                         _______ _______ _______ _____ _____    ______ ____
ROOT
ATOM      1  C   LIG    1       26.152 -21.642   7.683  0.00  0.00    -0.045 C 
ATOM      2  C   LIG    1       26.313 -22.982   7.274  0.00  0.00    +0.014 C 
ATOM      3  C   LIG    1       25.186 -23.750   6.905  0.00  0.00    +0.003 C 
ATOM      4  C   LIG    1       23.937 -23.128   6.943  0.00  0.00    +0.047 C 
ATOM      5  N   LIG    1       23.014 -24.047   6.522  0.00  0.00    -0.360 NA
ATOM      6  H   LIG    1       22.023 -23.870   6.440  0.00  0.00    +0.165 HD
ATOM      7  C   LIG    1       23.628 -25.232   6.231  0.00  0.00    +0.087 C 
ATOM      8  C   LIG    1       23.747 -21.804   7.351  0.00  0.00    +0.026 C 
ATOM      9  C   LIG    1       24.982 -25.118   6.485  0.00  0.00    -0.019 C 
ATOM     10  C   LIG    1       24.874 -21.075   7.728  0.00  0.00    +0.006 C 
ENDROOT
BRANCH   9  11
ATOM     11  C   LIG    1       26.049 -26.195   6.357  0.00  0.00    +0.023 C 
ATOM     12  C   LIG    1       25.980 -27.300   7.423  0.00  0.00    +0.023 C 
ATOM     13  C   LIG    1       24.910 -28.365   7.155  0.00  0.00    +0.085 C 
ATOM     14  N   LIG    1       24.863 -28.891   5.789  0.00  0.00    -0.305 NA
ATOM     15  C   LIG    1       25.793 -29.993   5.584  0.00  0.00    +0.105 C 
ATOM     16  C   LIG    1       24.966 -27.849   4.760  0.00  0.00    +0.085 C 
ATOM     17  C   LIG    1       26.100 -26.844   4.971  0.00  0.00    +0.023 C 
ENDBRANCH   9  11
BRANCH   1  18
ATOM     18  C   LIG    1       27.335 -20.839   8.169  0.00  0.00    +0.059 C 
BRANCH  18  19
ATOM     19  C   LIG    1       28.561 -21.240   7.372  0.00  0.00    +0.190 C 
BRANCH  19  20
ATOM     20  S   LIG    1       29.897 -20.088   7.594  0.00  0.00    +0.029 S 
ATOM     21  O   LIG    1       30.262 -19.516   6.322  0.00  0.00    -0.158 OA
ATOM     22  O   LIG    1       29.620 -19.255   8.750  0.00  0.00    -0.158 OA
BRANCH  20  24
ATOM     23  C   LIG    1       30.922 -21.952   9.245  0.00  0.00    +0.127 C 
ATOM     24  N   LIG    1       31.147 -21.124   8.056  0.00  0.00    -0.198 NA
ATOM     25  H   LIG    1       31.507 -21.626   7.243  0.00  0.00    +0.147 HD
ENDBRANCH  20  24
ENDBRANCH  19  20
ENDBRANCH  18  19
ENDBRANCH   1  18
TORSDOF 5
ENDMDL
MODEL 3
REMARK VINA RESULT:      -9.0      2.015      2.802
REMARK  Name = *****
REMARK                            x       y       z     vdW  Elec       q    Type
REMARK                         _______ _______ _______ _____ _____    ______ ____
ROOT
ATOM      1  C   LIG    1       28.365 -20.493   6.783  0.00  0.00    -0.045 C 
ATOM      2  C   LIG    1       27.380 -21.483   6.983  0.00  0.00    +0.014 C 
ATOM      3  C   LIG    1       26.196 -21.470   6.211  0.00  0.00    +0.003 C 
ATOM      4  C   LIG    1       26.062 -20.469   5.248  0.00  0.00    +0.047 C 
ATOM      5  N   LIG    1       24.865 -20.675   4.615  0.00  0.00    -0.360 NA
ATOM      6  H   LIG    1       24.508 -20.103   3.862  0.00  0.00    +0.165 HD
ATOM      7  C   LIG    1       24.230 -21.760   5.148  0.00  0.00    +0.087 C 
ATOM      8  C   LIG    1       27.017 -19.471   5.034  0.00  0.00    +0.026 C 
ATOM      9  C   LIG    1       24.999 -22.279   6.174  0.00  0.00    -0.019 C 
ATOM     10  C   LIG    1       28.167 -19.496   5.822  0.00  0.00    +0.006 C 
ENDROOT
BRANCH   9  11
ATOM     11  C   LIG    1       24.669 -23.452   7.085  0.00  0.00    +0.023 C 
ATOM     12  C   LIG    1       23.436 -24.268   6.664  0.00  0.00    +0.023 C 
ATOM     13  C   LIG    1       23.700 -25.260   5.525  0.00  0.00    +0.085 C 
ATOM     14  N   LIG    1       24.905 -26.082   5.662  0.00  0.00    -0.305 NA
ATOM     15  C   LIG    1       24.672 -27.284   6.451  0.00  0.00    +0.105 C 
ATOM     16  C   LIG    1       26.081 -25.321   6.101  0.00  0.00    +0.085 C 
ATOM     17  C   LIG    1       25.846 -24.407   7.304  0.00  0.00    +0.023 C 
ENDBRANCH   9  11
BRANCH   1  18
ATOM     18  C   LIG    1       29.590 -20.439   7.664  0.00  0.00    +0.059 C 
BRANCH  18  19
ATOM     19  C   LIG    1       30.352 -19.161   7.370  0.00  0.00    +0.190 C 
BRANCH  19  20
ATOM     20  S   LIG    1       31.369 -18.670   8.742  0.00  0.00    +0.029 S 
ATOM     21  O   LIG    1       32.047 -19.822   9.282  0.00  0.00    -0.158 OA
ATOM     22  O   LIG    1       32.090 -17.460   8.391  0.00  0.00    -0.158 OA
BRANCH  20  24
ATOM     23  C   LIG    1       30.673 -17.618  11.122  0.00  0.00    +0.127 C 
ATOM     24  N   LIG    1       30.198 -18.204   9.865  0.00  0.00    -0.198 NA
ATOM     25  H   LIG    1       29.453 -17.681   9.400  0.00  0.00    +0.147 HD
ENDBRANCH  20  24
ENDBRANCH  19  20
ENDBRANCH  18  19
ENDBRANCH   1  18
TORSDOF 5
ENDMDL
MODEL 4
REMARK VINA RESULT:      -8.6      3.818      7.917
REMARK  Name = *****
REMARK                            x       y       z     vdW  Elec       q    Type
REMARK                         _______ _______ _______ _____ _____    ______ ____
ROOT
ATOM      1  C   LIG    1       26.009 -20.819   7.121  0.00  0.00    -0.045 C 
ATOM      2  C   LIG    1       27.185 -20.405   7.782  0.00  0.00    +0.014 C 
ATOM      3  C   LIG    1       28.206 -19.743   7.064  0.00  0.00    +0.003 C 
ATOM      4  C   LIG    1       27.990 -19.502   5.706  0.00  0.00    +0.047 C 
ATOM      5  N   LIG    1       29.088 -18.832   5.235  0.00  0.00    -0.360 NA
ATOM      6  H   LIG    1       29.204 -18.519   4.281  0.00  0.00    +0.165 HD
ATOM      7  C   LIG    1       29.996 -18.650   6.239  0.00  0.00    +0.087 C 
ATOM      8  C   LIG    1       26.840 -19.907   5.023  0.00  0.00    +0.026 C 
ATOM      9  C   LIG    1       29.515 -19.229   7.399  0.00  0.00    -0.019 C 
ATOM     10  C   LIG    1       25.857 -20.576   5.752  0.00  0.00    +0.006 C 
ENDROOT
BRANCH   9  11
ATOM     11  C   LIG    1       30.204 -19.319   8.752  0.00  0.00    +0.023 C 
ATOM     12  C   LIG    1       31.740 -19.288   8.696  0.00  0.00    +0.023 C 
ATOM     13  C   LIG    1       32.333 -17.885   8.517  0.00  0.00    +0.085 C 
ATOM     14  N   LIG    1       31.774 -16.842   9.381  0.00  0.00    -0.305 NA
ATOM     15  C   LIG    1       32.430 -16.787  10.680  0.00  0.00    +0.105 C 
ATOM     16  C   LIG    1       30.310 -16.885   9.473  0.00  0.00    +0.085 C 
ATOM     17  C   LIG    1       29.722 -18.268   9.756  0.00  0.00    +0.023 C 
ENDBRANCH   9  11
BRANCH   1  18
ATOM     18  C   LIG    1       24.953 -21.610   7.854  0.00  0.00    +0.059 C 
BRANCH  18  19
ATOM     19  C   LIG    1       24.039 -22.269   6.839  0.00  0.00    +0.190 C 
BRANCH  19  20
ATOM     20  S   LIG    1       24.410 -23.997   6.643  0.00  0.00    +0.029 S 
ATOM     21  O   LIG    1       25.578 -24.335   7.418  0.00  0.00    -0.158 OA
ATOM     22  O   LIG    1       23.181 -24.762   6.747  0.00  0.00    -0.158 OA
BRANCH  20  24
ATOM     23  C   LIG    1       25.166 -25.368   4.452  0.00  0.00    +0.127 C 
ATOM     24  N   LIG    1       24.854 -24.051   5.015  0.00  0.00    -0.198 NA
ATOM     25  H   LIG    1       24.215 -23.483   4.457  0.00  0.00    +0.147 HD
ENDBRANCH  20  24
ENDBRANCH  19  20
ENDBRANCH  18  19
ENDBRANCH   1  18
TORSDOF 5
ENDMDL
MODEL 5
REMARK VINA RESULT:      -8.5      4.667      8.456
REMARK  Name = *****
REMARK                            x       y       z     vdW  Elec       q    Type
REMARK                         _______ _______ _______ _____ _____    ______ ____
ROOT
ATOM      1  C   LIG    1       24.574 -23.976   6.165  0.00  0.00    -0.045 C 
ATOM      2  C   LIG    1       25.834 -23.371   6.359  0.00  0.00    +0.014 C 
ATOM      3  C   LIG    1       25.941 -22.194   7.134  0.00  0.00    +0.003 C 
ATOM      4  C   LIG    1       24.773 -21.684   7.704  0.00  0.00    +0.047 C 
ATOM      5  N   LIG    1       25.125 -20.574   8.423  0.00  0.00    -0.360 NA
ATOM      6  H   LIG    1       24.480 -20.003   8.952  0.00  0.00    +0.165 HD
ATOM      7  C   LIG    1       26.469 -20.352   8.321  0.00  0.00    +0.087 C 
ATOM      8  C   LIG    1       23.512 -22.259   7.522  0.00  0.00    +0.026 C 
ATOM      9  C   LIG    1       27.028 -21.313   7.498  0.00  0.00    -0.019 C 
ATOM     10  C   LIG    1       23.431 -23.409   6.737  0.00  0.00    +0.006 C 
ENDROOT
BRANCH   9  11
ATOM     11  C   LIG    1       28.478 -21.433   7.057  0.00  0.00    +0.023 C 
ATOM     12  C   LIG    1       28.903 -20.442   5.961  0.00  0.00    +0.023 C 
ATOM     13  C   LIG    1       29.204 -19.029   6.475  0.00  0.00    +0.085 C 
ATOM     14  N   LIG    1       30.050 -18.952   7.668  0.00  0.00    -0.305 NA
ATOM     15  C   LIG    1       31.470 -18.972   7.346  0.00  0.00    +0.105 C 
ATOM     16  C   LIG    1       29.679 -19.920   8.707  0.00  0.00    +0.085 C 
ATOM     17  C   LIG    1       29.479 -21.353   8.213  0.00  0.00    +0.023 C 
ENDBRANCH   9  11
BRANCH   1  18
ATOM     18  C   LIG    1       24.432 -25.179   5.263  0.00  0.00    +0.059 C 
BRANCH  18  19
ATOM     19  C   LIG    1       24.333 -26.427   6.119  0.00  0.00    +0.190 C 
BRANCH  19  20
ATOM     20  S   LIG    1       25.918 -27.202   6.339  0.00  0.00    +0.029 S 
ATOM     21  O   LIG    1       26.876 -26.614   5.436  0.00  0.00    -0.158 OA
ATOM     22  O   LIG    1       26.191 -27.332   7.758  0.00  0.00    -0.158 OA
BRANCH  20  24
ATOM     23  C   LIG    1       24.193 -29.189   5.767  0.00  0.00    +0.127 C 
ATOM     24  N   LIG    1       25.596 -28.763   5.784  0.00  0.00    -0.198 NA
ATOM     25  H   LIG    1       26.112 -28.943   4.921  0.00  0.00    +0.147 HD
ENDBRANCH  20  24
ENDBRANCH  19  20
ENDBRANCH  18  19
ENDBRANCH   1  18
TORSDOF 5
ENDMDL
MODEL 6
REMARK VINA RESULT:      -7.9      6.637      9.364
REMARK  Name = *****
REMARK                            x       y       z     vdW  Elec       q    Type
REMARK                         _______ _______ _______ _____ _____    ______ ____
ROOT
ATOM      1  C   LIG    1       25.587 -25.431   6.356  0.00  0.00    -0.045 C 
ATOM      2  C   LIG    1       25.502 -26.555   7.204  0.00  0.00    +0.014 C 
ATOM      3  C   LIG    1       25.252 -27.835   6.660  0.00  0.00    +0.003 C 
ATOM      4  C   LIG    1       25.120 -27.935   5.274  0.00  0.00    +0.047 C 
ATOM      5  N   LIG    1       24.916 -29.257   4.982  0.00  0.00    -0.360 NA
ATOM      6  H   LIG    1       24.794 -29.627   4.050  0.00  0.00    +0.165 HD
ATOM      7  C   LIG    1       24.900 -29.997   6.130  0.00  0.00    +0.087 C 
ATOM      8  C   LIG    1       25.192 -26.838   4.411  0.00  0.00    +0.026 C 
ATOM      9  C   LIG    1       25.071 -29.157   7.216  0.00  0.00    -0.019 C 
ATOM     10  C   LIG    1       25.420 -25.584   4.975  0.00  0.00    +0.006 C 
ENDROOT
BRANCH   9  11
ATOM     11  C   LIG    1       25.069 -29.527   8.691  0.00  0.00    +0.023 C 
ATOM     12  C   LIG    1       23.893 -30.414   9.131  0.00  0.00    +0.023 C 
ATOM     13  C   LIG    1       24.061 -31.898   8.785  0.00  0.00    +0.085 C 
ATOM     14  N   LIG    1       25.365 -32.483   9.108  0.00  0.00    -0.305 NA
ATOM     15  C   LIG    1       25.438 -32.953  10.485  0.00  0.00    +0.105 C 
ATOM     16  C   LIG    1       26.496 -31.629   8.727  0.00  0.00    +0.085 C 
ATOM     17  C   LIG    1       26.377 -30.168   9.163  0.00  0.00    +0.023 C 
ENDBRANCH   9  11
BRANCH   1  18
ATOM     18  C   LIG    1       25.759 -24.045   6.931  0.00  0.00    +0.059 C 
BRANCH  18  19
ATOM     19  C   LIG    1       25.003 -23.056   6.066  0.00  0.00    +0.190 C 
BRANCH  19  20
ATOM     20  S   LIG    1       23.391 -22.700   6.725  0.00  0.00    +0.029 S 
ATOM     21  O   LIG    1       22.615 -23.913   6.792  0.00  0.00    -0.158 OA
ATOM     22  O   LIG    1       23.529 -21.822   7.873  0.00  0.00    -0.158 OA
BRANCH  20  24
ATOM     23  C   LIG    1       22.811 -20.297   5.657  0.00  0.00    +0.127 C 
ATOM     24  N   LIG    1       22.737 -21.752   5.491  0.00  0.00    -0.198 NA
ATOM     25  H   LIG    1       23.043 -22.099   4.581  0.00  0.00    +0.147 HD
ENDBRANCH  20  24
ENDBRANCH  19  20
ENDBRANCH  18  19
ENDBRANCH   1  18
TORSDOF 5
ENDMDL
MODEL 7
REMARK VINA RESULT:      -7.6      6.107      8.638
REMARK  Name = *****
REMARK                            x       y       z     vdW  Elec       q    Type
REMARK                         _______ _______ _______ _____ _____    ______ ____
ROOT
ATOM      1  C   LIG    1       25.674 -25.250   6.422  0.00  0.00    -0.045 C 
ATOM      2  C   LIG    1       25.581 -26.404   7.229  0.00  0.00    +0.014 C 
ATOM      3  C   LIG    1       25.219 -27.643   6.654  0.00  0.00    +0.003 C 
ATOM      4  C   LIG    1       24.985 -27.675   5.278  0.00  0.00    +0.047 C 
ATOM      5  N   LIG    1       24.683 -28.969   4.949  0.00  0.00    -0.360 NA
ATOM      6  H   LIG    1       24.475 -29.290   4.014  0.00  0.00    +0.165 HD
ATOM      7  C   LIG    1       24.704 -29.756   6.065  0.00  0.00    +0.087 C 
ATOM      8  C   LIG    1       25.062 -26.547   4.456  0.00  0.00    +0.026 C 
ATOM      9  C   LIG    1       24.999 -28.976   7.168  0.00  0.00    -0.019 C 
ATOM     10  C   LIG    1       25.402 -25.333   5.053  0.00  0.00    +0.006 C 
ENDROOT
BRANCH   9  11
ATOM     11  C   LIG    1       25.077 -29.410   8.623  0.00  0.00    +0.023 C 
ATOM     12  C   LIG    1       23.920 -30.307   9.092  0.00  0.00    +0.023 C 
ATOM     13  C   LIG    1       24.055 -31.776   8.674  0.00  0.00    +0.085 C 
ATOM     14  N   LIG    1       25.370 -32.383   8.896  0.00  0.00    -0.305 NA
ATOM     15  C   LIG    1       25.517 -32.913  10.245  0.00  0.00    +0.105 C 
ATOM     16  C   LIG    1       26.485 -31.521   8.488  0.00  0.00    +0.085 C 
ATOM     17  C   LIG    1       26.405 -30.079   8.992  0.00  0.00    +0.023 C 
ENDBRANCH   9  11
BRANCH   1  18
ATOM     18  C   LIG    1       25.967 -23.904   7.039  0.00  0.00    +0.059 C 
BRANCH  18  19
ATOM     19  C   LIG    1       24.718 -23.046   6.964  0.00  0.00    +0.190 C 
BRANCH  19  20
ATOM     20  S   LIG    1       24.936 -21.490   7.795  0.00  0.00    +0.029 S 
ATOM     21  O   LIG    1       23.706 -20.739   7.751  0.00  0.00    -0.158 OA
ATOM     22  O   LIG    1       25.647 -21.711   9.041  0.00  0.00    -0.158 OA
BRANCH  20  24
ATOM     23  C   LIG    1       25.604 -20.502   5.381  0.00  0.00    +0.127 C 
ATOM     24  N   LIG    1       26.032 -20.722   6.766  0.00  0.00    -0.198 NA
ATOM     25  H   LIG    1       26.436 -19.905   7.228  0.00  0.00    +0.147 HD
ENDBRANCH  20  24
ENDBRANCH  19  20
ENDBRANCH  18  19
ENDBRANCH   1  18
TORSDOF 5
ENDMDL
MODEL 8
REMARK VINA RESULT:      -7.3      4.337      7.872
REMARK  Name = *****
REMARK                            x       y       z     vdW  Elec       q    Type
REMARK                         _______ _______ _______ _____ _____    ______ ____
ROOT
ATOM      1  C   LIG    1       24.877 -22.214   6.115  0.00  0.00    -0.045 C 
ATOM      2  C   LIG    1       26.197 -21.796   6.386  0.00  0.00    +0.014 C 
ATOM      3  C   LIG    1       26.733 -20.669   5.725  0.00  0.00    +0.003 C 
ATOM      4  C   LIG    1       25.906 -19.990   4.828  0.00  0.00    +0.047 C 
ATOM      5  N   LIG    1       26.623 -18.930   4.340  0.00  0.00    -0.360 NA
ATOM      6  H   LIG    1       26.270 -18.257   3.674  0.00  0.00    +0.165 HD
ATOM      7  C   LIG    1       27.876 -18.919   4.882  0.00  0.00    +0.087 C 
ATOM      8  C   LIG    1       24.598 -20.385   4.535  0.00  0.00    +0.026 C 
ATOM      9  C   LIG    1       28.016 -20.003   5.730  0.00  0.00    -0.019 C 
ATOM     10  C   LIG    1       24.100 -21.513   5.187  0.00  0.00    +0.006 C 
ENDROOT
BRANCH   9  11
ATOM     11  C   LIG    1       29.252 -20.423   6.510  0.00  0.00    +0.023 C 
ATOM     12  C   LIG    1       30.425 -19.432   6.442  0.00  0.00    +0.023 C 
ATOM     13  C   LIG    1       30.280 -18.223   7.374  0.00  0.00    +0.085 C 
ATOM     14  N   LIG    1       29.870 -18.523   8.747  0.00  0.00    -0.305 NA
ATOM     15  C   LIG    1       30.999 -18.856   9.605  0.00  0.00    +0.105 C 
ATOM     16  C   LIG    1       28.775 -19.498   8.828  0.00  0.00    +0.085 C 
ATOM     17  C   LIG    1       28.967 -20.755   7.977  0.00  0.00    +0.023 C 
ENDBRANCH   9  11
BRANCH   1  18
ATOM     18  C   LIG    1       24.325 -23.471   6.743  0.00  0.00    +0.059 C 
BRANCH  18  19
ATOM     19  C   LIG    1       25.456 -24.462   6.936  0.00  0.00    +0.190 C 
BRANCH  19  20
ATOM     20  S   LIG    1       25.514 -25.660   5.623  0.00  0.00    +0.029 S 
ATOM     21  O   LIG    1       24.995 -25.077   4.411  0.00  0.00    -0.158 OA
ATOM     22  O   LIG    1       26.797 -26.337   5.652  0.00  0.00    -0.158 OA
BRANCH  20  24
ATOM     23  C   LIG    1       24.543 -28.170   5.700  0.00  0.00    +0.127 C 
ATOM     24  N   LIG    1       24.380 -26.788   6.162  0.00  0.00    -0.198 NA
ATOM     25  H   LIG    1       24.231 -26.684   7.167  0.00  0.00    +0.147 HD
ENDBRANCH  20  24
ENDBRANCH  19  20
ENDBRANCH  18  19
ENDBRANCH   1  18
TORSDOF 5
ENDMDL
MODEL 9
REMARK VINA RESULT:      -7.3      2.102      3.253
REMARK  Name = *****
REMARK                            x       y       z     vdW  Elec       q    Type
REMARK                         _______ _______ _______ _____ _____    ______ ____
ROOT
ATOM      1  C   LIG    1       28.562 -19.847   6.761  0.00  0.00    -0.045 C 
ATOM      2  C   LIG    1       27.427 -20.014   5.940  0.00  0.00    +0.014 C 
ATOM      3  C   LIG    1       26.536 -21.086   6.173  0.00  0.00    +0.003 C 
ATOM      4  C   LIG    1       26.814 -21.938   7.244  0.00  0.00    +0.047 C 
ATOM      5  N   LIG    1       25.811 -22.869   7.291  0.00  0.00    -0.360 NA
ATOM      6  H   LIG    1       25.748 -23.611   7.974  0.00  0.00    +0.165 HD
ATOM      7  C   LIG    1       24.916 -22.648   6.284  0.00  0.00    +0.087 C 
ATOM      8  C   LIG    1       27.935 -21.801   8.068  0.00  0.00    +0.026 C 
ATOM      9  C   LIG    1       25.335 -21.567   5.530  0.00  0.00    -0.019 C 
ATOM     10  C   LIG    1       28.808 -20.746   7.804  0.00  0.00    +0.006 C 
ENDROOT
BRANCH   9  11
ATOM     11  C   LIG    1       24.683 -20.992   4.282  0.00  0.00    +0.023 C 
ATOM     12  C   LIG    1       23.256 -21.495   4.010  0.00  0.00    +0.023 C 
ATOM     13  C   LIG    1       22.177 -20.811   4.857  0.00  0.00    +0.085 C 
ATOM     14  N   LIG    1       22.259 -19.350   4.934  0.00  0.00    -0.305 NA
ATOM     15  C   LIG    1       21.584 -18.695   3.821  0.00  0.00    +0.105 C 
ATOM     16  C   LIG    1       23.622 -18.855   5.156  0.00  0.00    +0.085 C 
ATOM     17  C   LIG    1       24.686 -19.461   4.240  0.00  0.00    +0.023 C 
ENDBRANCH   9  11
BRANCH   1  18
ATOM     18  C   LIG    1       29.572 -18.764   6.464  0.00  0.00    +0.059 C 
BRANCH  18  19
ATOM     19  C   LIG    1       30.925 -19.194   6.997  0.00  0.00    +0.190 C 
BRANCH  19  20
ATOM     20  S   LIG    1       31.219 -18.564   8.634  0.00  0.00    +0.029 S 
ATOM     21  O   LIG    1       30.003 -18.000   9.163  0.00  0.00    -0.158 OA
ATOM     22  O   LIG    1       31.996 -19.534   9.384  0.00  0.00    -0.158 OA
BRANCH  20  24
ATOM     23  C   LIG    1       32.439 -16.275   9.357  0.00  0.00    +0.127 C 
ATOM     24  N   LIG    1       32.267 -17.283   8.305  0.00  0.00    -0.198 NA
ATOM     25  H   LIG    1       33.136 -17.633   7.898  0.00  0.00    +0.147 HD
ENDBRANCH  20  24
ENDBRANCH  19  20
ENDBRANCH  18  19
ENDBRANCH   1  18
TORSDOF 5
ENDMDL
