MODEL 1
REMARK VINA RESULT:      -6.2      0.000      0.000
REMARK  Name = *****
REMARK                            x       y       z     vdW  Elec       q    Type
REMARK                         _______ _______ _______ _____ _____    ______ ____
ROOT
ATOM      1  C   LIG    1       24.960 -31.362   6.444  0.00  0.00    +0.168 C 
ATOM      2  C   LIG    1       25.435 -31.679   7.915  0.00  0.00    +0.009 C 
ATOM      3  C   LIG    1       26.502 -32.819   7.905  0.00  0.00    +0.014 C 
ATOM      4  C   LIG    1       24.157 -32.204   8.627  0.00  0.00    +0.005 C 
ATOM      5  C   LIG    1       23.244 -31.093   9.208  0.00  0.00    -0.000 C 
ATOM      6  C   LIG    1       23.996 -30.125  10.157  0.00  0.00    +0.035 C 
ATOM      7  C   LIG    1       25.167 -29.515   9.356  0.00  0.00    +0.120 C 
ATOM      8  C   LIG    1       24.245 -30.626  11.646  0.00  0.00    +0.013 C 
ATOM      9  C   LIG    1       24.431 -29.373  12.559  0.00  0.00    +0.020 C 
ATOM     10  C   LIG    1       23.036 -31.447  12.182  0.00  0.00    -0.056 C 
ATOM     11  C   LIG    1       23.113 -31.963  13.432  0.00  0.00    +0.051 C 
ATOM     12  C   LIG    1       24.304 -32.891  13.531  0.00  0.00    +0.179 C 
ATOM     13  O   LIG    1       24.316 -33.824  14.322  0.00  0.00    -0.288 OA
ATOM     14  C   LIG    1       25.493 -32.553  12.702  0.00  0.00    +0.047 C 
ATOM     15  C   LIG    1       22.299 -32.325  11.193  0.00  0.00    +0.032 C 
ATOM     16  C   LIG    1       25.476 -31.499  11.864  0.00  0.00    -0.012 C 
ATOM     17  C   LIG    1       21.979 -31.599   9.906  0.00  0.00    +0.008 C 
ATOM     18  C   LIG    1       23.488 -33.032   7.520  0.00  0.00    +0.052 C 
ATOM     19  C   LIG    1       26.094 -30.527   8.678  0.00  0.00    +0.041 C 
ATOM     20  C   LIG    1       23.745 -32.273   6.215  0.00  0.00    +0.211 C 
ATOM     21  O   LIG    1       24.136 -33.178   5.184  0.00  0.00    -0.474 OA
ATOM     22  C   LIG    1       25.382 -32.810   4.835  0.00  0.00    +0.183 C 
ATOM     23  C   LIG    1       26.035 -33.631   3.783  0.00  0.00    +0.109 C 
ATOM     24  N   LIG    1       25.954 -31.822   5.441  0.00  0.00    -0.236 NA
ENDROOT
BRANCH   1  25
ATOM     25  C   LIG    1       24.641 -29.887   6.099  0.00  0.00    +0.202 C 
ATOM     26  O   LIG    1       23.540 -29.386   6.340  0.00  0.00    -0.291 OA
BRANCH  25  27
ATOM     27  C   LIG    1       25.747 -29.066   5.422  0.00  0.00    +0.308 C 
BRANCH  27  28
ATOM     28  O   LIG    1       25.307 -27.834   4.842  0.00  0.00    -0.457 OA
BRANCH  28  30
ATOM     29  C   LIG    1       24.479 -25.970   6.026  0.00  0.00    +0.136 C 
ATOM     30  C   LIG    1       25.669 -26.717   5.527  0.00  0.00    +0.304 C 
ATOM     31  O   LIG    1       26.805 -26.300   5.676  0.00  0.00    -0.251 OA
ENDBRANCH  28  30
ENDBRANCH  27  28
ENDBRANCH  25  27
ENDBRANCH   1  25
BRANCH   7  32
ATOM     32  O   LIG    1       25.960 -28.632  10.136  0.00  0.00    -0.391 OA
ATOM     33  H   LIG    1       26.166 -27.873   9.551  0.00  0.00    +0.210 HD
ENDBRANCH   7  32
TORSDOF 5
ENDMDL
MODEL 2
REMARK VINA RESULT:      -5.5      2.299      4.330
REMARK  Name = *****
REMARK                            x       y       z     vdW  Elec       q    Type
REMARK                         _______ _______ _______ _____ _____    ______ ____
ROOT
ATOM      1  C   LIG    1       25.504 -31.544   8.520  0.00  0.00    +0.168 C 
ATOM      2  C   LIG    1       24.193 -32.102   9.197  0.00  0.00    +0.009 C 
ATOM      3  C   LIG    1       23.270 -32.765   8.125  0.00  0.00    +0.014 C 
ATOM      4  C   LIG    1       23.478 -30.838   9.751  0.00  0.00    +0.005 C 
ATOM      5  C   LIG    1       23.961 -30.393  11.156  0.00  0.00    -0.000 C 
ATOM      6  C   LIG    1       23.886 -31.525  12.212  0.00  0.00    +0.035 C 
ATOM      7  C   LIG    1       24.736 -32.702  11.683  0.00  0.00    +0.120 C 
ATOM      8  C   LIG    1       22.459 -31.818  12.852  0.00  0.00    +0.013 C 
ATOM      9  C   LIG    1       22.677 -32.498  14.240  0.00  0.00    +0.020 C 
ATOM     10  C   LIG    1       21.652 -30.505  13.071  0.00  0.00    -0.056 C 
ATOM     11  C   LIG    1       20.404 -30.597  13.589  0.00  0.00    +0.051 C 
ATOM     12  C   LIG    1       19.539 -31.455  12.692  0.00  0.00    +0.179 C 
ATOM     13  O   LIG    1       18.327 -31.297  12.639  0.00  0.00    -0.288 OA
ATOM     14  C   LIG    1       20.215 -32.564  11.962  0.00  0.00    +0.047 C 
ATOM     15  C   LIG    1       21.817 -29.407  12.042  0.00  0.00    +0.032 C 
ATOM     16  C   LIG    1       21.545 -32.747  12.061  0.00  0.00    -0.012 C 
ATOM     17  C   LIG    1       23.268 -29.144  11.709  0.00  0.00    +0.008 C 
ATOM     18  C   LIG    1       23.753 -29.803   8.650  0.00  0.00    +0.052 C 
ATOM     19  C   LIG    1       24.388 -33.177  10.270  0.00  0.00    +0.041 C 
ATOM     20  C   LIG    1       25.171 -30.091   8.148  0.00  0.00    +0.211 C 
ATOM     21  O   LIG    1       25.210 -30.044   6.723  0.00  0.00    -0.474 OA
ATOM     22  C   LIG    1       25.564 -31.281   6.331  0.00  0.00    +0.183 C 
ATOM     23  C   LIG    1       25.646 -31.504   4.865  0.00  0.00    +0.109 C 
ATOM     24  N   LIG    1       25.764 -32.203   7.214  0.00  0.00    -0.236 NA
ENDROOT
BRANCH   1  25
ATOM     25  C   LIG    1       26.821 -31.639   9.328  0.00  0.00    +0.202 C 
ATOM     26  O   LIG    1       27.425 -32.706   9.466  0.00  0.00    -0.291 OA
BRANCH  25  27
ATOM     27  C   LIG    1       27.344 -30.350   9.978  0.00  0.00    +0.308 C 
BRANCH  27  28
ATOM     28  O   LIG    1       27.423 -30.390  11.406  0.00  0.00    -0.457 OA
BRANCH  28  30
ATOM     29  C   LIG    1       26.863 -28.120  11.092  0.00  0.00    +0.136 C 
ATOM     30  C   LIG    1       27.363 -29.178  12.017  0.00  0.00    +0.304 C 
ATOM     31  O   LIG    1       27.732 -28.924  13.152  0.00  0.00    -0.251 OA
ENDBRANCH  28  30
ENDBRANCH  27  28
ENDBRANCH  25  27
ENDBRANCH   1  25
BRANCH   7  32
ATOM     32  O   LIG    1       24.713 -33.824  12.552  0.00  0.00    -0.391 OA
ATOM     33  H   LIG    1       24.341 -33.497  13.398  0.00  0.00    +0.210 HD
ENDBRANCH   7  32
TORSDOF 5
ENDMDL
MODEL 3
REMARK VINA RESULT:      -5.3      1.741      2.316
REMARK  Name = *****
REMARK                            x       y       z     vdW  Elec       q    Type
REMARK                         _______ _______ _______ _____ _____    ______ ____
ROOT
ATOM      1  C   LIG    1       25.389 -30.976   8.492  0.00  0.00    +0.168 C 
ATOM      2  C   LIG    1       25.098 -31.452   9.968  0.00  0.00    +0.009 C 
ATOM      3  C   LIG    1       25.876 -32.770  10.276  0.00  0.00    +0.014 C 
ATOM      4  C   LIG    1       23.575 -31.763   9.979  0.00  0.00    +0.005 C 
ATOM      5  C   LIG    1       22.671 -30.531  10.244  0.00  0.00    -0.000 C 
ATOM      6  C   LIG    1       23.046 -29.771  11.543  0.00  0.00    +0.035 C 
ATOM      7  C   LIG    1       24.527 -29.353  11.417  0.00  0.00    +0.120 C 
ATOM      8  C   LIG    1       22.521 -30.386  12.913  0.00  0.00    +0.013 C 
ATOM      9  C   LIG    1       22.455 -29.240  13.970  0.00  0.00    +0.020 C 
ATOM     10  C   LIG    1       21.095 -30.992  12.757  0.00  0.00    -0.056 C 
ATOM     11  C   LIG    1       20.524 -31.576  13.838  0.00  0.00    +0.051 C 
ATOM     12  C   LIG    1       21.393 -32.716  14.323  0.00  0.00    +0.179 C 
ATOM     13  O   LIG    1       20.911 -33.674  14.912  0.00  0.00    -0.288 OA
ATOM     14  C   LIG    1       22.864 -32.565  14.145  0.00  0.00    +0.047 C 
ATOM     15  C   LIG    1       20.764 -31.663  11.442  0.00  0.00    +0.032 C 
ATOM     16  C   LIG    1       23.380 -31.486  13.528  0.00  0.00    -0.012 C 
ATOM     17  C   LIG    1       21.168 -30.825  10.250  0.00  0.00    +0.008 C 
ATOM     18  C   LIG    1       23.365 -32.392   8.594  0.00  0.00    +0.052 C 
ATOM     19  C   LIG    1       25.502 -30.485  11.085  0.00  0.00    +0.041 C 
ATOM     20  C   LIG    1       24.290 -31.629   7.641  0.00  0.00    +0.211 C 
ATOM     21  O   LIG    1       24.967 -32.538   6.775  0.00  0.00    -0.474 OA
ATOM     22  C   LIG    1       26.276 -32.394   7.053  0.00  0.00    +0.183 C 
ATOM     23  C   LIG    1       27.206 -33.267   6.294  0.00  0.00    +0.109 C 
ATOM     24  N   LIG    1       26.650 -31.563   7.971  0.00  0.00    -0.236 NA
ENDROOT
BRANCH   1  25
ATOM     25  C   LIG    1       25.479 -29.452   8.238  0.00  0.00    +0.202 C 
ATOM     26  O   LIG    1       26.362 -28.757   8.748  0.00  0.00    -0.291 OA
BRANCH  25  27
ATOM     27  C   LIG    1       24.406 -28.823   7.338  0.00  0.00    +0.308 C 
BRANCH  27  28
ATOM     28  O   LIG    1       24.906 -28.242   6.130  0.00  0.00    -0.457 OA
BRANCH  28  30
ATOM     29  C   LIG    1       26.275 -26.321   6.125  0.00  0.00    +0.136 C 
ATOM     30  C   LIG    1       24.894 -26.883   6.100  0.00  0.00    +0.304 C 
ATOM     31  O   LIG    1       23.904 -26.171   6.125  0.00  0.00    -0.251 OA
ENDBRANCH  28  30
ENDBRANCH  27  28
ENDBRANCH  25  27
ENDBRANCH   1  25
BRANCH   7  32
ATOM     32  O   LIG    1       25.002 -28.676  12.572  0.00  0.00    -0.391 OA
ATOM     33  H   LIG    1       25.040 -29.354  13.279  0.00  0.00    +0.210 HD
ENDBRANCH   7  32
TORSDOF 5
ENDMDL
MODEL 4
REMARK VINA RESULT:      -5.1      3.658      6.629
REMARK  Name = *****
REMARK                            x       y       z     vdW  Elec       q    Type
REMARK                         _______ _______ _______ _____ _____    ______ ____
ROOT
ATOM      1  C   LIG    1       24.893 -29.617  13.254  0.00  0.00    +0.168 C 
ATOM      2  C   LIG    1       23.534 -29.705  12.458  0.00  0.00    +0.009 C 
ATOM      3  C   LIG    1       22.783 -28.337  12.517  0.00  0.00    +0.014 C 
ATOM      4  C   LIG    1       22.699 -30.760  13.237  0.00  0.00    +0.005 C 
ATOM      5  C   LIG    1       22.983 -32.229  12.829  0.00  0.00    -0.000 C 
ATOM      6  C   LIG    1       22.827 -32.478  11.307  0.00  0.00    +0.035 C 
ATOM      7  C   LIG    1       23.788 -31.508  10.583  0.00  0.00    +0.120 C 
ATOM      8  C   LIG    1       21.346 -32.665  10.757  0.00  0.00    +0.013 C 
ATOM      9  C   LIG    1       21.418 -33.473   9.423  0.00  0.00    +0.020 C 
ATOM     10  C   LIG    1       20.460 -33.457  11.762  0.00  0.00    -0.056 C 
ATOM     11  C   LIG    1       19.162 -33.675  11.442  0.00  0.00    +0.051 C 
ATOM     12  C   LIG    1       18.455 -32.352  11.240  0.00  0.00    +0.179 C 
ATOM     13  O   LIG    1       17.254 -32.239  11.439  0.00  0.00    -0.288 OA
ATOM     14  C   LIG    1       19.266 -31.232  10.688  0.00  0.00    +0.047 C 
ATOM     15  C   LIG    1       20.703 -33.223  13.238  0.00  0.00    +0.032 C 
ATOM     16  C   LIG    1       20.580 -31.385  10.439  0.00  0.00    -0.012 C 
ATOM     17  C   LIG    1       22.171 -33.278  13.595  0.00  0.00    +0.008 C 
ATOM     18  C   LIG    1       23.064 -30.447  14.696  0.00  0.00    +0.052 C 
ATOM     19  C   LIG    1       23.641 -30.034  10.967  0.00  0.00    +0.041 C 
ATOM     20  C   LIG    1       24.545 -30.056  14.685  0.00  0.00    +0.211 C 
ATOM     21  O   LIG    1       24.760 -28.906  15.500  0.00  0.00    -0.474 OA
ATOM     22  C   LIG    1       25.215 -27.953  14.667  0.00  0.00    +0.183 C 
ATOM     23  C   LIG    1       25.490 -26.628  15.277  0.00  0.00    +0.109 C 
ATOM     24  N   LIG    1       25.344 -28.210  13.406  0.00  0.00    -0.236 NA
ENDROOT
BRANCH   1  25
ATOM     25  C   LIG    1       26.101 -30.405  12.693  0.00  0.00    +0.202 C 
ATOM     26  O   LIG    1       26.233 -31.617  12.884  0.00  0.00    -0.291 OA
BRANCH  25  27
ATOM     27  C   LIG    1       27.152 -29.616  11.900  0.00  0.00    +0.308 C 
BRANCH  27  28
ATOM     28  O   LIG    1       27.662 -30.291  10.746  0.00  0.00    -0.457 OA
BRANCH  28  30
ATOM     29  C   LIG    1       26.620 -28.600   9.475  0.00  0.00    +0.136 C 
ATOM     30  C   LIG    1       26.992 -30.039   9.591  0.00  0.00    +0.304 C 
ATOM     31  O   LIG    1       26.649 -30.866   8.763  0.00  0.00    -0.251 OA
ENDBRANCH  28  30
ENDBRANCH  27  28
ENDBRANCH  25  27
ENDBRANCH   1  25
BRANCH   7  32
ATOM     32  O   LIG    1       23.707 -31.615   9.170  0.00  0.00    -0.391 OA
ATOM     33  H   LIG    1       22.892 -31.133   8.914  0.00  0.00    +0.210 HD
ENDBRANCH   7  32
TORSDOF 5
ENDMDL
MODEL 5
REMARK VINA RESULT:      -5.0      2.998      6.027
REMARK  Name = *****
REMARK                            x       y       z     vdW  Elec       q    Type
REMARK                         _______ _______ _______ _____ _____    ______ ____
ROOT
ATOM      1  C   LIG    1       25.251 -29.401  12.211  0.00  0.00    +0.168 C 
ATOM      2  C   LIG    1       23.681 -29.433  12.354  0.00  0.00    +0.009 C 
ATOM      3  C   LIG    1       23.155 -28.058  12.875  0.00  0.00    +0.014 C 
ATOM      4  C   LIG    1       23.415 -30.508  13.446  0.00  0.00    +0.005 C 
ATOM      5  C   LIG    1       23.354 -31.963  12.911  0.00  0.00    -0.000 C 
ATOM      6  C   LIG    1       22.332 -32.143  11.759  0.00  0.00    +0.035 C 
ATOM      7  C   LIG    1       22.728 -31.159  10.637  0.00  0.00    +0.120 C 
ATOM      8  C   LIG    1       20.801 -32.284  12.170  0.00  0.00    +0.013 C 
ATOM      9  C   LIG    1       20.055 -33.035  11.024  0.00  0.00    +0.020 C 
ATOM     10  C   LIG    1       20.636 -33.105  13.482  0.00  0.00    -0.056 C 
ATOM     11  C   LIG    1       19.387 -33.289  13.973  0.00  0.00    +0.051 C 
ATOM     12  C   LIG    1       18.745 -31.948  14.255  0.00  0.00    +0.179 C 
ATOM     13  O   LIG    1       17.889 -31.825  15.119  0.00  0.00    -0.288 OA
ATOM     14  C   LIG    1       19.125 -30.817  13.363  0.00  0.00    +0.047 C 
ATOM     15  C   LIG    1       21.701 -32.938  14.546  0.00  0.00    +0.032 C 
ATOM     16  C   LIG    1       20.042 -30.980  12.391  0.00  0.00    -0.012 C 
ATOM     17  C   LIG    1       23.100 -33.031  13.979  0.00  0.00    +0.008 C 
ATOM     18  C   LIG    1       24.572 -30.264  14.427  0.00  0.00    +0.052 C 
ATOM     19  C   LIG    1       22.887 -29.700  11.072  0.00  0.00    +0.041 C 
ATOM     20  C   LIG    1       25.783 -29.896  13.565  0.00  0.00    +0.211 C 
ATOM     21  O   LIG    1       26.475 -28.786  14.132  0.00  0.00    -0.474 OA
ATOM     22  C   LIG    1       26.397 -27.805  13.214  0.00  0.00    +0.183 C 
ATOM     23  C   LIG    1       27.025 -26.511  13.584  0.00  0.00    +0.109 C 
ATOM     24  N   LIG    1       25.759 -28.009  12.109  0.00  0.00    -0.236 NA
ENDROOT
BRANCH   1  25
ATOM     25  C   LIG    1       25.877 -30.183  11.031  0.00  0.00    +0.202 C 
ATOM     26  O   LIG    1       26.274 -31.344  11.157  0.00  0.00    -0.291 OA
BRANCH  25  27
ATOM     27  C   LIG    1       26.006 -29.450   9.689  0.00  0.00    +0.308 C 
BRANCH  27  28
ATOM     28  O   LIG    1       25.678 -30.240   8.541  0.00  0.00    -0.457 OA
BRANCH  28  30
ATOM     29  C   LIG    1       25.150 -28.353   7.228  0.00  0.00    +0.136 C 
ATOM     30  C   LIG    1       24.738 -29.699   7.722  0.00  0.00    +0.304 C 
ATOM     31  O   LIG    1       23.650 -30.181   7.458  0.00  0.00    -0.251 OA
ENDBRANCH  28  30
ENDBRANCH  27  28
ENDBRANCH  25  27
ENDBRANCH   1  25
BRANCH   7  32
ATOM     32  O   LIG    1       21.836 -31.203   9.533  0.00  0.00    -0.391 OA
ATOM     33  H   LIG    1       22.075 -30.438   8.968  0.00  0.00    +0.210 HD
ENDBRANCH   7  32
TORSDOF 5
ENDMDL
MODEL 6
REMARK VINA RESULT:      -5.0      3.300      7.123
REMARK  Name = *****
REMARK                            x       y       z     vdW  Elec       q    Type
REMARK                         _______ _______ _______ _____ _____    ______ ____
ROOT
ATOM      1  C   LIG    1       25.791 -28.650  13.201  0.00  0.00    +0.168 C 
ATOM      2  C   LIG    1       26.344 -29.869  12.367  0.00  0.00    +0.009 C 
ATOM      3  C   LIG    1       27.844 -30.129  12.717  0.00  0.00    +0.014 C 
ATOM      4  C   LIG    1       26.257 -29.395  10.889  0.00  0.00    +0.005 C 
ATOM      5  C   LIG    1       24.875 -29.622  10.223  0.00  0.00    -0.000 C 
ATOM      6  C   LIG    1       24.391 -31.092  10.316  0.00  0.00    +0.035 C 
ATOM      7  C   LIG    1       24.351 -31.467  11.814  0.00  0.00    +0.120 C 
ATOM      8  C   LIG    1       25.006 -32.120   9.270  0.00  0.00    +0.013 C 
ATOM      9  C   LIG    1       24.010 -33.312   9.112  0.00  0.00    +0.020 C 
ATOM     10  C   LIG    1       25.207 -31.462   7.874  0.00  0.00    -0.056 C 
ATOM     11  C   LIG    1       25.748 -32.210   6.882  0.00  0.00    +0.051 C 
ATOM     12  C   LIG    1       27.119 -32.696   7.297  0.00  0.00    +0.179 C 
ATOM     13  O   LIG    1       27.984 -32.936   6.467  0.00  0.00    -0.288 OA
ATOM     14  C   LIG    1       27.328 -32.969   8.747  0.00  0.00    +0.047 C 
ATOM     15  C   LIG    1       25.616 -30.005   7.844  0.00  0.00    +0.032 C 
ATOM     16  C   LIG    1       26.351 -32.734   9.643  0.00  0.00    -0.012 C 
ATOM     17  C   LIG    1       24.776 -29.152   8.769  0.00  0.00    +0.008 C 
ATOM     18  C   LIG    1       26.648 -27.914  11.002  0.00  0.00    +0.052 C 
ATOM     19  C   LIG    1       25.647 -31.215  12.587  0.00  0.00    +0.041 C 
ATOM     20  C   LIG    1       26.040 -27.418  12.318  0.00  0.00    +0.211 C 
ATOM     21  O   LIG    1       26.985 -26.622  13.030  0.00  0.00    -0.474 OA
ATOM     22  C   LIG    1       27.211 -27.277  14.184  0.00  0.00    +0.183 C 
ATOM     23  C   LIG    1       28.198 -26.659  15.104  0.00  0.00    +0.109 C 
ATOM     24  N   LIG    1       26.615 -28.401  14.412  0.00  0.00    -0.236 NA
ENDROOT
BRANCH   1  25
ATOM     25  C   LIG    1       24.320 -28.721  13.680  0.00  0.00    +0.202 C 
ATOM     26  O   LIG    1       23.985 -29.399  14.655  0.00  0.00    -0.291 OA
BRANCH  25  27
ATOM     27  C   LIG    1       23.279 -27.928  12.878  0.00  0.00    +0.308 C 
BRANCH  27  28
ATOM     28  O   LIG    1       22.171 -28.702  12.407  0.00  0.00    -0.457 OA
BRANCH  28  30
ATOM     29  C   LIG    1       20.832 -26.883  13.086  0.00  0.00    +0.136 C 
ATOM     30  C   LIG    1       20.967 -28.361  12.936  0.00  0.00    +0.304 C 
ATOM     31  O   LIG    1       20.107 -29.133  13.325  0.00  0.00    -0.251 OA
ENDBRANCH  28  30
ENDBRANCH  27  28
ENDBRANCH  25  27
ENDBRANCH   1  25
BRANCH   7  32
ATOM     32  O   LIG    1       23.955 -32.814  12.029  0.00  0.00    -0.391 OA
ATOM     33  H   LIG    1       24.784 -33.338  12.021  0.00  0.00    +0.210 HD
ENDBRANCH   7  32
TORSDOF 5
ENDMDL
MODEL 7
REMARK VINA RESULT:      -5.0      2.487      5.074
REMARK  Name = *****
REMARK                            x       y       z     vdW  Elec       q    Type
REMARK                         _______ _______ _______ _____ _____    ______ ____
ROOT
ATOM      1  C   LIG    1       25.151 -31.822   8.976  0.00  0.00    +0.168 C 
ATOM      2  C   LIG    1       24.470 -30.908  10.066  0.00  0.00    +0.009 C 
ATOM      3  C   LIG    1       23.035 -30.495   9.608  0.00  0.00    +0.014 C 
ATOM      4  C   LIG    1       25.360 -29.634  10.111  0.00  0.00    +0.005 C 
ATOM      5  C   LIG    1       26.596 -29.749  11.041  0.00  0.00    -0.000 C 
ATOM      6  C   LIG    1       26.230 -30.166  12.489  0.00  0.00    +0.035 C 
ATOM      7  C   LIG    1       25.479 -31.513  12.401  0.00  0.00    +0.120 C 
ATOM      8  C   LIG    1       25.678 -29.024  13.449  0.00  0.00    +0.013 C 
ATOM      9  C   LIG    1       25.945 -29.456  14.925  0.00  0.00    +0.020 C 
ATOM     10  C   LIG    1       26.400 -27.668  13.197  0.00  0.00    -0.056 C 
ATOM     11  C   LIG    1       26.018 -26.592  13.925  0.00  0.00    +0.051 C 
ATOM     12  C   LIG    1       24.549 -26.313  13.696  0.00  0.00    +0.179 C 
ATOM     13  O   LIG    1       24.093 -25.184  13.808  0.00  0.00    -0.288 OA
ATOM     14  C   LIG    1       23.672 -27.488  13.436  0.00  0.00    +0.047 C 
ATOM     15  C   LIG    1       26.793 -27.344  11.771  0.00  0.00    +0.032 C 
ATOM     16  C   LIG    1       24.185 -28.731  13.354  0.00  0.00    -0.012 C 
ATOM     17  C   LIG    1       27.484 -28.502  11.087  0.00  0.00    +0.008 C 
ATOM     18  C   LIG    1       25.722 -29.441   8.631  0.00  0.00    +0.052 C 
ATOM     19  C   LIG    1       24.278 -31.532  11.452  0.00  0.00    +0.041 C 
ATOM     20  C   LIG    1       25.904 -30.849   8.056  0.00  0.00    +0.211 C 
ATOM     21  O   LIG    1       25.262 -30.952   6.786  0.00  0.00    -0.474 OA
ATOM     22  C   LIG    1       24.308 -31.887   6.938  0.00  0.00    +0.183 C 
ATOM     23  C   LIG    1       23.465 -32.162   5.747  0.00  0.00    +0.109 C 
ATOM     24  N   LIG    1       24.141 -32.454   8.088  0.00  0.00    -0.236 NA
ENDROOT
BRANCH   1  25
ATOM     25  C   LIG    1       26.070 -32.964   9.474  0.00  0.00    +0.202 C 
ATOM     26  O   LIG    1       25.851 -33.562  10.531  0.00  0.00    -0.291 OA
BRANCH  25  27
ATOM     27  C   LIG    1       27.288 -33.316   8.610  0.00  0.00    +0.308 C 
BRANCH  27  28
ATOM     28  O   LIG    1       26.972 -33.825   7.310  0.00  0.00    -0.457 OA
BRANCH  28  30
ATOM     29  C   LIG    1       27.214 -33.418   4.999  0.00  0.00    +0.136 C 
ATOM     30  C   LIG    1       27.867 -33.507   6.337  0.00  0.00    +0.304 C 
ATOM     31  O   LIG    1       29.070 -33.377   6.481  0.00  0.00    -0.251 OA
ENDBRANCH  28  30
ENDBRANCH  27  28
ENDBRANCH  25  27
ENDBRANCH   1  25
BRANCH   7  32
ATOM     32  O   LIG    1       25.054 -31.984  13.671  0.00  0.00    -0.391 OA
ATOM     33  H   LIG    1       24.247 -32.514  13.502  0.00  0.00    +0.210 HD
ENDBRANCH   7  32
TORSDOF 5
ENDMDL
MODEL 8
REMARK VINA RESULT:      -4.9      2.940      5.605
REMARK  Name = *****
REMARK                            x       y       z     vdW  Elec       q    Type
REMARK                         _______ _______ _______ _____ _____    ______ ____
ROOT
ATOM      1  C   LIG    1       25.200 -31.237   9.531  0.00  0.00    +0.168 C 
ATOM      2  C   LIG    1       25.261 -29.772  10.112  0.00  0.00    +0.009 C 
ATOM      3  C   LIG    1       25.531 -28.746   8.967  0.00  0.00    +0.014 C 
ATOM      4  C   LIG    1       26.491 -29.786  11.063  0.00  0.00    +0.005 C 
ATOM      5  C   LIG    1       26.187 -30.295  12.496  0.00  0.00    -0.000 C 
ATOM      6  C   LIG    1       25.024 -29.530  13.179  0.00  0.00    +0.035 C 
ATOM      7  C   LIG    1       23.785 -29.674  12.267  0.00  0.00    +0.120 C 
ATOM      8  C   LIG    1       25.368 -28.112  13.811  0.00  0.00    +0.013 C 
ATOM      9  C   LIG    1       24.314 -27.803  14.920  0.00  0.00    +0.020 C 
ATOM     10  C   LIG    1       26.781 -28.106  14.463  0.00  0.00    -0.056 C 
ATOM     11  C   LIG    1       27.226 -26.956  15.024  0.00  0.00    +0.051 C 
ATOM     12  C   LIG    1       27.260 -25.858  13.983  0.00  0.00    +0.179 C 
ATOM     13  O   LIG    1       28.047 -24.926  14.070  0.00  0.00    -0.288 OA
ATOM     14  C   LIG    1       26.225 -25.911  12.913  0.00  0.00    +0.047 C 
ATOM     15  C   LIG    1       27.862 -28.925  13.790  0.00  0.00    +0.032 C 
ATOM     16  C   LIG    1       25.341 -26.925  12.854  0.00  0.00    -0.012 C 
ATOM     17  C   LIG    1       27.393 -30.319  13.440  0.00  0.00    +0.008 C 
ATOM     18  C   LIG    1       27.483 -30.672  10.295  0.00  0.00    +0.052 C 
ATOM     19  C   LIG    1       23.995 -29.265  10.808  0.00  0.00    +0.041 C 
ATOM     20  C   LIG    1       26.641 -31.762   9.625  0.00  0.00    +0.211 C 
ATOM     21  O   LIG    1       27.065 -31.956   8.277  0.00  0.00    -0.474 OA
ATOM     22  C   LIG    1       26.003 -31.637   7.516  0.00  0.00    +0.183 C 
ATOM     23  C   LIG    1       26.200 -31.729   6.047  0.00  0.00    +0.109 C 
ATOM     24  N   LIG    1       24.909 -31.233   8.075  0.00  0.00    -0.236 NA
ENDROOT
BRANCH   1  25
ATOM     25  C   LIG    1       24.192 -32.220  10.176  0.00  0.00    +0.202 C 
ATOM     26  O   LIG    1       24.447 -32.820  11.223  0.00  0.00    -0.291 OA
BRANCH  25  27
ATOM     27  C   LIG    1       22.858 -32.439   9.449  0.00  0.00    +0.308 C 
BRANCH  27  28
ATOM     28  O   LIG    1       21.947 -31.338   9.525  0.00  0.00    -0.457 OA
BRANCH  28  30
ATOM     29  C   LIG    1       20.479 -32.841  10.597  0.00  0.00    +0.136 C 
ATOM     30  C   LIG    1       20.997 -31.446  10.490  0.00  0.00    +0.304 C 
ATOM     31  O   LIG    1       20.541 -30.533  11.157  0.00  0.00    -0.251 OA
ENDBRANCH  28  30
ENDBRANCH  27  28
ENDBRANCH  25  27
ENDBRANCH   1  25
BRANCH   7  32
ATOM     32  O   LIG    1       22.654 -28.978  12.771  0.00  0.00    -0.391 OA
ATOM     33  H   LIG    1       22.624 -29.179  13.730  0.00  0.00    +0.210 HD
ENDBRANCH   7  32
TORSDOF 5
ENDMDL
MODEL 9
REMARK VINA RESULT:      -4.9      3.640      6.265
REMARK  Name = *****
REMARK                            x       y       z     vdW  Elec       q    Type
REMARK                         _______ _______ _______ _____ _____    ______ ____
ROOT
ATOM      1  C   LIG    1       22.802 -31.985  11.555  0.00  0.00    +0.168 C 
ATOM      2  C   LIG    1       23.052 -30.673  12.393  0.00  0.00    +0.009 C 
ATOM      3  C   LIG    1       21.704 -29.924  12.643  0.00  0.00    +0.014 C 
ATOM      4  C   LIG    1       23.943 -29.792  11.473  0.00  0.00    +0.005 C 
ATOM      5  C   LIG    1       25.461 -30.093  11.572  0.00  0.00    -0.000 C 
ATOM      6  C   LIG    1       26.000 -30.021  13.024  0.00  0.00    +0.035 C 
ATOM      7  C   LIG    1       25.182 -31.024  13.866  0.00  0.00    +0.120 C 
ATOM      8  C   LIG    1       26.302 -28.572  13.609  0.00  0.00    +0.013 C 
ATOM      9  C   LIG    1       27.352 -28.717  14.754  0.00  0.00    +0.020 C 
ATOM     10  C   LIG    1       26.890 -27.628  12.520  0.00  0.00    -0.056 C 
ATOM     11  C   LIG    1       27.176 -26.349  12.864  0.00  0.00    +0.051 C 
ATOM     12  C   LIG    1       25.922 -25.660  13.358  0.00  0.00    +0.179 C 
ATOM     13  O   LIG    1       25.781 -24.450  13.251  0.00  0.00    -0.288 OA
ATOM     14  C   LIG    1       24.923 -26.505  14.069  0.00  0.00    +0.047 C 
ATOM     15  C   LIG    1       26.374 -27.789  11.106  0.00  0.00    +0.032 C 
ATOM     16  C   LIG    1       25.113 -27.830  14.211  0.00  0.00    -0.012 C 
ATOM     17  C   LIG    1       26.348 -29.235  10.664  0.00  0.00    +0.008 C 
ATOM     18  C   LIG    1       23.351 -30.075  10.084  0.00  0.00    +0.052 C 
ATOM     19  C   LIG    1       23.663 -30.862  13.784  0.00  0.00    +0.041 C 
ATOM     20  C   LIG    1       22.959 -31.555  10.088  0.00  0.00    +0.211 C 
ATOM     21  O   LIG    1       21.671 -31.729   9.500  0.00  0.00    -0.474 OA
ATOM     22  C   LIG    1       20.894 -32.233  10.475  0.00  0.00    +0.183 C 
ATOM     23  C   LIG    1       19.474 -32.479  10.119  0.00  0.00    +0.109 C 
ATOM     24  N   LIG    1       21.389 -32.432  11.653  0.00  0.00    -0.236 NA
ENDROOT
BRANCH   1  25
ATOM     25  C   LIG    1       23.675 -33.220  11.885  0.00  0.00    +0.202 C 
ATOM     26  O   LIG    1       23.670 -33.741  13.003  0.00  0.00    -0.291 OA
BRANCH  25  27
ATOM     27  C   LIG    1       24.574 -33.767  10.767  0.00  0.00    +0.308 C 
BRANCH  27  28
ATOM     28  O   LIG    1       25.896 -33.219  10.741  0.00  0.00    -0.457 OA
BRANCH  28  30
ATOM     29  C   LIG    1       25.552 -33.590   8.437  0.00  0.00    +0.136 C 
ATOM     30  C   LIG    1       26.380 -32.950   9.500  0.00  0.00    +0.304 C 
ATOM     31  O   LIG    1       27.400 -32.333   9.243  0.00  0.00    -0.251 OA
ENDBRANCH  28  30
ENDBRANCH  27  28
ENDBRANCH  25  27
ENDBRANCH   1  25
BRANCH   7  32
ATOM     32  O   LIG    1       25.561 -31.022  15.235  0.00  0.00    -0.391 OA
ATOM     33  H   LIG    1       24.757 -31.282  15.733  0.00  0.00    +0.210 HD
ENDBRANCH   7  32
TORSDOF 5
ENDMDL
