MODEL 1
REMARK VINA RESULT:      -3.6      0.000      0.000
REMARK  Name = *****
REMARK                            x       y       z     vdW  Elec       q    Type
REMARK                         _______ _______ _______ _____ _____    ______ ____
ROOT
ATOM      1  C   LIG    1       24.920 -19.162   4.035  0.00  0.00    +0.011 C 
ATOM      2  C   LIG    1       25.230 -20.053   2.756  0.00  0.00    +0.013 C 
ATOM      3  C   LIG    1       23.835 -20.668   2.813  0.00  0.00    +0.002 C 
ATOM      4  C   LIG    1       23.407 -19.599   3.811  0.00  0.00    +0.013 C 
ENDROOT
BRANCH   1   5
ATOM      5  C   LIG    1       25.107 -17.532   3.822  0.00  0.00    -0.040 A 
ATOM      6  C   LIG    1       24.055 -16.614   4.061  0.00  0.00    +0.006 A 
ATOM      7  C   LIG    1       24.228 -15.229   3.972  0.00  0.00    +0.020 A 
ATOM      8  C   LIG    1       25.427 -14.713   3.531  0.00  0.00    +0.041 A 
ATOM      9 CL   LIG    1       25.636 -13.014   3.381  0.00  0.00    -0.084 Cl
ATOM     10  C   LIG    1       26.469 -15.574   3.187  0.00  0.00    +0.020 A 
ATOM     11  C   LIG    1       26.303 -16.956   3.350  0.00  0.00    +0.006 A 
ENDBRANCH   1   5
BRANCH   1  12
ATOM     12  C   LIG    1       25.552 -19.720   5.397  0.00  0.00    +0.067 C 
BRANCH  12  13
ATOM     13  N   LIG    1       24.822 -20.793   6.112  0.00  0.00    -0.305 NA
ATOM     14  C   LIG    1       25.601 -21.572   7.062  0.00  0.00    +0.105 C 
ATOM     15  C   LIG    1       23.496 -20.497   6.636  0.00  0.00    +0.105 C 
ENDBRANCH  12  13
BRANCH  12  16
ATOM     16  C   LIG    1       27.044 -20.131   5.193  0.00  0.00    +0.022 C 
BRANCH  16  18
ATOM     17  C   LIG    1       28.963 -20.699   6.688  0.00  0.00    +0.007 C 
ATOM     18  C   LIG    1       28.144 -19.536   6.097  0.00  0.00    -0.016 C 
ATOM     19  C   LIG    1       29.078 -18.570   5.382  0.00  0.00    +0.007 C 
ENDBRANCH  16  18
ENDBRANCH  12  16
ENDBRANCH   1  12
TORSDOF 5
ENDMDL
MODEL 2
REMARK VINA RESULT:      -2.7      1.179      1.929
REMARK  Name = *****
REMARK                            x       y       z     vdW  Elec       q    Type
REMARK                         _______ _______ _______ _____ _____    ______ ____
ROOT
ATOM      1  C   LIG    1       23.735 -18.491   4.158  0.00  0.00    +0.011 C 
ATOM      2  C   LIG    1       22.854 -19.002   2.937  0.00  0.00    +0.013 C 
ATOM      3  C   LIG    1       21.586 -18.917   3.782  0.00  0.00    +0.002 C 
ATOM      4  C   LIG    1       22.346 -18.120   4.837  0.00  0.00    +0.013 C 
ENDROOT
BRANCH   1   5
ATOM      5  C   LIG    1       24.634 -17.133   3.860  0.00  0.00    -0.040 A 
ATOM      6  C   LIG    1       24.110 -15.829   4.032  0.00  0.00    +0.006 A 
ATOM      7  C   LIG    1       24.886 -14.677   3.872  0.00  0.00    +0.020 A 
ATOM      8  C   LIG    1       26.185 -14.781   3.423  0.00  0.00    +0.041 A 
ATOM      9 CL   LIG    1       27.135 -13.368   3.185  0.00  0.00    -0.084 Cl
ATOM     10  C   LIG    1       26.724 -16.036   3.144  0.00  0.00    +0.020 A 
ATOM     11  C   LIG    1       25.957 -17.184   3.378  0.00  0.00    +0.006 A 
ENDBRANCH   1   5
BRANCH   1  12
ATOM     12  C   LIG    1       24.533 -19.648   4.926  0.00  0.00    +0.067 C 
BRANCH  12  13
ATOM     13  N   LIG    1       24.047 -21.040   4.781  0.00  0.00    -0.305 NA
ATOM     14  C   LIG    1       22.954 -21.429   5.657  0.00  0.00    +0.105 C 
ATOM     15  C   LIG    1       23.862 -21.572   3.438  0.00  0.00    +0.105 C 
ENDBRANCH  12  13
BRANCH  12  16
ATOM     16  C   LIG    1       26.060 -19.578   4.609  0.00  0.00    +0.022 C 
BRANCH  16  18
ATOM     17  C   LIG    1       28.331 -19.283   5.606  0.00  0.00    +0.007 C 
ATOM     18  C   LIG    1       27.086 -20.188   5.587  0.00  0.00    -0.016 C 
ATOM     19  C   LIG    1       26.562 -20.360   7.007  0.00  0.00    +0.007 C 
ENDBRANCH  16  18
ENDBRANCH  12  16
ENDBRANCH   1  12
TORSDOF 5
ENDMDL
MODEL 3
REMARK VINA RESULT:      -1.0      3.880      6.543
REMARK  Name = *****
REMARK                            x       y       z     vdW  Elec       q    Type
REMARK                         _______ _______ _______ _____ _____    ______ ____
ROOT
ATOM      1  C   LIG    1       24.590 -14.202   3.879  0.00  0.00    +0.011 C 
ATOM      2  C   LIG    1       25.402 -13.662   5.133  0.00  0.00    +0.013 C 
ATOM      3  C   LIG    1       24.494 -12.439   5.228  0.00  0.00    +0.002 C 
ATOM      4  C   LIG    1       23.514 -13.096   4.262  0.00  0.00    +0.013 C 
ENDROOT
BRANCH   1   5
ATOM      5  C   LIG    1       23.963 -15.725   4.047  0.00  0.00    -0.040 A 
ATOM      6  C   LIG    1       24.668 -16.881   3.630  0.00  0.00    +0.006 A 
ATOM      7  C   LIG    1       24.189 -18.177   3.849  0.00  0.00    +0.020 A 
ATOM      8  C   LIG    1       22.936 -18.363   4.393  0.00  0.00    +0.041 A 
ATOM      9 CL   LIG    1       22.323 -19.951   4.630  0.00  0.00    -0.084 Cl
ATOM     10  C   LIG    1       22.156 -17.259   4.733  0.00  0.00    +0.020 A 
ATOM     11  C   LIG    1       22.680 -15.969   4.573  0.00  0.00    +0.006 A 
ENDBRANCH   1   5
BRANCH   1  12
ATOM     12  C   LIG    1       25.301 -13.941   2.468  0.00  0.00    +0.067 C 
BRANCH  12  13
ATOM     13  N   LIG    1       25.142 -12.604   1.848  0.00  0.00    -0.305 NA
ATOM     14  C   LIG    1       23.789 -12.074   1.813  0.00  0.00    +0.105 C 
ATOM     15  C   LIG    1       26.107 -11.566   2.184  0.00  0.00    +0.105 C 
ENDBRANCH  12  13
BRANCH  12  16
ATOM     16  C   LIG    1       26.812 -14.329   2.524  0.00  0.00    +0.022 C 
BRANCH  16  18
ATOM     17  C   LIG    1       28.030 -15.664   4.248  0.00  0.00    +0.007 C 
ATOM     18  C   LIG    1       27.587 -14.243   3.856  0.00  0.00    -0.016 C 
ATOM     19  C   LIG    1       28.803 -13.328   3.809  0.00  0.00    +0.007 C 
ENDBRANCH  16  18
ENDBRANCH  12  16
ENDBRANCH   1  12
TORSDOF 5
ENDMDL
MODEL 4
REMARK VINA RESULT:      -0.9      3.911      6.476
REMARK  Name = *****
REMARK                            x       y       z     vdW  Elec       q    Type
REMARK                         _______ _______ _______ _____ _____    ______ ____
ROOT
ATOM      1  C   LIG    1       24.567 -14.169   3.875  0.00  0.00    +0.011 C 
ATOM      2  C   LIG    1       25.372 -13.603   5.123  0.00  0.00    +0.013 C 
ATOM      3  C   LIG    1       24.453 -12.388   5.200  0.00  0.00    +0.002 C 
ATOM      4  C   LIG    1       23.480 -13.067   4.241  0.00  0.00    +0.013 C 
ENDROOT
BRANCH   1   5
ATOM      5  C   LIG    1       23.954 -15.695   4.064  0.00  0.00    -0.040 A 
ATOM      6  C   LIG    1       22.708 -15.935   4.696  0.00  0.00    +0.006 A 
ATOM      7  C   LIG    1       22.138 -17.209   4.780  0.00  0.00    +0.020 A 
ATOM      8  C   LIG    1       22.844 -18.308   4.336  0.00  0.00    +0.041 A 
ATOM      9 CL   LIG    1       22.168 -19.882   4.472  0.00  0.00    -0.084 Cl
ATOM     10  C   LIG    1       24.117 -18.143   3.794  0.00  0.00    +0.020 A 
ATOM     11  C   LIG    1       24.643 -16.852   3.651  0.00  0.00    +0.006 A 
ENDBRANCH   1   5
BRANCH   1  12
ATOM     12  C   LIG    1       25.279 -13.921   2.462  0.00  0.00    +0.067 C 
BRANCH  12  13
ATOM     13  N   LIG    1       25.144 -12.582   1.843  0.00  0.00    -0.305 NA
ATOM     14  C   LIG    1       23.801 -12.026   1.813  0.00  0.00    +0.105 C 
ATOM     15  C   LIG    1       26.129 -11.563   2.176  0.00  0.00    +0.105 C 
ENDBRANCH  12  13
BRANCH  12  16
ATOM     16  C   LIG    1       26.782 -14.339   2.513  0.00  0.00    +0.022 C 
BRANCH  16  18
ATOM     17  C   LIG    1       28.026 -15.606   4.270  0.00  0.00    +0.007 C 
ATOM     18  C   LIG    1       27.582 -14.200   3.826  0.00  0.00    -0.016 C 
ATOM     19  C   LIG    1       28.801 -13.294   3.716  0.00  0.00    +0.007 C 
ENDBRANCH  16  18
ENDBRANCH  12  16
ENDBRANCH   1  12
TORSDOF 5
ENDMDL
MODEL 5
REMARK VINA RESULT:      -0.8      3.622      6.179
REMARK  Name = *****
REMARK                            x       y       z     vdW  Elec       q    Type
REMARK                         _______ _______ _______ _____ _____    ______ ____
ROOT
ATOM      1  C   LIG    1       24.406 -14.321   4.047  0.00  0.00    +0.011 C 
ATOM      2  C   LIG    1       23.687 -13.154   4.853  0.00  0.00    +0.013 C 
ATOM      3  C   LIG    1       23.526 -12.335   3.575  0.00  0.00    +0.002 C 
ATOM      4  C   LIG    1       23.897 -13.560   2.746  0.00  0.00    +0.013 C 
ENDROOT
BRANCH   1   5
ATOM      5  C   LIG    1       23.698 -15.811   4.181  0.00  0.00    -0.040 A 
ATOM      6  C   LIG    1       24.306 -16.984   3.671  0.00  0.00    +0.006 A 
ATOM      7  C   LIG    1       23.762 -18.258   3.858  0.00  0.00    +0.020 A 
ATOM      8  C   LIG    1       22.531 -18.397   4.464  0.00  0.00    +0.041 A 
ATOM      9 CL   LIG    1       21.836 -19.957   4.663  0.00  0.00    -0.084 Cl
ATOM     10  C   LIG    1       21.840 -17.268   4.900  0.00  0.00    +0.020 A 
ATOM     11  C   LIG    1       22.432 -16.005   4.769  0.00  0.00    +0.006 A 
ENDBRANCH   1   5
BRANCH   1  12
ATOM     12  C   LIG    1       26.001 -14.340   4.194  0.00  0.00    +0.067 C 
BRANCH  12  13
ATOM     13  N   LIG    1       26.779 -15.135   3.215  0.00  0.00    -0.305 NA
ATOM     14  C   LIG    1       27.523 -14.376   2.224  0.00  0.00    +0.105 C 
ATOM     15  C   LIG    1       27.553 -16.267   3.703  0.00  0.00    +0.105 C 
ENDBRANCH  12  13
BRANCH  12  16
ATOM     16  C   LIG    1       26.571 -12.889   4.280  0.00  0.00    +0.022 C 
BRANCH  16  18
ATOM     17  C   LIG    1       27.620 -13.667   6.408  0.00  0.00    +0.007 C 
ATOM     18  C   LIG    1       27.572 -12.512   5.392  0.00  0.00    -0.016 C 
ATOM     19  C   LIG    1       28.979 -12.220   4.888  0.00  0.00    +0.007 C 
ENDBRANCH  16  18
ENDBRANCH  12  16
ENDBRANCH   1  12
TORSDOF 5
ENDMDL
