MODEL 1
REMARK VINA RESULT:      -6.5      0.000      0.000
REMARK  Name = *****
REMARK                            x       y       z     vdW  Elec       q    Type
REMARK                         _______ _______ _______ _____ _____    ______ ____
ROOT
ATOM      1  C   LIG    1       26.014 -27.777  12.554  0.00  0.00    -0.009 C 
ATOM      2  C   LIG    1       27.145 -27.954  11.549  0.00  0.00    +0.108 C 
ATOM      3  S   LIG    1       26.604 -28.594   9.932  0.00  0.00    -0.131 S 
ATOM      4  C   LIG    1       25.683 -29.961  10.686  0.00  0.00    +0.169 C 
ATOM      5  N   LIG    1       24.644 -29.404  11.519  0.00  0.00    -0.249 N 
ATOM      6  C   LIG    1       23.603 -30.043  10.947  0.00  0.00    +0.244 C 
ATOM      7  O   LIG    1       22.408 -30.021  11.164  0.00  0.00    -0.273 OA
ATOM      8  CA  LIG    1       24.556 -30.614   9.832  0.00  0.00    +0.191 C 
ATOM      9  CA  LIG    1       24.841 -28.460  12.488  0.00  0.00    +0.126 C 
ENDROOT
BRANCH   8  10
ATOM     10  N   LIG    1       24.335 -30.070   8.468  0.00  0.00    -0.300 N 
ATOM     11  H   LIG    1       23.685 -29.305   8.304  0.00  0.00    +0.150 HD
ATOM     12  C   LIG    1       24.948 -30.606   7.349  0.00  0.00    +0.235 C 
ATOM     13  O   LIG    1       25.790 -31.495   7.436  0.00  0.00    -0.274 OA
BRANCH  12  14
ATOM     14  CA  LIG    1       24.482 -29.997   5.995  0.00  0.00    +0.168 C 
BRANCH  14  15
ATOM     15  C   LIG    1       24.844 -28.530   5.797  0.00  0.00    -0.022 A 
ATOM     16  C   LIG    1       24.032 -27.525   6.361  0.00  0.00    +0.009 A 
ATOM     17  C   LIG    1       24.297 -26.171   6.131  0.00  0.00    +0.045 A 
ATOM     18  C   LIG    1       25.372 -25.806   5.333  0.00  0.00    +0.117 A 
ATOM     19  C   LIG    1       26.196 -26.774   4.773  0.00  0.00    +0.045 A 
ATOM     20  C   LIG    1       25.930 -28.130   5.001  0.00  0.00    +0.009 A 
BRANCH  18  21
ATOM     21  O   LIG    1       25.584 -24.476   5.113  0.00  0.00    -0.507 OA
ATOM     22  H   LIG    1       25.657 -24.329   4.155  0.00  0.00    +0.292 HD
ENDBRANCH  18  21
ENDBRANCH  14  15
BRANCH  14  23
ATOM     23  N   LIG    1       25.012 -30.806   4.862  0.00  0.00    -0.316 NA
ATOM     24  H1  LIG    1       25.349 -30.149   4.156  0.00  0.00    +0.119 HD
ATOM     25  H2  LIG    1       25.857 -31.280   5.183  0.00  0.00    +0.119 HD
ENDBRANCH  14  23
ENDBRANCH  12  14
ENDBRANCH   8  10
BRANCH   1  28
ATOM     26  C   LIG    1       27.423 -24.658  14.367  0.00  0.00    +0.035 C 
ATOM     27  C   LIG    1       27.067 -25.680  13.335  0.00  0.00    -0.030 C 
ATOM     28  C   LIG    1       26.330 -26.777  13.572  0.00  0.00    +0.002 C 
ENDBRANCH   1  28
BRANCH   9  29
ATOM     29  C   LIG    1       23.716 -28.182  13.442  0.00  0.00    +0.352 C 
ATOM     30  O   LIG    1       23.556 -28.640  14.559  0.00  0.00    -0.244 OA
BRANCH  29  31
ATOM     31  OXT LIG    1       22.806 -27.348  12.906  0.00  0.00    -0.476 OA
ATOM     32  HXT LIG    1       21.968 -27.854  12.927  0.00  0.00    +0.295 HD
ENDBRANCH  29  31
ENDBRANCH   9  29
TORSDOF 8
ENDMDL
MODEL 2
REMARK VINA RESULT:      -6.4      3.580      5.850
REMARK  Name = *****
REMARK                            x       y       z     vdW  Elec       q    Type
REMARK                         _______ _______ _______ _____ _____    ______ ____
ROOT
ATOM      1  C   LIG    1       25.758 -31.032   9.038  0.00  0.00    -0.009 C 
ATOM      2  C   LIG    1       26.777 -29.986   9.473  0.00  0.00    +0.108 C 
ATOM      3  S   LIG    1       26.394 -28.299   8.902  0.00  0.00    -0.131 S 
ATOM      4  C   LIG    1       26.153 -28.841   7.190  0.00  0.00    +0.169 C 
ATOM      5  N   LIG    1       25.055 -29.778   7.160  0.00  0.00    -0.249 N 
ATOM      6  C   LIG    1       24.303 -29.133   6.244  0.00  0.00    +0.244 C 
ATOM      7  O   LIG    1       23.220 -29.378   5.754  0.00  0.00    -0.273 OA
ATOM      8  CA  LIG    1       25.305 -27.919   6.265  0.00  0.00    +0.191 C 
ATOM      9  CA  LIG    1       24.947 -30.883   7.958  0.00  0.00    +0.126 C 
ENDROOT
BRANCH   8  10
ATOM     10  N   LIG    1       24.771 -26.666   6.860  0.00  0.00    -0.300 N 
ATOM     11  H   LIG    1       24.536 -26.609   7.848  0.00  0.00    +0.150 HD
ATOM     12  C   LIG    1       24.511 -25.539   6.101  0.00  0.00    +0.235 C 
ATOM     13  O   LIG    1       24.804 -25.479   4.910  0.00  0.00    -0.274 OA
BRANCH  12  14
ATOM     14  CA  LIG    1       23.821 -24.378   6.872  0.00  0.00    +0.168 C 
BRANCH  14  15
ATOM     15  C   LIG    1       24.723 -23.185   7.168  0.00  0.00    -0.022 A 
ATOM     16  C   LIG    1       26.123 -23.347   7.167  0.00  0.00    +0.009 A 
ATOM     17  C   LIG    1       26.971 -22.289   7.510  0.00  0.00    +0.045 A 
ATOM     18  C   LIG    1       26.430 -21.060   7.864  0.00  0.00    +0.117 A 
ATOM     19  C   LIG    1       25.054 -20.869   7.864  0.00  0.00    +0.045 A 
ATOM     20  C   LIG    1       24.204 -21.928   7.522  0.00  0.00    +0.009 A 
BRANCH  18  21
ATOM     21  O   LIG    1       27.289 -20.060   8.216  0.00  0.00    -0.507 OA
ATOM     22  H   LIG    1       27.853 -19.854   7.452  0.00  0.00    +0.292 HD
ENDBRANCH  18  21
ENDBRANCH  14  15
BRANCH  14  23
ATOM     23  N   LIG    1       22.608 -23.925   6.135  0.00  0.00    -0.316 NA
ATOM     24  H1  LIG    1       22.888 -23.768   5.165  0.00  0.00    +0.119 HD
ATOM     25  H2  LIG    1       21.961 -24.712   6.082  0.00  0.00    +0.119 HD
ENDBRANCH  14  23
ENDBRANCH  12  14
ENDBRANCH   8  10
BRANCH   1  28
ATOM     26  C   LIG    1       25.116 -33.374  12.055  0.00  0.00    +0.035 C 
ATOM     27  C   LIG    1       25.123 -32.208  11.119  0.00  0.00    -0.030 C 
ATOM     28  C   LIG    1       25.743 -32.191   9.928  0.00  0.00    +0.002 C 
ENDBRANCH   1  28
BRANCH   9  29
ATOM     29  C   LIG    1       23.890 -31.895   7.624  0.00  0.00    +0.352 C 
ATOM     30  O   LIG    1       22.821 -32.067   8.181  0.00  0.00    -0.244 OA
BRANCH  29  31
ATOM     31  OXT LIG    1       24.267 -32.685   6.601  0.00  0.00    -0.476 OA
ATOM     32  HXT LIG    1       23.735 -32.372   5.842  0.00  0.00    +0.295 HD
ENDBRANCH  29  31
ENDBRANCH   9  29
TORSDOF 8
ENDMDL
MODEL 3
REMARK VINA RESULT:      -6.2      2.992      5.033
REMARK  Name = *****
REMARK                            x       y       z     vdW  Elec       q    Type
REMARK                         _______ _______ _______ _____ _____    ______ ____
ROOT
ATOM      1  C   LIG    1       25.388 -30.317   9.847  0.00  0.00    -0.009 C 
ATOM      2  C   LIG    1       26.363 -29.150   9.927  0.00  0.00    +0.108 C 
ATOM      3  S   LIG    1       26.067 -27.853   8.681  0.00  0.00    -0.131 S 
ATOM      4  C   LIG    1       26.015 -29.051   7.323  0.00  0.00    +0.169 C 
ATOM      5  N   LIG    1       24.917 -29.957   7.557  0.00  0.00    -0.249 N 
ATOM      6  C   LIG    1       24.281 -29.766   6.383  0.00  0.00    +0.244 C 
ATOM      7  O   LIG    1       23.257 -30.226   5.921  0.00  0.00    -0.273 OA
ATOM      8  CA  LIG    1       25.288 -28.612   6.017  0.00  0.00    +0.191 C 
ATOM      9  CA  LIG    1       24.706 -30.647   8.719  0.00  0.00    +0.126 C 
ENDROOT
BRANCH   8  10
ATOM     10  N   LIG    1       24.705 -27.246   5.990  0.00  0.00    -0.300 N 
ATOM     11  H   LIG    1       23.726 -27.086   6.214  0.00  0.00    +0.150 HD
ATOM     12  C   LIG    1       25.437 -26.137   5.605  0.00  0.00    +0.235 C 
ATOM     13  O   LIG    1       26.639 -26.207   5.364  0.00  0.00    -0.274 OA
BRANCH  12  14
ATOM     14  CA  LIG    1       24.618 -24.818   5.501  0.00  0.00    +0.168 C 
BRANCH  14  15
ATOM     15  C   LIG    1       24.941 -23.781   6.570  0.00  0.00    -0.022 A 
ATOM     16  C   LIG    1       23.965 -22.838   6.950  0.00  0.00    +0.009 A 
ATOM     17  C   LIG    1       24.258 -21.828   7.872  0.00  0.00    +0.045 A 
ATOM     18  C   LIG    1       25.531 -21.745   8.419  0.00  0.00    +0.117 A 
ATOM     19  C   LIG    1       26.510 -22.667   8.071  0.00  0.00    +0.045 A 
ATOM     20  C   LIG    1       26.218 -23.678   7.147  0.00  0.00    +0.009 A 
BRANCH  18  21
ATOM     21  O   LIG    1       25.786 -20.732   9.297  0.00  0.00    -0.507 OA
ATOM     22  H   LIG    1       25.030 -20.648   9.900  0.00  0.00    +0.292 HD
ENDBRANCH  18  21
ENDBRANCH  14  15
BRANCH  14  23
ATOM     23  N   LIG    1       24.785 -24.220   4.147  0.00  0.00    -0.316 NA
ATOM     24  H1  LIG    1       25.772 -24.308   3.899  0.00  0.00    +0.119 HD
ATOM     25  H2  LIG    1       24.306 -24.821   3.476  0.00  0.00    +0.119 HD
ENDBRANCH  14  23
ENDBRANCH  12  14
ENDBRANCH   8  10
BRANCH   1  28
ATOM     26  C   LIG    1       25.483 -31.179  13.622  0.00  0.00    +0.035 C 
ATOM     27  C   LIG    1       25.584 -30.473  12.308  0.00  0.00    -0.030 C 
ATOM     28  C   LIG    1       25.259 -31.017  11.124  0.00  0.00    +0.002 C 
ENDBRANCH   1  28
BRANCH   9  29
ATOM     29  C   LIG    1       23.682 -31.744   8.713  0.00  0.00    +0.352 C 
ATOM     30  O   LIG    1       22.522 -31.683   9.078  0.00  0.00    -0.244 OA
BRANCH  29  31
ATOM     31  OXT LIG    1       24.202 -32.905   8.273  0.00  0.00    -0.476 OA
ATOM     32  HXT LIG    1       24.310 -32.776   7.309  0.00  0.00    +0.295 HD
ENDBRANCH  29  31
ENDBRANCH   9  29
TORSDOF 8
ENDMDL
MODEL 4
REMARK VINA RESULT:      -6.2      4.035      6.682
REMARK  Name = *****
REMARK                            x       y       z     vdW  Elec       q    Type
REMARK                         _______ _______ _______ _____ _____    ______ ____
ROOT
ATOM      1  C   LIG    1       25.683 -30.193   7.975  0.00  0.00    -0.009 C 
ATOM      2  C   LIG    1       26.266 -29.103   8.865  0.00  0.00    +0.108 C 
ATOM      3  S   LIG    1       25.755 -27.417   8.400  0.00  0.00    -0.131 S 
ATOM      4  C   LIG    1       26.206 -27.668   6.663  0.00  0.00    +0.169 C 
ATOM      5  N   LIG    1       25.394 -28.738   6.133  0.00  0.00    -0.249 N 
ATOM      6  C   LIG    1       24.870 -28.058   5.093  0.00  0.00    +0.244 C 
ATOM      7  O   LIG    1       24.081 -28.369   4.224  0.00  0.00    -0.273 OA
ATOM      8  CA  LIG    1       25.538 -26.731   5.614  0.00  0.00    +0.191 C 
ATOM      9  CA  LIG    1       25.259 -29.973   6.703  0.00  0.00    +0.126 C 
ENDROOT
BRANCH   8  10
ATOM     10  N   LIG    1       24.595 -25.703   6.123  0.00  0.00    -0.300 N 
ATOM     11  H   LIG    1       23.598 -25.891   6.195  0.00  0.00    +0.150 HD
ATOM     12  C   LIG    1       25.006 -24.427   6.468  0.00  0.00    +0.235 C 
ATOM     13  O   LIG    1       26.192 -24.108   6.469  0.00  0.00    -0.274 OA
BRANCH  12  14
ATOM     14  CA  LIG    1       23.856 -23.449   6.842  0.00  0.00    +0.168 C 
BRANCH  14  15
ATOM     15  C   LIG    1       23.830 -22.156   6.034  0.00  0.00    -0.022 A 
ATOM     16  C   LIG    1       23.010 -21.088   6.447  0.00  0.00    +0.009 A 
ATOM     17  C   LIG    1       22.909 -19.919   5.684  0.00  0.00    +0.045 A 
ATOM     18  C   LIG    1       23.623 -19.809   4.498  0.00  0.00    +0.117 A 
ATOM     19  C   LIG    1       24.448 -20.842   4.072  0.00  0.00    +0.045 A 
ATOM     20  C   LIG    1       24.548 -22.012   4.835  0.00  0.00    +0.009 A 
BRANCH  18  21
ATOM     21  O   LIG    1       23.480 -18.664   3.770  0.00  0.00    -0.507 OA
ATOM     22  H   LIG    1       23.561 -17.904   4.369  0.00  0.00    +0.292 HD
ENDBRANCH  18  21
ENDBRANCH  14  15
BRANCH  14  23
ATOM     23  N   LIG    1       22.541 -24.141   6.731  0.00  0.00    -0.316 NA
ATOM     24  H1  LIG    1       22.722 -25.143   6.809  0.00  0.00    +0.119 HD
ATOM     25  H2  LIG    1       21.999 -23.921   7.566  0.00  0.00    +0.119 HD
ENDBRANCH  14  23
ENDBRANCH  12  14
ENDBRANCH   8  10
BRANCH   1  28
ATOM     26  C   LIG    1       26.561 -33.709   9.341  0.00  0.00    +0.035 C 
ATOM     27  C   LIG    1       26.619 -32.374   8.671  0.00  0.00    -0.030 C 
ATOM     28  C   LIG    1       25.614 -31.484   8.657  0.00  0.00    +0.002 C 
ENDBRANCH   1  28
BRANCH   9  29
ATOM     29  C   LIG    1       24.600 -31.055   5.898  0.00  0.00    +0.352 C 
ATOM     30  O   LIG    1       25.135 -31.979   5.313  0.00  0.00    -0.244 OA
BRANCH  29  31
ATOM     31  OXT LIG    1       23.266 -30.885   5.836  0.00  0.00    -0.476 OA
ATOM     32  HXT LIG    1       22.926 -31.321   6.644  0.00  0.00    +0.295 HD
ENDBRANCH  29  31
ENDBRANCH   9  29
TORSDOF 8
ENDMDL
MODEL 5
REMARK VINA RESULT:      -6.1      2.913      7.543
REMARK  Name = *****
REMARK                            x       y       z     vdW  Elec       q    Type
REMARK                         _______ _______ _______ _____ _____    ______ ____
ROOT
ATOM      1  C   LIG    1       24.734 -32.179   7.216  0.00  0.00    -0.009 C 
ATOM      2  C   LIG    1       25.033 -33.218   8.289  0.00  0.00    +0.108 C 
ATOM      3  S   LIG    1       25.384 -32.506   9.929  0.00  0.00    -0.131 S 
ATOM      4  C   LIG    1       26.606 -31.348   9.259  0.00  0.00    +0.169 C 
ATOM      5  N   LIG    1       25.939 -30.472   8.325  0.00  0.00    -0.249 N 
ATOM      6  C   LIG    1       26.293 -29.305   8.900  0.00  0.00    +0.244 C 
ATOM      7  O   LIG    1       26.053 -28.148   8.621  0.00  0.00    -0.273 OA
ATOM      8  CA  LIG    1       26.930 -30.085  10.110  0.00  0.00    +0.191 C 
ATOM      9  CA  LIG    1       25.157 -30.889   7.284  0.00  0.00    +0.126 C 
ENDROOT
BRANCH   8  10
ATOM     10  N   LIG    1       26.217 -29.937  11.405  0.00  0.00    -0.300 N 
ATOM     11  H   LIG    1       25.671 -30.701  11.797  0.00  0.00    +0.150 HD
ATOM     12  C   LIG    1       26.207 -28.749  12.114  0.00  0.00    +0.235 C 
ATOM     13  O   LIG    1       26.874 -27.780  11.761  0.00  0.00    -0.274 OA
BRANCH  12  14
ATOM     14  CA  LIG    1       25.290 -28.745  13.370  0.00  0.00    +0.168 C 
BRANCH  14  15
ATOM     15  C   LIG    1       23.883 -28.209  13.131  0.00  0.00    -0.022 A 
ATOM     16  C   LIG    1       23.578 -26.872  13.453  0.00  0.00    +0.009 A 
ATOM     17  C   LIG    1       22.277 -26.375  13.316  0.00  0.00    +0.045 A 
ATOM     18  C   LIG    1       21.267 -27.211  12.860  0.00  0.00    +0.117 A 
ATOM     19  C   LIG    1       21.541 -28.531  12.525  0.00  0.00    +0.045 A 
ATOM     20  C   LIG    1       22.842 -29.029  12.663  0.00  0.00    +0.009 A 
BRANCH  18  21
ATOM     21  O   LIG    1       20.007 -26.698  12.762  0.00  0.00    -0.507 OA
ATOM     22  H   LIG    1       19.773 -26.288  13.611  0.00  0.00    +0.292 HD
ENDBRANCH  18  21
ENDBRANCH  14  15
BRANCH  14  23
ATOM     23  N   LIG    1       25.218 -30.114  13.953  0.00  0.00    -0.316 NA
ATOM     24  H1  LIG    1       25.540 -30.045  14.920  0.00  0.00    +0.119 HD
ATOM     25  H2  LIG    1       24.233 -30.368  14.038  0.00  0.00    +0.119 HD
ENDBRANCH  14  23
ENDBRANCH  12  14
ENDBRANCH   8  10
BRANCH   1  28
ATOM     26  C   LIG    1       23.640 -33.818   3.882  0.00  0.00    +0.035 C 
ATOM     27  C   LIG    1       24.447 -33.276   5.017  0.00  0.00    -0.030 C 
ATOM     28  C   LIG    1       23.927 -32.726   6.127  0.00  0.00    +0.002 C 
ENDBRANCH   1  28
BRANCH   9  29
ATOM     29  C   LIG    1       24.756 -29.876   6.252  0.00  0.00    +0.352 C 
ATOM     30  O   LIG    1       23.674 -29.332   6.122  0.00  0.00    -0.244 OA
BRANCH  29  31
ATOM     31  OXT LIG    1       25.758 -29.626   5.388  0.00  0.00    -0.476 OA
ATOM     32  HXT LIG    1       25.758 -30.396   4.784  0.00  0.00    +0.295 HD
ENDBRANCH  29  31
ENDBRANCH   9  29
TORSDOF 8
ENDMDL
MODEL 6
REMARK VINA RESULT:      -6.0      8.883     12.775
REMARK  Name = *****
REMARK                            x       y       z     vdW  Elec       q    Type
REMARK                         _______ _______ _______ _____ _____    ______ ____
ROOT
ATOM      1  C   LIG    1       26.099 -20.714   7.133  0.00  0.00    -0.009 C 
ATOM      2  C   LIG    1       26.596 -20.920   8.558  0.00  0.00    +0.108 C 
ATOM      3  S   LIG    1       28.017 -19.870   9.004  0.00  0.00    -0.131 S 
ATOM      4  C   LIG    1       28.942 -20.345   7.520  0.00  0.00    +0.169 C 
ATOM      5  N   LIG    1       28.191 -19.924   6.361  0.00  0.00    -0.249 N 
ATOM      6  C   LIG    1       29.160 -19.184   5.786  0.00  0.00    +0.244 C 
ATOM      7  O   LIG    1       29.194 -18.527   4.765  0.00  0.00    -0.273 OA
ATOM      8  CA  LIG    1       30.075 -19.384   7.052  0.00  0.00    +0.191 C 
ATOM      9  CA  LIG    1       26.875 -20.217   6.134  0.00  0.00    +0.126 C 
ENDROOT
BRANCH   8  10
ATOM     10  N   LIG    1       30.310 -18.163   7.864  0.00  0.00    -0.300 N 
ATOM     11  H   LIG    1       29.700 -17.353   7.787  0.00  0.00    +0.150 HD
ATOM     12  C   LIG    1       31.392 -18.039   8.718  0.00  0.00    +0.235 C 
ATOM     13  O   LIG    1       32.161 -18.973   8.928  0.00  0.00    -0.274 OA
BRANCH  12  14
ATOM     14  CA  LIG    1       31.549 -16.636   9.372  0.00  0.00    +0.168 C 
BRANCH  14  15
ATOM     15  C   LIG    1       31.793 -16.658  10.877  0.00  0.00    -0.022 A 
ATOM     16  C   LIG    1       32.726 -15.770  11.449  0.00  0.00    +0.009 A 
ATOM     17  C   LIG    1       33.025 -15.820  12.815  0.00  0.00    +0.045 A 
ATOM     18  C   LIG    1       32.400 -16.761  13.621  0.00  0.00    +0.117 A 
ATOM     19  C   LIG    1       31.468 -17.642  13.086  0.00  0.00    +0.045 A 
ATOM     20  C   LIG    1       31.169 -17.594  11.719  0.00  0.00    +0.009 A 
BRANCH  18  21
ATOM     21  O   LIG    1       32.736 -16.795  14.943  0.00  0.00    -0.507 OA
ATOM     22  H   LIG    1       33.285 -16.019  15.143  0.00  0.00    +0.292 HD
ENDBRANCH  18  21
ENDBRANCH  14  15
BRANCH  14  23
ATOM     23  N   LIG    1       32.636 -15.876   8.694  0.00  0.00    -0.316 NA
ATOM     24  H1  LIG    1       33.523 -16.273   9.011  0.00  0.00    +0.119 HD
ATOM     25  H2  LIG    1       32.605 -16.102   7.700  0.00  0.00    +0.119 HD
ENDBRANCH  14  23
ENDBRANCH  12  14
ENDBRANCH   8  10
BRANCH   1  28
ATOM     26  C   LIG    1       22.824 -22.765   6.868  0.00  0.00    +0.035 C 
ATOM     27  C   LIG    1       24.251 -22.356   7.048  0.00  0.00    -0.030 C 
ATOM     28  C   LIG    1       24.695 -21.091   6.978  0.00  0.00    +0.002 C 
ENDBRANCH   1  28
BRANCH   9  29
ATOM     29  C   LIG    1       26.315 -19.940   4.769  0.00  0.00    +0.352 C 
ATOM     30  O   LIG    1       25.669 -20.692   4.062  0.00  0.00    -0.244 OA
BRANCH  29  31
ATOM     31  OXT LIG    1       26.643 -18.707   4.340  0.00  0.00    -0.476 OA
ATOM     32  HXT LIG    1       25.786 -18.246   4.241  0.00  0.00    +0.295 HD
ENDBRANCH  29  31
ENDBRANCH   9  29
TORSDOF 8
ENDMDL
MODEL 7
REMARK VINA RESULT:      -6.0      3.301      4.663
REMARK  Name = *****
REMARK                            x       y       z     vdW  Elec       q    Type
REMARK                         _______ _______ _______ _____ _____    ______ ____
ROOT
ATOM      1  C   LIG    1       21.281 -27.838  13.261  0.00  0.00    -0.009 C 
ATOM      2  C   LIG    1       22.528 -27.013  13.550  0.00  0.00    +0.108 C 
ATOM      3  S   LIG    1       24.054 -27.706  12.835  0.00  0.00    -0.131 S 
ATOM      4  C   LIG    1       23.732 -29.350  13.527  0.00  0.00    +0.169 C 
ATOM      5  N   LIG    1       22.497 -29.845  12.967  0.00  0.00    -0.249 N 
ATOM      6  C   LIG    1       22.983 -31.000  12.470  0.00  0.00    +0.244 C 
ATOM      7  O   LIG    1       22.466 -31.909  11.853  0.00  0.00    -0.273 OA
ATOM      8  CA  LIG    1       24.445 -30.557  12.849  0.00  0.00    +0.191 C 
ATOM      9  CA  LIG    1       21.312 -29.163  12.964  0.00  0.00    +0.126 C 
ENDROOT
BRANCH   8  10
ATOM     10  N   LIG    1       25.337 -30.262  11.699  0.00  0.00    -0.300 N 
ATOM     11  H   LIG    1       25.480 -29.309  11.373  0.00  0.00    +0.150 HD
ATOM     12  C   LIG    1       25.970 -31.259  10.977  0.00  0.00    +0.235 C 
ATOM     13  O   LIG    1       25.911 -32.438  11.314  0.00  0.00    -0.274 OA
BRANCH  12  14
ATOM     14  CA  LIG    1       26.745 -30.765   9.722  0.00  0.00    +0.168 C 
BRANCH  14  15
ATOM     15  C   LIG    1       25.869 -30.451   8.515  0.00  0.00    -0.022 A 
ATOM     16  C   LIG    1       25.582 -29.111   8.186  0.00  0.00    +0.009 A 
ATOM     17  C   LIG    1       24.719 -28.796   7.130  0.00  0.00    +0.045 A 
ATOM     18  C   LIG    1       24.130 -29.817   6.396  0.00  0.00    +0.117 A 
ATOM     19  C   LIG    1       24.403 -31.147   6.691  0.00  0.00    +0.045 A 
ATOM     20  C   LIG    1       25.265 -31.462   7.748  0.00  0.00    +0.009 A 
BRANCH  18  21
ATOM     21  O   LIG    1       23.276 -29.471   5.390  0.00  0.00    -0.507 OA
ATOM     22  H   LIG    1       22.871 -30.279   5.036  0.00  0.00    +0.292 HD
ENDBRANCH  18  21
ENDBRANCH  14  15
BRANCH  14  23
ATOM     23  N   LIG    1       27.574 -29.577  10.068  0.00  0.00    -0.316 NA
ATOM     24  H1  LIG    1       28.475 -29.693   9.600  0.00  0.00    +0.119 HD
ATOM     25  H2  LIG    1       27.161 -28.762   9.613  0.00  0.00    +0.119 HD
ENDBRANCH  14  23
ENDBRANCH  12  14
ENDBRANCH   8  10
BRANCH   1  28
ATOM     26  C   LIG    1       17.975 -26.206  14.448  0.00  0.00    +0.035 C 
ATOM     27  C   LIG    1       19.238 -27.002  14.378  0.00  0.00    -0.030 C 
ATOM     28  C   LIG    1       20.062 -27.033  13.318  0.00  0.00    +0.002 C 
ENDBRANCH   1  28
BRANCH   9  29
ATOM     29  C   LIG    1       20.067 -29.913  12.590  0.00  0.00    +0.352 C 
ATOM     30  O   LIG    1       19.246 -30.415  13.337  0.00  0.00    -0.244 OA
BRANCH  29  31
ATOM     31  OXT LIG    1       19.940 -30.029  11.254  0.00  0.00    -0.476 OA
ATOM     32  HXT LIG    1       20.401 -30.864  11.036  0.00  0.00    +0.295 HD
ENDBRANCH  29  31
ENDBRANCH   9  29
TORSDOF 8
ENDMDL
MODEL 8
REMARK VINA RESULT:      -6.0      1.623      1.916
REMARK  Name = *****
REMARK                            x       y       z     vdW  Elec       q    Type
REMARK                         _______ _______ _______ _____ _____    ______ ____
ROOT
ATOM      1  C   LIG    1       24.005 -28.547  13.018  0.00  0.00    -0.009 C 
ATOM      2  C   LIG    1       25.418 -28.666  12.462  0.00  0.00    +0.108 C 
ATOM      3  S   LIG    1       25.481 -29.116  10.697  0.00  0.00    -0.131 S 
ATOM      4  C   LIG    1       24.350 -30.513  10.924  0.00  0.00    +0.169 C 
ATOM      5  N   LIG    1       23.085 -30.002  11.397  0.00  0.00    -0.249 N 
ATOM      6  C   LIG    1       22.312 -30.535  10.428  0.00  0.00    +0.244 C 
ATOM      7  O   LIG    1       21.118 -30.487  10.214  0.00  0.00    -0.273 OA
ATOM      8  CA  LIG    1       23.596 -31.029   9.663  0.00  0.00    +0.191 C 
ATOM      9  CA  LIG    1       22.930 -29.171  12.471  0.00  0.00    +0.126 C 
ENDROOT
BRANCH   8  10
ATOM     10  N   LIG    1       23.872 -30.339   8.377  0.00  0.00    -0.300 N 
ATOM     11  H   LIG    1       23.318 -29.541   8.076  0.00  0.00    +0.150 HD
ATOM     12  C   LIG    1       24.849 -30.775   7.498  0.00  0.00    +0.235 C 
ATOM     13  O   LIG    1       25.611 -31.695   7.782  0.00  0.00    -0.274 OA
BRANCH  12  14
ATOM     14  CA  LIG    1       24.892 -30.015   6.142  0.00  0.00    +0.168 C 
BRANCH  14  15
ATOM     15  C   LIG    1       24.998 -28.499   6.263  0.00  0.00    -0.022 A 
ATOM     16  C   LIG    1       24.191 -27.673   5.456  0.00  0.00    +0.009 A 
ATOM     17  C   LIG    1       24.322 -26.280   5.492  0.00  0.00    +0.045 A 
ATOM     18  C   LIG    1       25.264 -25.700   6.329  0.00  0.00    +0.117 A 
ATOM     19  C   LIG    1       26.067 -26.489   7.144  0.00  0.00    +0.045 A 
ATOM     20  C   LIG    1       25.937 -27.883   7.107  0.00  0.00    +0.009 A 
BRANCH  18  21
ATOM     21  O   LIG    1       25.379 -24.340   6.319  0.00  0.00    -0.507 OA
ATOM     22  H   LIG    1       26.299 -24.109   6.109  0.00  0.00    +0.292 HD
ENDBRANCH  18  21
ENDBRANCH  14  15
BRANCH  14  23
ATOM     23  N   LIG    1       26.006 -30.535   5.301  0.00  0.00    -0.316 NA
ATOM     24  H1  LIG    1       26.487 -29.725   4.905  0.00  0.00    +0.119 HD
ATOM     25  H2  LIG    1       26.698 -30.955   5.921  0.00  0.00    +0.119 HD
ENDBRANCH  14  23
ENDBRANCH  12  14
ENDBRANCH   8  10
BRANCH   1  28
ATOM     26  C   LIG    1       24.076 -25.428  15.313  0.00  0.00    +0.035 C 
ATOM     27  C   LIG    1       24.109 -26.339  14.129  0.00  0.00    -0.030 C 
ATOM     28  C   LIG    1       23.944 -27.671  14.186  0.00  0.00    +0.002 C 
ENDBRANCH   1  28
BRANCH   9  29
ATOM     29  C   LIG    1       21.541 -28.946  12.994  0.00  0.00    +0.352 C 
ATOM     30  O   LIG    1       20.790 -28.022  12.741  0.00  0.00    -0.244 OA
BRANCH  29  31
ATOM     31  OXT LIG    1       21.179 -29.906  13.866  0.00  0.00    -0.476 OA
ATOM     32  HXT LIG    1       20.747 -29.422  14.598  0.00  0.00    +0.295 HD
ENDBRANCH  29  31
ENDBRANCH   9  29
TORSDOF 8
ENDMDL
MODEL 9
REMARK VINA RESULT:      -5.6      2.415      3.300
REMARK  Name = *****
REMARK                            x       y       z     vdW  Elec       q    Type
REMARK                         _______ _______ _______ _____ _____    ______ ____
ROOT
ATOM      1  C   LIG    1       24.365 -29.645  11.378  0.00  0.00    -0.009 C 
ATOM      2  C   LIG    1       25.736 -28.996  11.238  0.00  0.00    +0.108 C 
ATOM      3  S   LIG    1       26.296 -28.815   9.514  0.00  0.00    -0.131 S 
ATOM      4  C   LIG    1       25.941 -30.549   9.127  0.00  0.00    +0.169 C 
ATOM      5  N   LIG    1       24.526 -30.775   9.306  0.00  0.00    -0.249 N 
ATOM      6  C   LIG    1       24.270 -31.254   8.071  0.00  0.00    +0.244 C 
ATOM      7  O   LIG    1       23.249 -31.637   7.537  0.00  0.00    -0.273 OA
ATOM      8  CA  LIG    1       25.741 -30.915   7.626  0.00  0.00    +0.191 C 
ATOM      9  CA  LIG    1       23.820 -30.454  10.432  0.00  0.00    +0.126 C 
ENDROOT
BRANCH   8  10
ATOM     10  N   LIG    1       25.867 -29.815   6.636  0.00  0.00    -0.300 N 
ATOM     11  H   LIG    1       26.720 -29.685   6.097  0.00  0.00    +0.150 HD
ATOM     12  C   LIG    1       24.866 -28.882   6.435  0.00  0.00    +0.235 C 
ATOM     13  O   LIG    1       23.775 -28.973   6.991  0.00  0.00    -0.274 OA
BRANCH  12  14
ATOM     14  CA  LIG    1       25.238 -27.724   5.464  0.00  0.00    +0.168 C 
BRANCH  14  15
ATOM     15  C   LIG    1       25.047 -26.325   6.038  0.00  0.00    -0.022 A 
ATOM     16  C   LIG    1       23.768 -25.732   6.028  0.00  0.00    +0.009 A 
ATOM     17  C   LIG    1       23.579 -24.420   6.477  0.00  0.00    +0.045 A 
ATOM     18  C   LIG    1       24.664 -23.687   6.936  0.00  0.00    +0.117 A 
ATOM     19  C   LIG    1       25.934 -24.250   6.967  0.00  0.00    +0.045 A 
ATOM     20  C   LIG    1       26.125 -25.562   6.516  0.00  0.00    +0.009 A 
BRANCH  18  21
ATOM     21  O   LIG    1       24.444 -22.403   7.343  0.00  0.00    -0.507 OA
ATOM     22  H   LIG    1       23.547 -22.346   7.711  0.00  0.00    +0.292 HD
ENDBRANCH  18  21
ENDBRANCH  14  15
BRANCH  14  23
ATOM     23  N   LIG    1       26.639 -27.889   4.986  0.00  0.00    -0.316 NA
ATOM     24  H1  LIG    1       27.088 -28.569   5.602  0.00  0.00    +0.119 HD
ATOM     25  H2  LIG    1       26.609 -28.356   4.080  0.00  0.00    +0.119 HD
ENDBRANCH  14  23
ENDBRANCH  12  14
ENDBRANCH   8  10
BRANCH   1  28
ATOM     26  C   LIG    1       22.343 -27.732  14.071  0.00  0.00    +0.035 C 
ATOM     27  C   LIG    1       23.006 -28.140  12.795  0.00  0.00    -0.030 C 
ATOM     28  C   LIG    1       23.704 -29.275  12.628  0.00  0.00    +0.002 C 
ENDBRANCH   1  28
BRANCH   9  29
ATOM     29  C   LIG    1       22.426 -30.992  10.568  0.00  0.00    +0.352 C 
ATOM     30  O   LIG    1       21.390 -30.486  10.176  0.00  0.00    -0.244 OA
BRANCH  29  31
ATOM     31  OXT LIG    1       22.407 -32.155  11.247  0.00  0.00    -0.476 OA
ATOM     32  HXT LIG    1       22.514 -31.893  12.184  0.00  0.00    +0.295 HD
ENDBRANCH  29  31
ENDBRANCH   9  29
TORSDOF 8
ENDMDL
