MODEL 1
REMARK VINA RESULT:      -6.6      0.000      0.000
REMARK  Name = *****
REMARK                            x       y       z     vdW  Elec       q    Type
REMARK                         _______ _______ _______ _____ _____    ______ ____
ROOT
ATOM      1  C   LIG    1       24.906 -16.470   3.645  0.00  0.00    +0.087 C 
ATOM      2  C   LIG    1       23.528 -16.170   4.126  0.00  0.00    +0.345 C 
ATOM      3  O   LIG    1       23.111 -15.033   4.260  0.00  0.00    -0.245 OA
ATOM      4  O   LIG    1       22.703 -17.237   4.443  0.00  0.00    -0.422 OA
ATOM      5  C   LIG    1       23.137 -18.562   4.350  0.00  0.00    +0.143 A 
ATOM      6  C   LIG    1       24.417 -18.868   3.903  0.00  0.00    +0.059 A 
ATOM      7  C   LIG    1       24.797 -20.218   3.917  0.00  0.00    +0.015 A 
ATOM      8  C   LIG    1       23.892 -21.213   4.309  0.00  0.00    +0.001 A 
ATOM      9  C   LIG    1       22.601 -20.874   4.714  0.00  0.00    +0.004 A 
ATOM     10  C   LIG    1       22.224 -19.538   4.748  0.00  0.00    +0.047 A 
ATOM     11  C   LIG    1       25.280 -17.753   3.495  0.00  0.00    +0.138 C 
ENDROOT
BRANCH  11  12
ATOM     12  O   LIG    1       26.492 -18.074   2.909  0.00  0.00    -0.505 OA
ATOM     13  H   LIG    1       26.371 -18.098   1.943  0.00  0.00    +0.292 HD
ENDBRANCH  11  12
BRANCH   1  14
ATOM     14  C   LIG    1       25.829 -15.282   3.346  0.00  0.00    +0.067 C 
BRANCH  14  15
ATOM     15  C   LIG    1       25.068 -13.951   3.299  0.00  0.00    -0.039 A 
ATOM     16  C   LIG    1       24.655 -13.296   4.470  0.00  0.00    +0.004 A 
ATOM     17  C   LIG    1       24.015 -12.057   4.417  0.00  0.00    +0.000 A 
ATOM     18  C   LIG    1       23.772 -11.448   3.190  0.00  0.00    +0.000 A 
ATOM     19  C   LIG    1       24.150 -12.090   2.014  0.00  0.00    +0.000 A 
ATOM     20  C   LIG    1       24.783 -13.337   2.066  0.00  0.00    +0.004 A 
ENDBRANCH  14  15
BRANCH  14  21
ATOM     21  C   LIG    1       27.097 -15.171   4.236  0.00  0.00    +0.087 C 
BRANCH  21  23
ATOM     22  C   LIG    1       27.911 -12.953   5.268  0.00  0.00    +0.086 C 
ATOM     23  C   LIG    1       27.822 -13.855   4.063  0.00  0.00    +0.131 C 
ATOM     24  O   LIG    1       28.316 -13.531   2.982  0.00  0.00    -0.298 OA
ENDBRANCH  21  23
ENDBRANCH  14  21
ENDBRANCH   1  14
TORSDOF 5
ENDMDL
MODEL 2
REMARK VINA RESULT:      -6.4      1.366      2.918
REMARK  Name = *****
REMARK                            x       y       z     vdW  Elec       q    Type
REMARK                         _______ _______ _______ _____ _____    ______ ____
ROOT
ATOM      1  C   LIG    1       23.931 -15.897   4.139  0.00  0.00    +0.087 C 
ATOM      2  C   LIG    1       22.652 -16.319   4.777  0.00  0.00    +0.345 C 
ATOM      3  O   LIG    1       21.852 -15.522   5.236  0.00  0.00    -0.245 OA
ATOM      4  O   LIG    1       22.381 -17.674   4.858  0.00  0.00    -0.422 OA
ATOM      5  C   LIG    1       23.277 -18.638   4.387  0.00  0.00    +0.143 A 
ATOM      6  C   LIG    1       24.476 -18.271   3.786  0.00  0.00    +0.059 A 
ATOM      7  C   LIG    1       25.352 -19.302   3.416  0.00  0.00    +0.015 A 
ATOM      8  C   LIG    1       24.993 -20.645   3.594  0.00  0.00    +0.001 A 
ATOM      9  C   LIG    1       23.765 -20.978   4.163  0.00  0.00    +0.004 A 
ATOM     10  C   LIG    1       22.905 -19.968   4.576  0.00  0.00    +0.047 A 
ATOM     11  C   LIG    1       24.746 -16.837   3.629  0.00  0.00    +0.138 C 
ENDROOT
BRANCH  11  12
ATOM     12  O   LIG    1       25.866 -16.483   2.895  0.00  0.00    -0.505 OA
ATOM     13  H   LIG    1       26.224 -15.654   3.259  0.00  0.00    +0.292 HD
ENDBRANCH  11  12
BRANCH   1  14
ATOM     14  C   LIG    1       24.247 -14.397   4.101  0.00  0.00    +0.067 C 
BRANCH  14  15
ATOM     15  C   LIG    1       25.755 -14.119   4.108  0.00  0.00    -0.039 A 
ATOM     16  C   LIG    1       26.495 -14.038   2.918  0.00  0.00    +0.004 A 
ATOM     17  C   LIG    1       27.856 -13.727   2.933  0.00  0.00    +0.000 A 
ATOM     18  C   LIG    1       28.506 -13.494   4.141  0.00  0.00    +0.000 A 
ATOM     19  C   LIG    1       27.798 -13.593   5.335  0.00  0.00    +0.000 A 
ATOM     20  C   LIG    1       26.436 -13.915   5.322  0.00  0.00    +0.004 A 
ENDBRANCH  14  15
BRANCH  14  21
ATOM     21  C   LIG    1       23.533 -13.584   2.987  0.00  0.00    +0.087 C 
BRANCH  21  23
ATOM     22  C   LIG    1       23.629 -11.447   4.427  0.00  0.00    +0.086 C 
ATOM     23  C   LIG    1       23.805 -12.099   3.078  0.00  0.00    +0.131 C 
ATOM     24  O   LIG    1       24.150 -11.447   2.092  0.00  0.00    -0.298 OA
ENDBRANCH  21  23
ENDBRANCH  14  21
ENDBRANCH   1  14
TORSDOF 5
ENDMDL
MODEL 3
REMARK VINA RESULT:      -5.5      1.709      7.085
REMARK  Name = *****
REMARK                            x       y       z     vdW  Elec       q    Type
REMARK                         _______ _______ _______ _____ _____    ______ ____
ROOT
ATOM      1  C   LIG    1       24.167 -17.528   3.776  0.00  0.00    +0.087 C 
ATOM      2  C   LIG    1       25.482 -17.894   3.177  0.00  0.00    +0.345 C 
ATOM      3  O   LIG    1       25.760 -19.034   2.849  0.00  0.00    -0.245 OA
ATOM      4  O   LIG    1       26.420 -16.890   3.005  0.00  0.00    -0.422 OA
ATOM      5  C   LIG    1       26.176 -15.572   3.398  0.00  0.00    +0.143 A 
ATOM      6  C   LIG    1       24.958 -15.204   3.958  0.00  0.00    +0.059 A 
ATOM      7  C   LIG    1       24.827 -13.879   4.399  0.00  0.00    +0.015 A 
ATOM      8  C   LIG    1       25.867 -12.958   4.219  0.00  0.00    +0.001 A 
ATOM      9  C   LIG    1       27.062 -13.351   3.617  0.00  0.00    +0.004 A 
ATOM     10  C   LIG    1       27.224 -14.670   3.216  0.00  0.00    +0.047 A 
ATOM     11  C   LIG    1       23.926 -16.241   4.082  0.00  0.00    +0.138 C 
ENDROOT
BRANCH  11  12
ATOM     12  O   LIG    1       22.669 -15.834   4.497  0.00  0.00    -0.505 OA
ATOM     13  H   LIG    1       22.742 -14.938   4.869  0.00  0.00    +0.292 HD
ENDBRANCH  11  12
BRANCH   1  14
ATOM     14  C   LIG    1       23.154 -18.654   4.011  0.00  0.00    +0.067 C 
BRANCH  14  15
ATOM     15  C   LIG    1       23.668 -19.701   5.008  0.00  0.00    -0.039 A 
ATOM     16  C   LIG    1       24.937 -20.286   4.873  0.00  0.00    +0.004 A 
ATOM     17  C   LIG    1       25.418 -21.194   5.818  0.00  0.00    +0.000 A 
ATOM     18  C   LIG    1       24.637 -21.539   6.916  0.00  0.00    +0.000 A 
ATOM     19  C   LIG    1       23.365 -20.990   7.057  0.00  0.00    +0.000 A 
ATOM     20  C   LIG    1       22.878 -20.088   6.105  0.00  0.00    +0.004 A 
ENDBRANCH  14  15
BRANCH  14  21
ATOM     21  C   LIG    1       21.712 -18.203   4.368  0.00  0.00    +0.087 C 
BRANCH  21  23
ATOM     22  C   LIG    1       19.714 -18.211   2.738  0.00  0.00    +0.086 C 
ATOM     23  C   LIG    1       20.651 -18.988   3.629  0.00  0.00    +0.131 C 
ATOM     24  O   LIG    1       20.552 -20.209   3.752  0.00  0.00    -0.298 OA
ENDBRANCH  21  23
ENDBRANCH  14  21
ENDBRANCH   1  14
TORSDOF 5
ENDMDL
MODEL 4
REMARK VINA RESULT:      -5.4      1.342      3.432
REMARK  Name = *****
REMARK                            x       y       z     vdW  Elec       q    Type
REMARK                         _______ _______ _______ _____ _____    ______ ____
ROOT
ATOM      1  C   LIG    1       24.851 -15.586   3.861  0.00  0.00    +0.087 C 
ATOM      2  C   LIG    1       26.070 -16.373   3.518  0.00  0.00    +0.345 C 
ATOM      3  O   LIG    1       27.130 -15.848   3.226  0.00  0.00    -0.245 OA
ATOM      4  O   LIG    1       25.974 -17.754   3.520  0.00  0.00    -0.422 OA
ATOM      5  C   LIG    1       24.776 -18.414   3.805  0.00  0.00    +0.143 A 
ATOM      6  C   LIG    1       23.625 -17.703   4.130  0.00  0.00    +0.059 A 
ATOM      7  C   LIG    1       22.448 -18.440   4.322  0.00  0.00    +0.015 A 
ATOM      8  C   LIG    1       22.458 -19.839   4.248  0.00  0.00    +0.001 A 
ATOM      9  C   LIG    1       23.639 -20.523   3.960  0.00  0.00    +0.004 A 
ATOM     10  C   LIG    1       24.804 -19.805   3.723  0.00  0.00    +0.047 A 
ATOM     11  C   LIG    1       23.727 -16.241   4.201  0.00  0.00    +0.138 C 
ENDROOT
BRANCH  11  12
ATOM     12  O   LIG    1       22.621 -15.554   4.673  0.00  0.00    -0.505 OA
ATOM     13  H   LIG    1       22.881 -15.063   5.472  0.00  0.00    +0.292 HD
ENDBRANCH  11  12
BRANCH   1  14
ATOM     14  C   LIG    1       24.952 -14.057   3.805  0.00  0.00    +0.067 C 
BRANCH  14  15
ATOM     15  C   LIG    1       26.349 -13.552   4.188  0.00  0.00    -0.039 A 
ATOM     16  C   LIG    1       26.723 -13.365   5.529  0.00  0.00    +0.004 A 
ATOM     17  C   LIG    1       28.015 -12.960   5.868  0.00  0.00    +0.000 A 
ATOM     18  C   LIG    1       28.959 -12.730   4.874  0.00  0.00    +0.000 A 
ATOM     19  C   LIG    1       28.604 -12.885   3.536  0.00  0.00    +0.000 A 
ATOM     20  C   LIG    1       27.306 -13.281   3.194  0.00  0.00    +0.004 A 
ENDBRANCH  14  15
BRANCH  14  21
ATOM     21  C   LIG    1       24.459 -13.395   2.490  0.00  0.00    +0.087 C 
BRANCH  21  23
ATOM     22  C   LIG    1       23.926 -11.454   4.102  0.00  0.00    +0.086 C 
ATOM     23  C   LIG    1       23.821 -12.043   2.717  0.00  0.00    +0.131 C 
ATOM     24  O   LIG    1       23.235 -11.448   1.812  0.00  0.00    -0.298 OA
ENDBRANCH  21  23
ENDBRANCH  14  21
ENDBRANCH   1  14
TORSDOF 5
ENDMDL
MODEL 5
REMARK VINA RESULT:      -5.3      1.857      6.699
REMARK  Name = *****
REMARK                            x       y       z     vdW  Elec       q    Type
REMARK                         _______ _______ _______ _____ _____    ______ ____
ROOT
ATOM      1  C   LIG    1       24.378 -17.326   3.887  0.00  0.00    +0.087 C 
ATOM      2  C   LIG    1       23.247 -16.518   4.425  0.00  0.00    +0.345 C 
ATOM      3  O   LIG    1       22.247 -17.025   4.904  0.00  0.00    -0.245 OA
ATOM      4  O   LIG    1       23.343 -15.139   4.360  0.00  0.00    -0.422 OA
ATOM      5  C   LIG    1       24.445 -14.499   3.785  0.00  0.00    +0.143 A 
ATOM      6  C   LIG    1       25.514 -15.229   3.277  0.00  0.00    +0.059 A 
ATOM      7  C   LIG    1       26.540 -14.511   2.646  0.00  0.00    +0.015 A 
ATOM      8  C   LIG    1       26.507 -13.111   2.593  0.00  0.00    +0.001 A 
ATOM      9  C   LIG    1       25.438 -12.408   3.148  0.00  0.00    +0.004 A 
ATOM     10  C   LIG    1       24.392 -13.107   3.737  0.00  0.00    +0.047 A 
ATOM     11  C   LIG    1       25.460 -16.690   3.403  0.00  0.00    +0.138 C 
ENDROOT
BRANCH  11  12
ATOM     12  O   LIG    1       26.593 -17.397   3.036  0.00  0.00    -0.505 OA
ATOM     13  H   LIG    1       26.432 -18.343   3.198  0.00  0.00    +0.292 HD
ENDBRANCH  11  12
BRANCH   1  14
ATOM     14  C   LIG    1       24.240 -18.852   3.917  0.00  0.00    +0.067 C 
BRANCH  14  15
ATOM     15  C   LIG    1       25.156 -19.499   4.964  0.00  0.00    -0.039 A 
ATOM     16  C   LIG    1       24.644 -20.061   6.144  0.00  0.00    +0.004 A 
ATOM     17  C   LIG    1       25.480 -20.698   7.062  0.00  0.00    +0.000 A 
ATOM     18  C   LIG    1       26.847 -20.785   6.820  0.00  0.00    +0.000 A 
ATOM     19  C   LIG    1       27.381 -20.213   5.668  0.00  0.00    +0.000 A 
ATOM     20  C   LIG    1       26.545 -19.565   4.752  0.00  0.00    +0.004 A 
ENDBRANCH  14  15
BRANCH  14  21
ATOM     21  C   LIG    1       22.791 -19.398   4.027  0.00  0.00    +0.087 C 
BRANCH  21  23
ATOM     22  C   LIG    1       21.630 -21.572   4.786  0.00  0.00    +0.086 C 
ATOM     23  C   LIG    1       22.728 -20.909   3.992  0.00  0.00    +0.131 C 
ATOM     24  O   LIG    1       23.541 -21.572   3.347  0.00  0.00    -0.298 OA
ENDBRANCH  21  23
ENDBRANCH  14  21
ENDBRANCH   1  14
TORSDOF 5
ENDMDL
MODEL 6
REMARK VINA RESULT:      -4.4      1.839      6.804
REMARK  Name = *****
REMARK                            x       y       z     vdW  Elec       q    Type
REMARK                         _______ _______ _______ _____ _____    ______ ____
ROOT
ATOM      1  C   LIG    1       23.590 -16.862   4.076  0.00  0.00    +0.087 C 
ATOM      2  C   LIG    1       23.031 -15.705   4.830  0.00  0.00    +0.345 C 
ATOM      3  O   LIG    1       21.928 -15.729   5.348  0.00  0.00    -0.245 OA
ATOM      4  O   LIG    1       23.799 -14.557   4.925  0.00  0.00    -0.422 OA
ATOM      5  C   LIG    1       25.054 -14.453   4.318  0.00  0.00    +0.143 A 
ATOM      6  C   LIG    1       25.599 -15.519   3.611  0.00  0.00    +0.059 A 
ATOM      7  C   LIG    1       26.825 -15.302   2.965  0.00  0.00    +0.015 A 
ATOM      8  C   LIG    1       27.492 -14.076   3.089  0.00  0.00    +0.001 A 
ATOM      9  C   LIG    1       26.936 -13.041   3.840  0.00  0.00    +0.004 A 
ATOM     10  C   LIG    1       25.701 -13.225   4.447  0.00  0.00    +0.047 A 
ATOM     11  C   LIG    1       24.828 -16.767   3.560  0.00  0.00    +0.138 C 
ENDROOT
BRANCH  11  12
ATOM     12  O   LIG    1       25.445 -17.866   2.987  0.00  0.00    -0.505 OA
ATOM     13  H   LIG    1       25.433 -18.597   3.630  0.00  0.00    +0.292 HD
ENDBRANCH  11  12
BRANCH   1  14
ATOM     14  C   LIG    1       22.711 -18.110   3.932  0.00  0.00    +0.067 C 
BRANCH  14  15
ATOM     15  C   LIG    1       23.291 -19.320   4.674  0.00  0.00    -0.039 A 
ATOM     16  C   LIG    1       24.267 -20.144   4.091  0.00  0.00    +0.004 A 
ATOM     17  C   LIG    1       24.830 -21.208   4.799  0.00  0.00    +0.000 A 
ATOM     18  C   LIG    1       24.425 -21.472   6.103  0.00  0.00    +0.000 A 
ATOM     19  C   LIG    1       23.441 -20.684   6.693  0.00  0.00    +0.000 A 
ATOM     20  C   LIG    1       22.869 -19.623   5.981  0.00  0.00    +0.004 A 
ENDBRANCH  14  15
BRANCH  14  21
ATOM     21  C   LIG    1       21.206 -17.918   4.264  0.00  0.00    +0.087 C 
BRANCH  21  23
ATOM     22  C   LIG    1       19.370 -18.205   2.476  0.00  0.00    +0.086 C 
ATOM     23  C   LIG    1       20.308 -18.842   3.471  0.00  0.00    +0.131 C 
ATOM     24  O   LIG    1       20.336 -20.062   3.634  0.00  0.00    -0.298 OA
ENDBRANCH  21  23
ENDBRANCH  14  21
ENDBRANCH   1  14
TORSDOF 5
ENDMDL
