MODEL 1
REMARK VINA RESULT:      -2.7      0.000      0.000
REMARK  Name = *****
REMARK                            x       y       z     vdW  Elec       q    Type
REMARK                         _______ _______ _______ _____ _____    ______ ____
ROOT
ATOM      1  C   LIG    1       28.314 -13.379   3.776  0.00  0.00    +0.121 C 
ATOM      2  S   LIG    1       27.017 -14.561   3.336  0.00  0.00    +0.016 S 
ATOM      3  O   LIG    1       26.634 -14.300   1.910  0.00  0.00    -0.258 OA
ATOM      4  C   LIG    1       25.738 -13.831   4.387  0.00  0.00    +0.121 C 
ENDROOT
TORSDOF 0
ENDMDL
MODEL 2
REMARK VINA RESULT:      -2.6      0.699      2.022
REMARK  Name = *****
REMARK                            x       y       z     vdW  Elec       q    Type
REMARK                         _______ _______ _______ _____ _____    ______ ____
ROOT
ATOM      1  C   LIG    1       25.586 -13.877   4.247  0.00  0.00    +0.121 C 
ATOM      2  S   LIG    1       26.640 -13.328   2.883  0.00  0.00    +0.016 S 
ATOM      3  O   LIG    1       26.603 -14.394   1.828  0.00  0.00    -0.258 OA
ATOM      4  C   LIG    1       28.204 -13.501   3.776  0.00  0.00    +0.121 C 
ENDROOT
TORSDOF 0
ENDMDL
MODEL 3
REMARK VINA RESULT:      -2.6      1.846      2.243
REMARK  Name = *****
REMARK                            x       y       z     vdW  Elec       q    Type
REMARK                         _______ _______ _______ _____ _____    ______ ____
ROOT
ATOM      1  C   LIG    1       24.653 -12.636   2.025  0.00  0.00    +0.121 C 
ATOM      2  S   LIG    1       26.113 -13.360   2.809  0.00  0.00    +0.016 S 
ATOM      3  O   LIG    1       26.679 -14.373   1.859  0.00  0.00    -0.258 OA
ATOM      4  C   LIG    1       25.208 -14.262   4.090  0.00  0.00    +0.121 C 
ENDROOT
TORSDOF 0
ENDMDL
MODEL 4
REMARK VINA RESULT:      -2.4      2.027      2.206
REMARK  Name = *****
REMARK                            x       y       z     vdW  Elec       q    Type
REMARK                         _______ _______ _______ _____ _____    ______ ____
ROOT
ATOM      1  C   LIG    1       26.578 -13.490   5.125  0.00  0.00    +0.121 C 
ATOM      2  S   LIG    1       27.685 -14.152   3.856  0.00  0.00    +0.016 S 
ATOM      3  O   LIG    1       28.837 -13.200   3.721  0.00  0.00    -0.258 OA
ATOM      4  C   LIG    1       26.569 -13.858   2.464  0.00  0.00    +0.121 C 
ENDROOT
TORSDOF 0
ENDMDL
MODEL 5
REMARK VINA RESULT:      -2.2      2.010      2.577
REMARK  Name = *****
REMARK                            x       y       z     vdW  Elec       q    Type
REMARK                         _______ _______ _______ _____ _____    ______ ____
ROOT
ATOM      1  C   LIG    1       26.547 -13.829   2.461  0.00  0.00    +0.121 C 
ATOM      2  S   LIG    1       27.383 -14.207   4.020  0.00  0.00    +0.016 S 
ATOM      3  O   LIG    1       26.521 -13.686   5.131  0.00  0.00    -0.258 OA
ATOM      4  C   LIG    1       28.742 -13.035   3.790  0.00  0.00    +0.121 C 
ENDROOT
TORSDOF 0
ENDMDL
MODEL 6
REMARK VINA RESULT:      -2.2      7.670      7.922
REMARK  Name = *****
REMARK                            x       y       z     vdW  Elec       q    Type
REMARK                         _______ _______ _______ _____ _____    ______ ____
ROOT
ATOM      1  C   LIG    1       22.355 -18.903   4.604  0.00  0.00    +0.121 C 
ATOM      2  S   LIG    1       22.646 -20.582   5.211  0.00  0.00    +0.016 S 
ATOM      3  O   LIG    1       23.140 -20.472   6.623  0.00  0.00    -0.258 OA
ATOM      4  C   LIG    1       24.079 -20.913   4.157  0.00  0.00    +0.121 C 
ENDROOT
TORSDOF 0
ENDMDL
MODEL 7
REMARK VINA RESULT:      -2.2      7.683      7.826
REMARK  Name = *****
REMARK                            x       y       z     vdW  Elec       q    Type
REMARK                         _______ _______ _______ _____ _____    ______ ____
ROOT
ATOM      1  C   LIG    1       24.234 -20.896   4.379  0.00  0.00    +0.121 C 
ATOM      2  S   LIG    1       22.710 -20.580   5.301  0.00  0.00    +0.016 S 
ATOM      3  O   LIG    1       22.401 -19.118   5.174  0.00  0.00    -0.258 OA
ATOM      4  C   LIG    1       23.428 -20.845   6.941  0.00  0.00    +0.121 C 
ENDROOT
TORSDOF 0
ENDMDL
MODEL 8
REMARK VINA RESULT:      -2.1      8.131      8.334
REMARK  Name = *****
REMARK                            x       y       z     vdW  Elec       q    Type
REMARK                         _______ _______ _______ _____ _____    ______ ____
ROOT
ATOM      1  C   LIG    1       23.469 -20.885   7.062  0.00  0.00    +0.121 C 
ATOM      2  S   LIG    1       23.111 -20.361   5.368  0.00  0.00    +0.016 S 
ATOM      3  O   LIG    1       21.845 -21.043   4.943  0.00  0.00    -0.258 OA
ATOM      4  C   LIG    1       24.491 -21.248   4.604  0.00  0.00    +0.121 C 
ENDROOT
TORSDOF 0
ENDMDL
MODEL 9
REMARK VINA RESULT:      -2.1      7.553      7.583
REMARK  Name = *****
REMARK                            x       y       z     vdW  Elec       q    Type
REMARK                         _______ _______ _______ _____ _____    ______ ____
ROOT
ATOM      1  C   LIG    1       24.217 -20.352   4.044  0.00  0.00    +0.121 C 
ATOM      2  S   LIG    1       22.869 -20.074   5.219  0.00  0.00    +0.016 S 
ATOM      3  O   LIG    1       21.835 -21.133   4.978  0.00  0.00    -0.258 OA
ATOM      4  C   LIG    1       22.272 -18.545   4.457  0.00  0.00    +0.121 C 
ENDROOT
TORSDOF 0
ENDMDL
