MODEL 1
REMARK VINA RESULT:      -7.4      0.000      0.000
REMARK  Name = *****
REMARK                            x       y       z     vdW  Elec       q    Type
REMARK                         _______ _______ _______ _____ _____    ______ ____
ROOT
ATOM      1  C   LIG    1       26.088 -20.870   8.315  0.00  0.00    +0.341 C 
ATOM      2  O   LIG    1       25.914 -20.573   9.478  0.00  0.00    -0.245 OA
ENDROOT
BRANCH   1   3
ATOM      3  C   LIG    1       25.474 -22.030   7.617  0.00  0.00    +0.077 A 
ATOM      4  C   LIG    1       24.190 -21.971   7.062  0.00  0.00    +0.057 A 
ATOM      5 CL   LIG    1       23.200 -20.553   7.076  0.00  0.00    -0.083 Cl
ATOM      6  C   LIG    1       23.650 -23.103   6.428  0.00  0.00    +0.043 A 
ATOM      7  C   LIG    1       24.387 -24.283   6.303  0.00  0.00    +0.026 A 
ATOM      8  C   LIG    1       25.639 -24.354   6.914  0.00  0.00    +0.023 A 
ATOM      9  C   LIG    1       26.186 -23.235   7.548  0.00  0.00    +0.018 A 
BRANCH   7  10
ATOM     10  N   LIG    1       23.791 -25.439   5.790  0.00  0.00    -0.358 N 
ATOM     11  H   LIG    1       23.074 -25.842   6.387  0.00  0.00    +0.142 HD
ATOM     12  H   LIG    1       23.484 -25.356   4.826  0.00  0.00    +0.142 HD
ENDBRANCH   7  10
ENDBRANCH   1   3
BRANCH   1  13
ATOM     13  O   LIG    1       26.880 -20.195   7.436  0.00  0.00    -0.460 OA
BRANCH  13  14
ATOM     14  C   LIG    1       28.264 -20.579   7.434  0.00  0.00    +0.247 C 
BRANCH  14  15
ATOM     15  C   LIG    1       29.201 -19.356   7.531  0.00  0.00    +0.125 C 
BRANCH  15  16
ATOM     16  N   LIG    1       30.017 -19.294   8.767  0.00  0.00    -0.300 NA
BRANCH  16  18
ATOM     17  C   LIG    1       31.179 -21.533   9.117  0.00  0.00    +0.020 C 
ATOM     18  C   LIG    1       31.262 -20.072   8.684  0.00  0.00    +0.081 C 
ENDBRANCH  16  18
BRANCH  16  19
ATOM     19  C   LIG    1       30.215 -17.891   9.176  0.00  0.00    +0.081 C 
ATOM     20  C   LIG    1       30.471 -17.711  10.671  0.00  0.00    +0.020 C 
ENDBRANCH  16  19
ENDBRANCH  15  16
ENDBRANCH  14  15
ENDBRANCH  13  14
ENDBRANCH   1  13
TORSDOF 8
ENDMDL
MODEL 2
REMARK VINA RESULT:      -7.3      0.835      1.714
REMARK  Name = *****
REMARK                            x       y       z     vdW  Elec       q    Type
REMARK                         _______ _______ _______ _____ _____    ______ ____
ROOT
ATOM      1  C   LIG    1       26.146 -20.843   8.255  0.00  0.00    +0.341 C 
ATOM      2  O   LIG    1       25.928 -20.482   9.392  0.00  0.00    -0.245 OA
ENDROOT
BRANCH   1   3
ATOM      3  C   LIG    1       25.527 -22.018   7.586  0.00  0.00    +0.077 A 
ATOM      4  C   LIG    1       24.216 -21.993   7.099  0.00  0.00    +0.057 A 
ATOM      5 CL   LIG    1       23.190 -20.601   7.169  0.00  0.00    -0.083 Cl
ATOM      6  C   LIG    1       23.673 -23.137   6.490  0.00  0.00    +0.043 A 
ATOM      7  C   LIG    1       24.434 -24.297   6.325  0.00  0.00    +0.026 A 
ATOM      8  C   LIG    1       25.718 -24.336   6.869  0.00  0.00    +0.023 A 
ATOM      9  C   LIG    1       26.267 -23.203   7.477  0.00  0.00    +0.018 A 
BRANCH   7  10
ATOM     10  N   LIG    1       23.843 -25.468   5.840  0.00  0.00    -0.358 N 
ATOM     11  H   LIG    1       24.491 -26.238   5.699  0.00  0.00    +0.142 HD
ATOM     12  H   LIG    1       23.012 -25.756   6.347  0.00  0.00    +0.142 HD
ENDBRANCH   7  10
ENDBRANCH   1   3
BRANCH   1  13
ATOM     13  O   LIG    1       26.999 -20.238   7.383  0.00  0.00    -0.460 OA
BRANCH  13  14
ATOM     14  C   LIG    1       28.253 -19.814   7.941  0.00  0.00    +0.247 C 
BRANCH  14  15
ATOM     15  C   LIG    1       29.418 -20.727   7.501  0.00  0.00    +0.125 C 
BRANCH  15  16
ATOM     16  N   LIG    1       30.767 -20.131   7.652  0.00  0.00    -0.300 NA
BRANCH  16  18
ATOM     17  C   LIG    1       31.533 -17.939   8.697  0.00  0.00    +0.020 C 
ATOM     18  C   LIG    1       30.765 -18.662   7.595  0.00  0.00    +0.081 C 
ENDBRANCH  16  18
BRANCH  16  19
ATOM     19  C   LIG    1       31.435 -20.683   8.845  0.00  0.00    +0.081 C 
ATOM     20  C   LIG    1       30.966 -22.086   9.224  0.00  0.00    +0.020 C 
ENDBRANCH  16  19
ENDBRANCH  15  16
ENDBRANCH  14  15
ENDBRANCH  13  14
ENDBRANCH   1  13
TORSDOF 8
ENDMDL
MODEL 3
REMARK VINA RESULT:      -7.1      0.984      1.140
REMARK  Name = *****
REMARK                            x       y       z     vdW  Elec       q    Type
REMARK                         _______ _______ _______ _____ _____    ______ ____
ROOT
ATOM      1  C   LIG    1       25.996 -22.064   7.992  0.00  0.00    +0.341 C 
ATOM      2  O   LIG    1       25.660 -21.651   9.082  0.00  0.00    -0.245 OA
ENDROOT
BRANCH   1   3
ATOM      3  C   LIG    1       25.426 -23.252   7.303  0.00  0.00    +0.077 A 
ATOM      4  C   LIG    1       24.065 -23.351   6.993  0.00  0.00    +0.057 A 
ATOM      5 CL   LIG    1       22.910 -22.106   7.321  0.00  0.00    -0.083 Cl
ATOM      6  C   LIG    1       23.575 -24.504   6.356  0.00  0.00    +0.043 A 
ATOM      7  C   LIG    1       24.431 -25.546   5.988  0.00  0.00    +0.026 A 
ATOM      8  C   LIG    1       25.773 -25.468   6.356  0.00  0.00    +0.023 A 
ATOM      9  C   LIG    1       26.272 -24.325   6.991  0.00  0.00    +0.018 A 
BRANCH   7  10
ATOM     10  N   LIG    1       23.913 -26.740   5.477  0.00  0.00    -0.358 N 
ATOM     11  H   LIG    1       23.841 -26.767   4.464  0.00  0.00    +0.142 HD
ATOM     12  H   LIG    1       24.350 -27.577   5.851  0.00  0.00    +0.142 HD
ENDBRANCH   7  10
ENDBRANCH   1   3
BRANCH   1  13
ATOM     13  O   LIG    1       26.960 -21.516   7.201  0.00  0.00    -0.460 OA
BRANCH  13  14
ATOM     14  C   LIG    1       27.585 -20.332   7.722  0.00  0.00    +0.247 C 
BRANCH  14  15
ATOM     15  C   LIG    1       29.118 -20.364   7.544  0.00  0.00    +0.125 C 
BRANCH  15  16
ATOM     16  N   LIG    1       29.886 -19.740   8.648  0.00  0.00    -0.300 NA
BRANCH  16  18
ATOM     17  C   LIG    1       31.104 -21.935   9.082  0.00  0.00    +0.020 C 
ATOM     18  C   LIG    1       31.161 -20.418   8.926  0.00  0.00    +0.081 C 
ENDBRANCH  16  18
BRANCH  16  19
ATOM     19  C   LIG    1       30.017 -18.289   8.419  0.00  0.00    +0.081 C 
ATOM     20  C   LIG    1       30.297 -17.486   9.688  0.00  0.00    +0.020 C 
ENDBRANCH  16  19
ENDBRANCH  15  16
ENDBRANCH  14  15
ENDBRANCH  13  14
ENDBRANCH   1  13
TORSDOF 8
ENDMDL
MODEL 4
REMARK VINA RESULT:      -6.9      2.076      2.878
REMARK  Name = *****
REMARK                            x       y       z     vdW  Elec       q    Type
REMARK                         _______ _______ _______ _____ _____    ______ ____
ROOT
ATOM      1  C   LIG    1       26.122 -21.317   8.375  0.00  0.00    +0.341 C 
ATOM      2  O   LIG    1       25.637 -21.692   9.421  0.00  0.00    -0.245 OA
ENDROOT
BRANCH   1   3
ATOM      3  C   LIG    1       25.515 -21.488   7.029  0.00  0.00    +0.077 A 
ATOM      4  C   LIG    1       25.342 -22.747   6.443  0.00  0.00    +0.057 A 
ATOM      5 CL   LIG    1       25.760 -24.235   7.220  0.00  0.00    -0.083 Cl
ATOM      6  C   LIG    1       24.779 -22.850   5.160  0.00  0.00    +0.043 A 
ATOM      7  C   LIG    1       24.348 -21.717   4.466  0.00  0.00    +0.026 A 
ATOM      8  C   LIG    1       24.581 -20.462   5.028  0.00  0.00    +0.023 A 
ATOM      9  C   LIG    1       25.141 -20.347   6.304  0.00  0.00    +0.018 A 
BRANCH   7  10
ATOM     10  N   LIG    1       23.913 -21.821   3.142  0.00  0.00    -0.358 N 
ATOM     11  H   LIG    1       23.902 -20.941   2.633  0.00  0.00    +0.142 HD
ATOM     12  H   LIG    1       24.363 -22.562   2.612  0.00  0.00    +0.142 HD
ENDBRANCH   7  10
ENDBRANCH   1   3
BRANCH   1  13
ATOM     13  O   LIG    1       27.315 -20.673   8.243  0.00  0.00    -0.460 OA
BRANCH  13  14
ATOM     14  C   LIG    1       28.385 -21.462   7.698  0.00  0.00    +0.247 C 
BRANCH  14  15
ATOM     15  C   LIG    1       29.769 -20.900   8.083  0.00  0.00    +0.125 C 
BRANCH  15  16
ATOM     16  N   LIG    1       29.902 -19.429   7.955  0.00  0.00    -0.300 NA
BRANCH  16  18
ATOM     17  C   LIG    1       30.300 -17.360   9.387  0.00  0.00    +0.020 C 
ATOM     18  C   LIG    1       30.644 -18.812   9.065  0.00  0.00    +0.081 C 
ENDBRANCH  16  18
BRANCH  16  19
ATOM     19  C   LIG    1       30.421 -19.079   6.620  0.00  0.00    +0.081 C 
ATOM     20  C   LIG    1       29.370 -18.489   5.682  0.00  0.00    +0.020 C 
ENDBRANCH  16  19
ENDBRANCH  15  16
ENDBRANCH  14  15
ENDBRANCH  13  14
ENDBRANCH   1  13
TORSDOF 8
ENDMDL
MODEL 5
REMARK VINA RESULT:      -6.8      2.763      3.353
REMARK  Name = *****
REMARK                            x       y       z     vdW  Elec       q    Type
REMARK                         _______ _______ _______ _____ _____    ______ ____
ROOT
ATOM      1  C   LIG    1       25.983 -21.449   6.120  0.00  0.00    +0.341 C 
ATOM      2  O   LIG    1       25.938 -22.617   6.444  0.00  0.00    -0.245 OA
ENDROOT
BRANCH   1   3
ATOM      3  C   LIG    1       24.845 -20.654   5.586  0.00  0.00    +0.077 A 
ATOM      4  C   LIG    1       23.587 -20.651   6.199  0.00  0.00    +0.057 A 
ATOM      5 CL   LIG    1       23.222 -21.514   7.653  0.00  0.00    -0.083 Cl
ATOM      6  C   LIG    1       22.540 -19.895   5.643  0.00  0.00    +0.043 A 
ATOM      7  C   LIG    1       22.741 -19.110   4.505  0.00  0.00    +0.026 A 
ATOM      8  C   LIG    1       23.978 -19.168   3.864  0.00  0.00    +0.023 A 
ATOM      9  C   LIG    1       25.026 -19.917   4.408  0.00  0.00    +0.018 A 
BRANCH   7  10
ATOM     10  N   LIG    1       21.662 -18.471   3.887  0.00  0.00    -0.358 N 
ATOM     11  H   LIG    1       20.909 -19.094   3.608  0.00  0.00    +0.142 HD
ATOM     12  H   LIG    1       21.318 -17.657   4.387  0.00  0.00    +0.142 HD
ENDBRANCH   7  10
ENDBRANCH   1   3
BRANCH   1  13
ATOM     13  O   LIG    1       27.085 -20.652   6.184  0.00  0.00    -0.460 OA
BRANCH  13  14
ATOM     14  C   LIG    1       27.563 -20.366   7.509  0.00  0.00    +0.247 C 
BRANCH  14  15
ATOM     15  C   LIG    1       28.974 -20.944   7.750  0.00  0.00    +0.125 C 
BRANCH  15  16
ATOM     16  N   LIG    1       29.856 -20.102   8.592  0.00  0.00    -0.300 NA
BRANCH  16  18
ATOM     17  C   LIG    1       31.311 -22.101   9.202  0.00  0.00    +0.020 C 
ATOM     18  C   LIG    1       31.212 -20.649   8.744  0.00  0.00    +0.081 C 
ENDBRANCH  16  18
BRANCH  16  19
ATOM     19  C   LIG    1       29.823 -18.704   8.124  0.00  0.00    +0.081 C 
ATOM     20  C   LIG    1       30.341 -17.696   9.148  0.00  0.00    +0.020 C 
ENDBRANCH  16  19
ENDBRANCH  15  16
ENDBRANCH  14  15
ENDBRANCH  13  14
ENDBRANCH   1  13
TORSDOF 8
ENDMDL
MODEL 6
REMARK VINA RESULT:      -6.8      2.518      6.658
REMARK  Name = *****
REMARK                            x       y       z     vdW  Elec       q    Type
REMARK                         _______ _______ _______ _____ _____    ______ ____
ROOT
ATOM      1  C   LIG    1       26.875 -20.494   6.063  0.00  0.00    +0.341 C 
ATOM      2  O   LIG    1       26.616 -19.884   5.047  0.00  0.00    -0.245 OA
ENDROOT
BRANCH   1   3
ATOM      3  C   LIG    1       28.168 -20.448   6.795  0.00  0.00    +0.077 A 
ATOM      4  C   LIG    1       29.165 -19.516   6.486  0.00  0.00    +0.057 A 
ATOM      5 CL   LIG    1       28.999 -18.294   5.273  0.00  0.00    -0.083 Cl
ATOM      6  C   LIG    1       30.377 -19.526   7.198  0.00  0.00    +0.043 A 
ATOM      7  C   LIG    1       30.594 -20.429   8.242  0.00  0.00    +0.026 A 
ATOM      8  C   LIG    1       29.622 -21.395   8.501  0.00  0.00    +0.023 A 
ATOM      9  C   LIG    1       28.413 -21.394   7.799  0.00  0.00    +0.018 A 
BRANCH   7  10
ATOM     10  N   LIG    1       31.849 -20.517   8.851  0.00  0.00    -0.358 N 
ATOM     11  H   LIG    1       32.634 -20.445   8.210  0.00  0.00    +0.142 HD
ATOM     12  H   LIG    1       31.962 -19.915   9.662  0.00  0.00    +0.142 HD
ENDBRANCH   7  10
ENDBRANCH   1   3
BRANCH   1  13
ATOM     13  O   LIG    1       26.028 -21.336   6.717  0.00  0.00    -0.460 OA
BRANCH  13  14
ATOM     14  C   LIG    1       25.164 -20.714   7.682  0.00  0.00    +0.247 C 
BRANCH  14  15
ATOM     15  C   LIG    1       23.679 -20.814   7.276  0.00  0.00    +0.125 C 
BRANCH  15  16
ATOM     16  N   LIG    1       23.394 -21.787   6.193  0.00  0.00    -0.300 NA
BRANCH  16  18
ATOM     17  C   LIG    1       23.556 -24.289   6.637  0.00  0.00    +0.020 C 
ATOM     18  C   LIG    1       22.727 -23.008   6.668  0.00  0.00    +0.081 C 
ENDBRANCH  16  18
BRANCH  16  19
ATOM     19  C   LIG    1       22.696 -21.118   5.080  0.00  0.00    +0.081 C 
ATOM     20  C   LIG    1       22.582 -19.603   5.241  0.00  0.00    +0.020 C 
ENDBRANCH  16  19
ENDBRANCH  15  16
ENDBRANCH  14  15
ENDBRANCH  13  14
ENDBRANCH   1  13
TORSDOF 8
ENDMDL
MODEL 7
REMARK VINA RESULT:      -6.7      3.798      4.936
REMARK  Name = *****
REMARK                            x       y       z     vdW  Elec       q    Type
REMARK                         _______ _______ _______ _____ _____    ______ ____
ROOT
ATOM      1  C   LIG    1       25.548 -22.341   7.467  0.00  0.00    +0.341 C 
ATOM      2  O   LIG    1       25.170 -21.836   8.503  0.00  0.00    -0.245 OA
ENDROOT
BRANCH   1   3
ATOM      3  C   LIG    1       25.166 -23.690   6.971  0.00  0.00    +0.077 A 
ATOM      4  C   LIG    1       23.843 -24.022   6.659  0.00  0.00    +0.057 A 
ATOM      5 CL   LIG    1       22.522 -22.910   6.762  0.00  0.00    -0.083 Cl
ATOM      6  C   LIG    1       23.534 -25.318   6.211  0.00  0.00    +0.043 A 
ATOM      7  C   LIG    1       24.533 -26.277   6.031  0.00  0.00    +0.026 A 
ATOM      8  C   LIG    1       25.839 -25.959   6.403  0.00  0.00    +0.023 A 
ATOM      9  C   LIG    1       26.157 -24.674   6.852  0.00  0.00    +0.018 A 
BRANCH   7  10
ATOM     10  N   LIG    1       24.198 -27.597   5.713  0.00  0.00    -0.358 N 
ATOM     11  H   LIG    1       23.559 -27.690   4.928  0.00  0.00    +0.142 HD
ATOM     12  H   LIG    1       24.994 -28.222   5.633  0.00  0.00    +0.142 HD
ENDBRANCH   7  10
ENDBRANCH   1   3
BRANCH   1  13
ATOM     13  O   LIG    1       26.393 -21.764   6.569  0.00  0.00    -0.460 OA
BRANCH  13  14
ATOM     14  C   LIG    1       25.911 -20.557   5.956  0.00  0.00    +0.247 C 
BRANCH  14  15
ATOM     15  C   LIG    1       24.843 -20.845   4.879  0.00  0.00    +0.125 C 
BRANCH  15  16
ATOM     16  N   LIG    1       24.751 -19.825   3.807  0.00  0.00    -0.300 NA
BRANCH  16  18
ATOM     17  C   LIG    1       22.531 -19.383   4.973  0.00  0.00    +0.020 C 
ATOM     18  C   LIG    1       23.491 -19.067   3.831  0.00  0.00    +0.081 C 
ENDBRANCH  16  18
BRANCH  16  19
ATOM     19  C   LIG    1       25.959 -18.980   3.803  0.00  0.00    +0.081 C 
ATOM     20  C   LIG    1       25.726 -17.570   3.266  0.00  0.00    +0.020 C 
ENDBRANCH  16  19
ENDBRANCH  15  16
ENDBRANCH  14  15
ENDBRANCH  13  14
ENDBRANCH   1  13
TORSDOF 8
ENDMDL
MODEL 8
REMARK VINA RESULT:      -6.6      2.158      2.541
REMARK  Name = *****
REMARK                            x       y       z     vdW  Elec       q    Type
REMARK                         _______ _______ _______ _____ _____    ______ ____
ROOT
ATOM      1  C   LIG    1       27.519 -20.490   7.253  0.00  0.00    +0.341 C 
ATOM      2  O   LIG    1       27.341 -20.199   8.417  0.00  0.00    -0.245 OA
ENDROOT
BRANCH   1   3
ATOM      3  C   LIG    1       26.451 -20.796   6.264  0.00  0.00    +0.077 A 
ATOM      4  C   LIG    1       25.651 -21.940   6.363  0.00  0.00    +0.057 A 
ATOM      5 CL   LIG    1       25.769 -23.089   7.651  0.00  0.00    -0.083 Cl
ATOM      6  C   LIG    1       24.667 -22.191   5.391  0.00  0.00    +0.043 A 
ATOM      7  C   LIG    1       24.443 -21.297   4.341  0.00  0.00    +0.026 A 
ATOM      8  C   LIG    1       25.286 -20.193   4.214  0.00  0.00    +0.023 A 
ATOM      9  C   LIG    1       26.268 -19.934   5.175  0.00  0.00    +0.018 A 
BRANCH   7  10
ATOM     10  N   LIG    1       23.556 -21.623   3.311  0.00  0.00    -0.358 N 
ATOM     11  H   LIG    1       22.577 -21.621   3.584  0.00  0.00    +0.142 HD
ATOM     12  H   LIG    1       23.713 -21.111   2.448  0.00  0.00    +0.142 HD
ENDBRANCH   7  10
ENDBRANCH   1   3
BRANCH   1  13
ATOM     13  O   LIG    1       28.730 -20.591   6.639  0.00  0.00    -0.460 OA
BRANCH  13  14
ATOM     14  C   LIG    1       29.313 -19.347   6.217  0.00  0.00    +0.247 C 
BRANCH  14  15
ATOM     15  C   LIG    1       30.621 -19.036   6.974  0.00  0.00    +0.125 C 
BRANCH  15  16
ATOM     16  N   LIG    1       30.510 -19.080   8.452  0.00  0.00    -0.300 NA
BRANCH  16  18
ATOM     17  C   LIG    1       31.069 -21.496   9.032  0.00  0.00    +0.020 C 
ATOM     18  C   LIG    1       31.451 -20.020   9.080  0.00  0.00    +0.081 C 
ENDBRANCH  16  18
BRANCH  16  19
ATOM     19  C   LIG    1       30.568 -17.715   9.006  0.00  0.00    +0.081 C 
ATOM     20  C   LIG    1       30.370 -17.653  10.520  0.00  0.00    +0.020 C 
ENDBRANCH  16  19
ENDBRANCH  15  16
ENDBRANCH  14  15
ENDBRANCH  13  14
ENDBRANCH   1  13
TORSDOF 8
ENDMDL
MODEL 9
REMARK VINA RESULT:      -6.6      2.248      6.371
REMARK  Name = *****
REMARK                            x       y       z     vdW  Elec       q    Type
REMARK                         _______ _______ _______ _____ _____    ______ ____
ROOT
ATOM      1  C   LIG    1       26.958 -21.972   7.897  0.00  0.00    +0.341 C 
ATOM      2  O   LIG    1       26.184 -21.837   8.821  0.00  0.00    -0.245 OA
ENDROOT
BRANCH   1   3
ATOM      3  C   LIG    1       28.214 -21.200   7.700  0.00  0.00    +0.077 A 
ATOM      4  C   LIG    1       28.355 -20.257   6.675  0.00  0.00    +0.057 A 
ATOM      5 CL   LIG    1       27.093 -19.846   5.566  0.00  0.00    -0.083 Cl
ATOM      6  C   LIG    1       29.570 -19.568   6.522  0.00  0.00    +0.043 A 
ATOM      7  C   LIG    1       30.635 -19.776   7.401  0.00  0.00    +0.026 A 
ATOM      8  C   LIG    1       30.510 -20.762   8.379  0.00  0.00    +0.023 A 
ATOM      9  C   LIG    1       29.306 -21.455   8.540  0.00  0.00    +0.018 A 
BRANCH   7  10
ATOM     10  N   LIG    1       31.878 -19.184   7.158  0.00  0.00    -0.358 N 
ATOM     11  H   LIG    1       31.878 -18.498   6.409  0.00  0.00    +0.142 HD
ATOM     12  H   LIG    1       32.345 -18.839   7.992  0.00  0.00    +0.142 HD
ENDBRANCH   7  10
ENDBRANCH   1   3
BRANCH   1  13
ATOM     13  O   LIG    1       26.818 -22.855   6.870  0.00  0.00    -0.460 OA
BRANCH  13  14
ATOM     14  C   LIG    1       25.543 -23.515   6.795  0.00  0.00    +0.247 C 
BRANCH  14  15
ATOM     15  C   LIG    1       24.815 -23.210   5.468  0.00  0.00    +0.125 C 
BRANCH  15  16
ATOM     16  N   LIG    1       24.356 -21.809   5.317  0.00  0.00    -0.300 NA
BRANCH  16  18
ATOM     17  C   LIG    1       24.056 -19.895   3.664  0.00  0.00    +0.020 C 
ATOM     18  C   LIG    1       24.206 -21.392   3.915  0.00  0.00    +0.081 C 
ENDBRANCH  16  18
BRANCH  16  19
ATOM     19  C   LIG    1       23.157 -21.575   6.143  0.00  0.00    +0.081 C 
ATOM     20  C   LIG    1       23.369 -20.568   7.271  0.00  0.00    +0.020 C 
ENDBRANCH  16  19
ENDBRANCH  15  16
ENDBRANCH  14  15
ENDBRANCH  13  14
ENDBRANCH   1  13
TORSDOF 8
ENDMDL
