MODEL 1
REMARK VINA RESULT:      -8.5      0.000      0.000
REMARK  Name = *****
REMARK                            x       y       z     vdW  Elec       q    Type
REMARK                         _______ _______ _______ _____ _____    ______ ____
ROOT
ATOM      1  C   LIG    1       29.031 -19.447   7.659  0.00  0.00    +0.046 A 
ATOM      2  C   LIG    1       27.871 -19.976   8.258  0.00  0.00    +0.043 A 
ATOM      3  C   LIG    1       26.748 -20.417   7.517  0.00  0.00    +0.133 A 
ATOM      4  C   LIG    1       26.817 -20.323   6.128  0.00  0.00    +0.285 A 
ATOM      5  C   LIG    1       27.940 -19.790   5.491  0.00  0.00    +0.086 A 
ATOM      6  C   LIG    1       29.029 -19.359   6.256  0.00  0.00    +0.030 A 
ENDROOT
BRANCH   1  11
ATOM      7  C   LIG    1       32.566 -16.664   9.396  0.00  0.00    +0.041 C 
ATOM      8  C   LIG    1       31.619 -17.771   9.832  0.00  0.00    +0.107 C 
ATOM      9  C   LIG    1       30.336 -17.772   8.991  0.00  0.00    +0.250 C 
ATOM     10  O   LIG    1       29.615 -16.784   8.908  0.00  0.00    -0.272 OA
ATOM     11  N   LIG    1       30.157 -19.028   8.436  0.00  0.00    -0.193 N 
ATOM     12  C   LIG    1       31.242 -19.812   8.762  0.00  0.00    +0.314 C 
ATOM     13  O   LIG    1       31.483 -20.982   8.500  0.00  0.00    -0.252 OA
ATOM     14  N   LIG    1       32.130 -19.069   9.506  0.00  0.00    -0.285 N 
ATOM     15  H   LIG    1       32.960 -19.501   9.894  0.00  0.00    +0.151 HD
ATOM     16  C   LIG    1       31.260 -17.683  11.313  0.00  0.00    +0.041 C 
ENDBRANCH   1  11
BRANCH   3  17
ATOM     17  C   LIG    1       25.560 -20.945   8.278  0.00  0.00    +0.424 C 
ATOM     18  F   LIG    1       25.597 -20.566   9.587  0.00  0.00    -0.166 F 
ATOM     19  F   LIG    1       25.527 -22.305   8.289  0.00  0.00    -0.166 F 
ATOM     20  F   LIG    1       24.350 -20.538   7.824  0.00  0.00    -0.166 F 
ENDBRANCH   3  17
BRANCH   4  21
ATOM     21  N   LIG    1       25.744 -20.804   5.279  0.00  0.00    +0.080 N 
ATOM     22  O   LIG    1       25.519 -22.018   5.306  0.00  0.00    -0.576 OA
ATOM     23  O   LIG    1       25.179 -19.966   4.566  0.00  0.00    +0.042 OA
ENDBRANCH   4  21
TORSDOF 3
ENDMDL
MODEL 2
REMARK VINA RESULT:      -7.9      3.200      6.791
REMARK  Name = *****
REMARK                            x       y       z     vdW  Elec       q    Type
REMARK                         _______ _______ _______ _____ _____    ______ ____
ROOT
ATOM      1  C   LIG    1       26.863 -20.664   6.903  0.00  0.00    +0.046 A 
ATOM      2  C   LIG    1       27.894 -19.764   6.565  0.00  0.00    +0.043 A 
ATOM      3  C   LIG    1       29.180 -19.800   7.157  0.00  0.00    +0.133 A 
ATOM      4  C   LIG    1       29.421 -20.788   8.110  0.00  0.00    +0.285 A 
ATOM      5  C   LIG    1       28.425 -21.692   8.488  0.00  0.00    +0.086 A 
ATOM      6  C   LIG    1       27.164 -21.622   7.886  0.00  0.00    +0.030 A 
ENDROOT
BRANCH   1  11
ATOM      7  C   LIG    1       23.206 -19.103   4.175  0.00  0.00    +0.041 C 
ATOM      8  C   LIG    1       23.844 -20.396   4.657  0.00  0.00    +0.107 C 
ATOM      9  C   LIG    1       25.333 -20.200   4.973  0.00  0.00    +0.250 C 
ATOM     10  O   LIG    1       26.123 -19.776   4.136  0.00  0.00    -0.272 OA
ATOM     11  N   LIG    1       25.580 -20.612   6.272  0.00  0.00    -0.193 N 
ATOM     12  C   LIG    1       24.384 -20.971   6.855  0.00  0.00    +0.314 C 
ATOM     13  O   LIG    1       24.146 -21.409   7.972  0.00  0.00    -0.252 OA
ATOM     14  N   LIG    1       23.364 -20.776   5.952  0.00  0.00    -0.285 N 
ATOM     15  H   LIG    1       22.417 -21.051   6.183  0.00  0.00    +0.151 HD
ATOM     16  C   LIG    1       23.680 -21.537   3.657  0.00  0.00    +0.041 C 
ENDBRANCH   1  11
BRANCH   3  17
ATOM     17  C   LIG    1       30.189 -18.770   6.723  0.00  0.00    +0.424 C 
ATOM     18  F   LIG    1       30.429 -17.861   7.711  0.00  0.00    -0.166 F 
ATOM     19  F   LIG    1       29.752 -18.048   5.656  0.00  0.00    -0.166 F 
ATOM     20  F   LIG    1       31.407 -19.255   6.383  0.00  0.00    -0.166 F 
ENDBRANCH   3  17
BRANCH   4  21
ATOM     21  N   LIG    1       30.723 -20.947   8.728  0.00  0.00    +0.080 N 
ATOM     22  O   LIG    1       31.448 -21.837   8.272  0.00  0.00    -0.576 OA
ATOM     23  O   LIG    1       30.978 -20.210   9.689  0.00  0.00    +0.042 OA
ENDBRANCH   4  21
TORSDOF 3
ENDMDL
MODEL 3
REMARK VINA RESULT:      -7.8      2.837      6.566
REMARK  Name = *****
REMARK                            x       y       z     vdW  Elec       q    Type
REMARK                         _______ _______ _______ _____ _____    ______ ____
ROOT
ATOM      1  C   LIG    1       27.500 -20.736   6.577  0.00  0.00    +0.046 A 
ATOM      2  C   LIG    1       28.410 -21.243   7.527  0.00  0.00    +0.043 A 
ATOM      3  C   LIG    1       29.677 -20.662   7.774  0.00  0.00    +0.133 A 
ATOM      4  C   LIG    1       30.019 -19.529   7.038  0.00  0.00    +0.285 A 
ATOM      5  C   LIG    1       29.156 -19.000   6.075  0.00  0.00    +0.086 A 
ATOM      6  C   LIG    1       27.913 -19.605   5.854  0.00  0.00    +0.030 A 
ENDROOT
BRANCH   1  11
ATOM      7  C   LIG    1       23.974 -24.026   6.566  0.00  0.00    +0.041 C 
ATOM      8  C   LIG    1       24.180 -22.524   6.685  0.00  0.00    +0.107 C 
ATOM      9  C   LIG    1       25.572 -22.194   7.240  0.00  0.00    +0.250 C 
ATOM     10  O   LIG    1       25.961 -22.631   8.318  0.00  0.00    -0.272 OA
ATOM     11  N   LIG    1       26.219 -21.336   6.366  0.00  0.00    -0.193 N 
ATOM     12  C   LIG    1       25.418 -21.150   5.260  0.00  0.00    +0.314 C 
ATOM     13  O   LIG    1       25.589 -20.460   4.264  0.00  0.00    -0.252 OA
ATOM     14  N   LIG    1       24.270 -21.895   5.401  0.00  0.00    -0.285 N 
ATOM     15  H   LIG    1       23.530 -21.830   4.713  0.00  0.00    +0.151 HD
ATOM     16  C   LIG    1       23.115 -21.854   7.548  0.00  0.00    +0.041 C 
ENDBRANCH   1  11
BRANCH   3  17
ATOM     17  C   LIG    1       30.566 -21.311   8.802  0.00  0.00    +0.424 C 
ATOM     18  F   LIG    1       29.904 -22.285   9.490  0.00  0.00    -0.166 F 
ATOM     19  F   LIG    1       30.991 -20.422   9.740  0.00  0.00    -0.166 F 
ATOM     20  F   LIG    1       31.677 -21.913   8.314  0.00  0.00    -0.166 F 
ENDBRANCH   3  17
BRANCH   4  21
ATOM     21  N   LIG    1       31.267 -18.825   7.261  0.00  0.00    +0.080 N 
ATOM     22  O   LIG    1       31.223 -17.841   8.007  0.00  0.00    -0.576 OA
ATOM     23  O   LIG    1       32.258 -19.240   6.648  0.00  0.00    +0.042 OA
ENDBRANCH   4  21
TORSDOF 3
ENDMDL
MODEL 4
REMARK VINA RESULT:      -7.8      3.239      6.898
REMARK  Name = *****
REMARK                            x       y       z     vdW  Elec       q    Type
REMARK                         _______ _______ _______ _____ _____    ______ ____
ROOT
ATOM      1  C   LIG    1       26.528 -20.580   6.429  0.00  0.00    +0.046 A 
ATOM      2  C   LIG    1       27.599 -19.699   6.183  0.00  0.00    +0.043 A 
ATOM      3  C   LIG    1       28.833 -19.766   6.875  0.00  0.00    +0.133 A 
ATOM      4  C   LIG    1       28.978 -20.766   7.835  0.00  0.00    +0.285 A 
ATOM      5  C   LIG    1       27.938 -21.652   8.124  0.00  0.00    +0.086 A 
ATOM      6  C   LIG    1       26.730 -21.552   7.424  0.00  0.00    +0.030 A 
ENDROOT
BRANCH   1  11
ATOM      7  C   LIG    1       21.988 -21.467   5.066  0.00  0.00    +0.041 C 
ATOM      8  C   LIG    1       22.994 -20.329   5.133  0.00  0.00    +0.107 C 
ATOM      9  C   LIG    1       24.029 -20.563   6.242  0.00  0.00    +0.250 C 
ATOM     10  O   LIG    1       23.699 -20.734   7.410  0.00  0.00    -0.272 OA
ATOM     11  N   LIG    1       25.301 -20.498   5.698  0.00  0.00    -0.193 N 
ATOM     12  C   LIG    1       25.189 -20.334   4.334  0.00  0.00    +0.314 C 
ATOM     13  O   LIG    1       26.052 -20.209   3.477  0.00  0.00    -0.252 OA
ATOM     14  N   LIG    1       23.857 -20.312   3.989  0.00  0.00    -0.285 N 
ATOM     15  H   LIG    1       23.579 -20.131   3.032  0.00  0.00    +0.151 HD
ATOM     16  C   LIG    1       22.328 -18.971   5.334  0.00  0.00    +0.041 C 
ENDBRANCH   1  11
BRANCH   3  17
ATOM     17  C   LIG    1       29.893 -18.752   6.532  0.00  0.00    +0.424 C 
ATOM     18  F   LIG    1       29.533 -17.998   5.455  0.00  0.00    -0.166 F 
ATOM     19  F   LIG    1       31.070 -19.343   6.192  0.00  0.00    -0.166 F 
ATOM     20  F   LIG    1       30.182 -17.859   7.510  0.00  0.00    -0.166 F 
ENDBRANCH   3  17
BRANCH   4  21
ATOM     21  N   LIG    1       30.223 -20.955   8.553  0.00  0.00    +0.080 N 
ATOM     22  O   LIG    1       30.872 -21.970   8.279  0.00  0.00    -0.576 OA
ATOM     23  O   LIG    1       30.506 -20.111   9.412  0.00  0.00    +0.042 OA
ENDBRANCH   4  21
TORSDOF 3
ENDMDL
MODEL 5
REMARK VINA RESULT:      -7.7      2.984      6.511
REMARK  Name = *****
REMARK                            x       y       z     vdW  Elec       q    Type
REMARK                         _______ _______ _______ _____ _____    ______ ____
ROOT
ATOM      1  C   LIG    1       27.474 -20.678   7.208  0.00  0.00    +0.046 A 
ATOM      2  C   LIG    1       28.495 -21.231   8.007  0.00  0.00    +0.043 A 
ATOM      3  C   LIG    1       29.821 -20.734   8.023  0.00  0.00    +0.133 A 
ATOM      4  C   LIG    1       30.107 -19.640   7.209  0.00  0.00    +0.285 A 
ATOM      5  C   LIG    1       29.132 -19.069   6.389  0.00  0.00    +0.086 A 
ATOM      6  C   LIG    1       27.833 -19.590   6.394  0.00  0.00    +0.030 A 
ENDROOT
BRANCH   1  11
ATOM      7  C   LIG    1       22.872 -21.410   5.968  0.00  0.00    +0.041 C 
ATOM      8  C   LIG    1       24.054 -22.143   6.582  0.00  0.00    +0.107 C 
ATOM      9  C   LIG    1       25.387 -21.538   6.119  0.00  0.00    +0.250 C 
ATOM     10  O   LIG    1       25.680 -21.449   4.932  0.00  0.00    -0.272 OA
ATOM     11  N   LIG    1       26.139 -21.192   7.229  0.00  0.00    -0.193 N 
ATOM     12  C   LIG    1       25.389 -21.430   8.361  0.00  0.00    +0.314 C 
ATOM     13  O   LIG    1       25.670 -21.287   9.543  0.00  0.00    -0.252 OA
ATOM     14  N   LIG    1       24.153 -21.908   7.992  0.00  0.00    -0.285 N 
ATOM     15  H   LIG    1       23.488 -22.204   8.696  0.00  0.00    +0.151 HD
ATOM     16  C   LIG    1       24.038 -23.638   6.277  0.00  0.00    +0.041 C 
ENDBRANCH   1  11
BRANCH   3  17
ATOM     17  C   LIG    1       30.825 -21.425   8.908  0.00  0.00    +0.424 C 
ATOM     18  F   LIG    1       30.227 -22.341   9.721  0.00  0.00    -0.166 F 
ATOM     19  F   LIG    1       31.458 -20.553   9.738  0.00  0.00    -0.166 F 
ATOM     20  F   LIG    1       31.799 -22.109   8.259  0.00  0.00    -0.166 F 
ENDBRANCH   3  17
BRANCH   4  21
ATOM     21  N   LIG    1       31.419 -19.021   7.202  0.00  0.00    +0.080 N 
ATOM     22  O   LIG    1       31.580 -18.056   7.956  0.00  0.00    -0.576 OA
ATOM     23  O   LIG    1       32.248 -19.480   6.407  0.00  0.00    +0.042 OA
ENDBRANCH   4  21
TORSDOF 3
ENDMDL
MODEL 6
REMARK VINA RESULT:      -7.4      1.940      2.551
REMARK  Name = *****
REMARK                            x       y       z     vdW  Elec       q    Type
REMARK                         _______ _______ _______ _____ _____    ______ ____
ROOT
ATOM      1  C   LIG    1       27.304 -20.034   6.333  0.00  0.00    +0.046 A 
ATOM      2  C   LIG    1       26.166 -20.594   6.947  0.00  0.00    +0.043 A 
ATOM      3  C   LIG    1       24.931 -20.769   6.277  0.00  0.00    +0.133 A 
ATOM      4  C   LIG    1       24.861 -20.369   4.944  0.00  0.00    +0.285 A 
ATOM      5  C   LIG    1       25.959 -19.794   4.299  0.00  0.00    +0.086 A 
ATOM      6  C   LIG    1       27.162 -19.632   4.994  0.00  0.00    +0.030 A 
ENDROOT
BRANCH   1  11
ATOM      7  C   LIG    1       31.968 -19.133   7.168  0.00  0.00    +0.041 C 
ATOM      8  C   LIG    1       30.612 -19.038   7.850  0.00  0.00    +0.107 C 
ATOM      9  C   LIG    1       29.480 -18.891   6.823  0.00  0.00    +0.250 C 
ATOM     10  O   LIG    1       29.463 -17.978   6.005  0.00  0.00    -0.272 OA
ATOM     11  N   LIG    1       28.544 -19.889   7.033  0.00  0.00    -0.193 N 
ATOM     12  C   LIG    1       29.002 -20.719   8.034  0.00  0.00    +0.314 C 
ATOM     13  O   LIG    1       28.487 -21.704   8.546  0.00  0.00    -0.252 OA
ATOM     14  N   LIG    1       30.234 -20.278   8.459  0.00  0.00    -0.285 N 
ATOM     15  H   LIG    1       30.696 -20.727   9.240  0.00  0.00    +0.151 HD
ATOM     16  C   LIG    1       30.542 -17.892   8.855  0.00  0.00    +0.041 C 
ENDBRANCH   1  11
BRANCH   3  17
ATOM     17  C   LIG    1       23.784 -21.363   7.050  0.00  0.00    +0.424 C 
ATOM     18  F   LIG    1       22.952 -20.395   7.532  0.00  0.00    -0.166 F 
ATOM     19  F   LIG    1       24.210 -22.058   8.139  0.00  0.00    -0.166 F 
ATOM     20  F   LIG    1       22.982 -22.203   6.350  0.00  0.00    -0.166 F 
ENDBRANCH   3  17
BRANCH   4  21
ATOM     21  N   LIG    1       23.661 -20.563   4.154  0.00  0.00    +0.080 N 
ATOM     22  O   LIG    1       23.679 -21.487   3.334  0.00  0.00    -0.576 OA
ATOM     23  O   LIG    1       22.739 -19.757   4.334  0.00  0.00    +0.042 OA
ENDBRANCH   4  21
TORSDOF 3
ENDMDL
MODEL 7
REMARK VINA RESULT:      -7.3      3.181      7.038
REMARK  Name = *****
REMARK                            x       y       z     vdW  Elec       q    Type
REMARK                         _______ _______ _______ _____ _____    ______ ____
ROOT
ATOM      1  C   LIG    1       27.057 -21.444   6.781  0.00  0.00    +0.046 A 
ATOM      2  C   LIG    1       27.668 -20.371   6.101  0.00  0.00    +0.043 A 
ATOM      3  C   LIG    1       28.790 -19.671   6.608  0.00  0.00    +0.133 A 
ATOM      4  C   LIG    1       29.305 -20.084   7.835  0.00  0.00    +0.285 A 
ATOM      5  C   LIG    1       28.723 -21.132   8.552  0.00  0.00    +0.086 A 
ATOM      6  C   LIG    1       27.611 -21.797   8.023  0.00  0.00    +0.030 A 
ENDROOT
BRANCH   1  11
ATOM      7  C   LIG    1       24.348 -25.053   5.082  0.00  0.00    +0.041 C 
ATOM      8  C   LIG    1       24.218 -23.747   5.850  0.00  0.00    +0.107 C 
ATOM      9  C   LIG    1       25.513 -23.410   6.601  0.00  0.00    +0.250 C 
ATOM     10  O   LIG    1       26.010 -24.181   7.414  0.00  0.00    -0.272 OA
ATOM     11  N   LIG    1       25.936 -22.143   6.233  0.00  0.00    -0.193 N 
ATOM     12  C   LIG    1       25.092 -21.665   5.254  0.00  0.00    +0.314 C 
ATOM     13  O   LIG    1       25.086 -20.592   4.667  0.00  0.00    -0.252 OA
ATOM     14  N   LIG    1       24.141 -22.618   4.971  0.00  0.00    -0.285 N 
ATOM     15  H   LIG    1       23.392 -22.416   4.320  0.00  0.00    +0.151 HD
ATOM     16  C   LIG    1       23.048 -23.757   6.829  0.00  0.00    +0.041 C 
ENDBRANCH   1  11
BRANCH   3  17
ATOM     17  C   LIG    1       29.338 -18.529   5.793  0.00  0.00    +0.424 C 
ATOM     18  F   LIG    1       30.558 -18.834   5.264  0.00  0.00    -0.166 F 
ATOM     19  F   LIG    1       29.532 -17.413   6.546  0.00  0.00    -0.166 F 
ATOM     20  F   LIG    1       28.579 -18.150   4.737  0.00  0.00    -0.166 F 
ENDBRANCH   3  17
BRANCH   4  21
ATOM     21  N   LIG    1       30.488 -19.471   8.407  0.00  0.00    +0.080 N 
ATOM     22  O   LIG    1       31.578 -19.855   7.970  0.00  0.00    -0.576 OA
ATOM     23  O   LIG    1       30.307 -18.652   9.317  0.00  0.00    +0.042 OA
ENDBRANCH   4  21
TORSDOF 3
ENDMDL
MODEL 8
REMARK VINA RESULT:      -7.3      2.552      3.688
REMARK  Name = *****
REMARK                            x       y       z     vdW  Elec       q    Type
REMARK                         _______ _______ _______ _____ _____    ______ ____
ROOT
ATOM      1  C   LIG    1       27.188 -20.757   6.696  0.00  0.00    +0.046 A 
ATOM      2  C   LIG    1       25.983 -20.353   6.087  0.00  0.00    +0.043 A 
ATOM      3  C   LIG    1       24.848 -21.194   5.982  0.00  0.00    +0.133 A 
ATOM      4  C   LIG    1       24.945 -22.475   6.520  0.00  0.00    +0.285 A 
ATOM      5  C   LIG    1       26.124 -22.925   7.119  0.00  0.00    +0.086 A 
ATOM      6  C   LIG    1       27.228 -22.069   7.200  0.00  0.00    +0.030 A 
ENDROOT
BRANCH   1  11
ATOM      7  C   LIG    1       30.423 -17.741   8.619  0.00  0.00    +0.041 C 
ATOM      8  C   LIG    1       30.307 -18.813   7.547  0.00  0.00    +0.107 C 
ATOM      9  C   LIG    1       29.188 -19.811   7.874  0.00  0.00    +0.250 C 
ATOM     10  O   LIG    1       29.169 -20.442   8.925  0.00  0.00    -0.272 OA
ATOM     11  N   LIG    1       28.311 -19.877   6.804  0.00  0.00    -0.193 N 
ATOM     12  C   LIG    1       28.702 -18.956   5.857  0.00  0.00    +0.314 C 
ATOM     13  O   LIG    1       28.228 -18.696   4.760  0.00  0.00    -0.252 OA
ATOM     14  N   LIG    1       29.812 -18.282   6.312  0.00  0.00    -0.285 N 
ATOM     15  H   LIG    1       30.282 -17.610   5.718  0.00  0.00    +0.151 HD
ATOM     16  C   LIG    1       31.616 -19.567   7.330  0.00  0.00    +0.041 C 
ENDBRANCH   1  11
BRANCH   3  17
ATOM     17  C   LIG    1       23.626 -20.649   5.290  0.00  0.00    +0.424 C 
ATOM     18  F   LIG    1       23.919 -19.532   4.564  0.00  0.00    -0.166 F 
ATOM     19  F   LIG    1       22.666 -20.270   6.177  0.00  0.00    -0.166 F 
ATOM     20  F   LIG    1       23.027 -21.493   4.416  0.00  0.00    -0.166 F 
ENDBRANCH   3  17
BRANCH   4  21
ATOM     21  N   LIG    1       23.819 -23.388   6.516  0.00  0.00    +0.080 N 
ATOM     22  O   LIG    1       22.829 -23.051   7.175  0.00  0.00    -0.576 OA
ATOM     23  O   LIG    1       23.962 -24.448   5.894  0.00  0.00    +0.042 OA
ENDBRANCH   4  21
TORSDOF 3
ENDMDL
MODEL 9
REMARK VINA RESULT:      -7.1      2.957      3.789
REMARK  Name = *****
REMARK                            x       y       z     vdW  Elec       q    Type
REMARK                         _______ _______ _______ _____ _____    ______ ____
ROOT
ATOM      1  C   LIG    1       26.799 -20.292   6.768  0.00  0.00    +0.046 A 
ATOM      2  C   LIG    1       26.405 -20.097   5.429  0.00  0.00    +0.043 A 
ATOM      3  C   LIG    1       25.067 -20.234   4.987  0.00  0.00    +0.133 A 
ATOM      4  C   LIG    1       24.107 -20.569   5.939  0.00  0.00    +0.285 A 
ATOM      5  C   LIG    1       24.452 -20.787   7.274  0.00  0.00    +0.086 A 
ATOM      6  C   LIG    1       25.786 -20.649   7.675  0.00  0.00    +0.030 A 
ENDROOT
BRANCH   1  11
ATOM      7  C   LIG    1       31.536 -19.413   6.566  0.00  0.00    +0.041 C 
ATOM      8  C   LIG    1       30.351 -19.260   7.506  0.00  0.00    +0.107 C 
ATOM      9  C   LIG    1       29.032 -19.155   6.730  0.00  0.00    +0.250 C 
ATOM     10  O   LIG    1       28.847 -18.290   5.881  0.00  0.00    -0.272 OA
ATOM     11  N   LIG    1       28.157 -20.126   7.186  0.00  0.00    -0.193 N 
ATOM     12  C   LIG    1       28.810 -20.904   8.117  0.00  0.00    +0.314 C 
ATOM     13  O   LIG    1       28.411 -21.851   8.781  0.00  0.00    -0.252 OA
ATOM     14  N   LIG    1       30.105 -20.458   8.252  0.00  0.00    -0.285 N 
ATOM     15  H   LIG    1       30.718 -20.869   8.945  0.00  0.00    +0.151 HD
ATOM     16  C   LIG    1       30.494 -18.058   8.436  0.00  0.00    +0.041 C 
ENDBRANCH   1  11
BRANCH   3  17
ATOM     17  C   LIG    1       24.779 -20.017   3.524  0.00  0.00    +0.424 C 
ATOM     18  F   LIG    1       25.929 -19.878   2.804  0.00  0.00    -0.166 F 
ATOM     19  F   LIG    1       24.070 -18.877   3.309  0.00  0.00    -0.166 F 
ATOM     20  F   LIG    1       24.095 -21.014   2.912  0.00  0.00    -0.166 F 
ENDBRANCH   3  17
BRANCH   4  21
ATOM     21  N   LIG    1       22.701 -20.672   5.597  0.00  0.00    +0.080 N 
ATOM     22  O   LIG    1       22.218 -21.809   5.578  0.00  0.00    -0.576 OA
ATOM     23  O   LIG    1       22.118 -19.620   5.308  0.00  0.00    +0.042 OA
ENDBRANCH   4  21
TORSDOF 3
ENDMDL
