MODEL 1
REMARK VINA RESULT:      -9.9      0.000      0.000
REMARK  Name = *****
REMARK                            x       y       z     vdW  Elec       q    Type
REMARK                         _______ _______ _______ _____ _____    ______ ____
ROOT
ATOM      1  C   LIG    1       26.560 -21.467   7.669  0.00  0.00    +0.158 C 
ENDROOT
BRANCH   1   2
ATOM      2  C   LIG    1       27.895 -20.819   7.312  0.00  0.00    -0.017 A 
ATOM      3  C   LIG    1       29.057 -21.188   8.015  0.00  0.00    +0.023 A 
ATOM      4  C   LIG    1       30.280 -20.513   7.823  0.00  0.00    +0.078 A 
ATOM      5  C   LIG    1       30.346 -19.487   6.870  0.00  0.00    +0.129 A 
ATOM      6  C   LIG    1       29.219 -19.146   6.126  0.00  0.00    +0.046 A 
ATOM      7  C   LIG    1       28.006 -19.797   6.355  0.00  0.00    +0.010 A 
BRANCH   4   8
ATOM      8  C   LIG    1       31.419 -20.896   8.714  0.00  0.00    +0.245 C 
ATOM      9  O   LIG    1       32.044 -20.071   9.355  0.00  0.00    -0.270 OA
ATOM     10  N   LIG    1       31.756 -22.220   8.764  0.00  0.00    -0.325 N 
ATOM     11  H   LIG    1       32.544 -22.508   9.325  0.00  0.00    +0.145 HD
ATOM     12  H   LIG    1       31.214 -22.909   8.256  0.00  0.00    +0.145 HD
ENDBRANCH   4   8
BRANCH   5  13
ATOM     13  O   LIG    1       31.503 -18.779   6.659  0.00  0.00    -0.506 OA
ATOM     14  H   LIG    1       32.205 -19.394   6.382  0.00  0.00    +0.292 HD
ENDBRANCH   5  13
ENDBRANCH   1   2
BRANCH   1  15
ATOM     15  O   LIG    1       26.352 -21.452   9.089  0.00  0.00    -0.386 OA
ATOM     16  H   LIG    1       26.884 -20.730   9.457  0.00  0.00    +0.210 HD
ENDBRANCH   1  15
BRANCH   1  17
ATOM     17  C   LIG    1       26.487 -22.934   7.146  0.00  0.00    +0.117 C 
BRANCH  17  18
ATOM     18  N   LIG    1       25.226 -23.606   7.510  0.00  0.00    -0.311 NA
ATOM     19  H   LIG    1       25.430 -24.487   7.983  0.00  0.00    +0.122 HD
BRANCH  18  21
ATOM     20  C   LIG    1       23.896 -25.263   6.176  0.00  0.00    +0.024 C 
ATOM     21  C   LIG    1       24.290 -23.792   6.389  0.00  0.00    +0.051 C 
BRANCH  21  22
ATOM     22  C   LIG    1       22.996 -22.968   6.618  0.00  0.00    +0.023 C 
BRANCH  22  23
ATOM     23  C   LIG    1       23.200 -21.484   6.960  0.00  0.00    +0.036 C 
BRANCH  23  24
ATOM     24  C   LIG    1       23.421 -20.581   5.769  0.00  0.00    -0.047 A 
ATOM     25  C   LIG    1       24.579 -20.691   4.987  0.00  0.00    +0.003 A 
ATOM     26  C   LIG    1       24.774 -19.852   3.889  0.00  0.00    +0.000 A 
ATOM     27  C   LIG    1       23.811 -18.902   3.554  0.00  0.00    +0.000 A 
ATOM     28  C   LIG    1       22.655 -18.787   4.321  0.00  0.00    +0.000 A 
ATOM     29  C   LIG    1       22.460 -19.622   5.422  0.00  0.00    +0.003 A 
ENDBRANCH  23  24
ENDBRANCH  22  23
ENDBRANCH  21  22
ENDBRANCH  18  21
ENDBRANCH  17  18
ENDBRANCH   1  17
TORSDOF 10
ENDMDL
MODEL 2
REMARK VINA RESULT:      -9.8      1.839      3.736
REMARK  Name = *****
REMARK                            x       y       z     vdW  Elec       q    Type
REMARK                         _______ _______ _______ _____ _____    ______ ____
ROOT
ATOM      1  C   LIG    1       28.208 -19.935   5.591  0.00  0.00    +0.158 C 
ENDROOT
BRANCH   1   2
ATOM      2  C   LIG    1       29.289 -19.693   6.640  0.00  0.00    -0.017 A 
ATOM      3  C   LIG    1       29.836 -20.786   7.340  0.00  0.00    +0.023 A 
ATOM      4  C   LIG    1       30.726 -20.599   8.418  0.00  0.00    +0.078 A 
ATOM      5  C   LIG    1       31.112 -19.297   8.761  0.00  0.00    +0.129 A 
ATOM      6  C   LIG    1       30.623 -18.207   8.044  0.00  0.00    +0.046 A 
ATOM      7  C   LIG    1       29.712 -18.405   7.005  0.00  0.00    +0.010 A 
BRANCH   4   8
ATOM      8  C   LIG    1       31.144 -21.819   9.176  0.00  0.00    +0.245 C 
ATOM      9  O   LIG    1       30.807 -22.009  10.331  0.00  0.00    -0.270 OA
ATOM     10  N   LIG    1       31.952 -22.712   8.529  0.00  0.00    -0.325 N 
ATOM     11  H   LIG    1       32.284 -23.526   9.023  0.00  0.00    +0.145 HD
ATOM     12  H   LIG    1       32.204 -22.569   7.558  0.00  0.00    +0.145 HD
ENDBRANCH   4   8
BRANCH   5  13
ATOM     13  O   LIG    1       31.955 -19.054   9.817  0.00  0.00    -0.506 OA
ATOM     14  H   LIG    1       31.434 -18.726  10.570  0.00  0.00    +0.292 HD
ENDBRANCH   5  13
ENDBRANCH   1   2
BRANCH   1  15
ATOM     15  O   LIG    1       27.998 -18.758   4.796  0.00  0.00    -0.386 OA
ATOM     16  H   LIG    1       27.430 -18.159   5.304  0.00  0.00    +0.210 HD
ENDBRANCH   1  15
BRANCH   1  17
ATOM     17  C   LIG    1       26.864 -20.364   6.254  0.00  0.00    +0.117 C 
BRANCH  17  18
ATOM     18  N   LIG    1       25.805 -20.646   5.267  0.00  0.00    -0.311 NA
ATOM     19  H   LIG    1       26.028 -20.186   4.384  0.00  0.00    +0.122 HD
BRANCH  18  21
ATOM     20  C   LIG    1       23.353 -20.885   4.798  0.00  0.00    +0.024 C 
ATOM     21  C   LIG    1       24.445 -20.322   5.724  0.00  0.00    +0.051 C 
BRANCH  21  22
ATOM     22  C   LIG    1       24.205 -20.874   7.154  0.00  0.00    +0.023 C 
BRANCH  22  23
ATOM     23  C   LIG    1       23.340 -22.141   7.245  0.00  0.00    +0.036 C 
BRANCH  23  24
ATOM     24  C   LIG    1       24.064 -23.429   6.932  0.00  0.00    -0.047 A 
ATOM     25  C   LIG    1       25.439 -23.558   7.169  0.00  0.00    +0.003 A 
ATOM     26  C   LIG    1       26.100 -24.752   6.876  0.00  0.00    +0.000 A 
ATOM     27  C   LIG    1       25.393 -25.833   6.352  0.00  0.00    +0.000 A 
ATOM     28  C   LIG    1       24.025 -25.718   6.116  0.00  0.00    +0.000 A 
ATOM     29  C   LIG    1       23.363 -24.522   6.405  0.00  0.00    +0.003 A 
ENDBRANCH  23  24
ENDBRANCH  22  23
ENDBRANCH  21  22
ENDBRANCH  18  21
ENDBRANCH  17  18
ENDBRANCH   1  17
TORSDOF 10
ENDMDL
MODEL 3
REMARK VINA RESULT:      -9.6      1.555      1.846
REMARK  Name = *****
REMARK                            x       y       z     vdW  Elec       q    Type
REMARK                         _______ _______ _______ _____ _____    ______ ____
ROOT
ATOM      1  C   LIG    1       27.636 -20.356   6.053  0.00  0.00    +0.158 C 
ENDROOT
BRANCH   1   2
ATOM      2  C   LIG    1       28.915 -20.038   6.822  0.00  0.00    -0.017 A 
ATOM      3  C   LIG    1       29.577 -21.063   7.525  0.00  0.00    +0.023 A 
ATOM      4  C   LIG    1       30.674 -20.789   8.367  0.00  0.00    +0.078 A 
ATOM      5  C   LIG    1       31.145 -19.472   8.461  0.00  0.00    +0.129 A 
ATOM      6  C   LIG    1       30.536 -18.454   7.731  0.00  0.00    +0.046 A 
ATOM      7  C   LIG    1       29.426 -18.735   6.932  0.00  0.00    +0.010 A 
BRANCH   4   8
ATOM      8  C   LIG    1       31.220 -21.928   9.169  0.00  0.00    +0.245 C 
ATOM      9  O   LIG    1       30.977 -22.059  10.355  0.00  0.00    -0.270 OA
ATOM     10  N   LIG    1       32.037 -22.813   8.522  0.00  0.00    -0.325 N 
ATOM     11  H   LIG    1       32.454 -23.571   9.041  0.00  0.00    +0.145 HD
ATOM     12  H   LIG    1       32.212 -22.721   7.528  0.00  0.00    +0.145 HD
ENDBRANCH   4   8
BRANCH   5  13
ATOM     13  O   LIG    1       32.193 -19.144   9.285  0.00  0.00    -0.506 OA
ATOM     14  H   LIG    1       33.011 -19.534   8.929  0.00  0.00    +0.292 HD
ENDBRANCH   5  13
ENDBRANCH   1   2
BRANCH   1  15
ATOM     15  O   LIG    1       27.421 -19.399   5.005  0.00  0.00    -0.386 OA
ATOM     16  H   LIG    1       26.473 -19.197   4.981  0.00  0.00    +0.210 HD
ENDBRANCH   1  15
BRANCH   1  17
ATOM     17  C   LIG    1       26.398 -20.377   7.002  0.00  0.00    +0.117 C 
BRANCH  17  18
ATOM     18  N   LIG    1       26.208 -21.682   7.660  0.00  0.00    -0.311 NA
ATOM     19  H   LIG    1       27.115 -22.087   7.891  0.00  0.00    +0.122 HD
BRANCH  18  21
ATOM     20  C   LIG    1       25.754 -24.094   7.142  0.00  0.00    +0.024 C 
ATOM     21  C   LIG    1       25.363 -22.625   6.911  0.00  0.00    +0.051 C 
BRANCH  21  22
ATOM     22  C   LIG    1       23.872 -22.450   7.301  0.00  0.00    +0.023 C 
BRANCH  22  23
ATOM     23  C   LIG    1       22.891 -22.271   6.131  0.00  0.00    +0.036 C 
BRANCH  23  24
ATOM     24  C   LIG    1       23.168 -21.080   5.245  0.00  0.00    -0.047 A 
ATOM     25  C   LIG    1       24.108 -21.157   4.209  0.00  0.00    +0.003 A 
ATOM     26  C   LIG    1       24.358 -20.051   3.395  0.00  0.00    +0.000 A 
ATOM     27  C   LIG    1       23.665 -18.860   3.601  0.00  0.00    +0.000 A 
ATOM     28  C   LIG    1       22.724 -18.773   4.625  0.00  0.00    +0.000 A 
ATOM     29  C   LIG    1       22.476 -19.877   5.442  0.00  0.00    +0.003 A 
ENDBRANCH  23  24
ENDBRANCH  22  23
ENDBRANCH  21  22
ENDBRANCH  18  21
ENDBRANCH  17  18
ENDBRANCH   1  17
TORSDOF 10
ENDMDL
MODEL 4
REMARK VINA RESULT:      -9.5      1.869      2.182
REMARK  Name = *****
REMARK                            x       y       z     vdW  Elec       q    Type
REMARK                         _______ _______ _______ _____ _____    ______ ____
ROOT
ATOM      1  C   LIG    1       27.321 -20.429   7.761  0.00  0.00    +0.158 C 
ENDROOT
BRANCH   1   2
ATOM      2  C   LIG    1       28.728 -19.842   7.825  0.00  0.00    -0.017 A 
ATOM      3  C   LIG    1       29.150 -19.172   8.989  0.00  0.00    +0.023 A 
ATOM      4  C   LIG    1       30.381 -18.487   9.040  0.00  0.00    +0.078 A 
ATOM      5  C   LIG    1       31.224 -18.523   7.921  0.00  0.00    +0.129 A 
ATOM      6  C   LIG    1       30.847 -19.226   6.779  0.00  0.00    +0.046 A 
ATOM      7  C   LIG    1       29.607 -19.867   6.730  0.00  0.00    +0.010 A 
BRANCH   4   8
ATOM      8  C   LIG    1       30.673 -17.698  10.277  0.00  0.00    +0.245 C 
ATOM      9  O   LIG    1       29.807 -17.080  10.869  0.00  0.00    -0.270 OA
ATOM     10  N   LIG    1       31.969 -17.671  10.711  0.00  0.00    -0.325 N 
ATOM     11  H   LIG    1       32.209 -17.118  11.520  0.00  0.00    +0.145 HD
ATOM     12  H   LIG    1       32.683 -18.213  10.236  0.00  0.00    +0.145 HD
ENDBRANCH   4   8
BRANCH   5  13
ATOM     13  O   LIG    1       32.422 -17.853   7.905  0.00  0.00    -0.506 OA
ATOM     14  H   LIG    1       32.471 -17.271   8.683  0.00  0.00    +0.292 HD
ENDBRANCH   5  13
ENDBRANCH   1   2
BRANCH   1  15
ATOM     15  O   LIG    1       26.695 -20.391   9.052  0.00  0.00    -0.386 OA
ATOM     16  H   LIG    1       25.898 -20.942   9.009  0.00  0.00    +0.210 HD
ENDBRANCH   1  15
BRANCH   1  17
ATOM     17  C   LIG    1       27.345 -21.897   7.236  0.00  0.00    +0.117 C 
BRANCH  17  18
ATOM     18  N   LIG    1       26.217 -22.701   7.740  0.00  0.00    -0.311 NA
ATOM     19  H   LIG    1       26.547 -23.344   8.459  0.00  0.00    +0.122 HD
BRANCH  18  21
ATOM     20  C   LIG    1       25.535 -24.927   6.808  0.00  0.00    +0.024 C 
ATOM     21  C   LIG    1       25.450 -23.396   6.694  0.00  0.00    +0.051 C 
BRANCH  21  22
ATOM     22  C   LIG    1       23.956 -22.985   6.748  0.00  0.00    +0.023 C 
BRANCH  22  23
ATOM     23  C   LIG    1       23.680 -21.507   7.069  0.00  0.00    +0.036 C 
BRANCH  23  24
ATOM     24  C   LIG    1       23.662 -20.589   5.870  0.00  0.00    -0.047 A 
ATOM     25  C   LIG    1       22.538 -19.803   5.582  0.00  0.00    +0.003 A 
ATOM     26  C   LIG    1       22.530 -18.958   4.471  0.00  0.00    +0.000 A 
ATOM     27  C   LIG    1       23.647 -18.882   3.642  0.00  0.00    +0.000 A 
ATOM     28  C   LIG    1       24.772 -19.655   3.921  0.00  0.00    +0.000 A 
ATOM     29  C   LIG    1       24.780 -20.504   5.029  0.00  0.00    +0.003 A 
ENDBRANCH  23  24
ENDBRANCH  22  23
ENDBRANCH  21  22
ENDBRANCH  18  21
ENDBRANCH  17  18
ENDBRANCH   1  17
TORSDOF 10
ENDMDL
MODEL 5
REMARK VINA RESULT:      -9.4      1.714      3.881
REMARK  Name = *****
REMARK                            x       y       z     vdW  Elec       q    Type
REMARK                         _______ _______ _______ _____ _____    ______ ____
ROOT
ATOM      1  C   LIG    1       26.798 -21.217   6.545  0.00  0.00    +0.158 C 
ENDROOT
BRANCH   1   2
ATOM      2  C   LIG    1       28.184 -20.595   6.694  0.00  0.00    -0.017 A 
ATOM      3  C   LIG    1       29.102 -21.153   7.604  0.00  0.00    +0.023 A 
ATOM      4  C   LIG    1       30.334 -20.528   7.884  0.00  0.00    +0.078 A 
ATOM      5  C   LIG    1       30.671 -19.354   7.196  0.00  0.00    +0.129 A 
ATOM      6  C   LIG    1       29.798 -18.818   6.252  0.00  0.00    +0.046 A 
ATOM      7  C   LIG    1       28.564 -19.426   6.015  0.00  0.00    +0.010 A 
BRANCH   4   8
ATOM      8  C   LIG    1       31.176 -21.132   8.963  0.00  0.00    +0.245 C 
ATOM      9  O   LIG    1       32.208 -20.610   9.346  0.00  0.00    -0.270 OA
ATOM     10  N   LIG    1       30.758 -22.321   9.491  0.00  0.00    -0.325 N 
ATOM     11  H   LIG    1       31.322 -22.776  10.193  0.00  0.00    +0.145 HD
ATOM     12  H   LIG    1       29.883 -22.737   9.194  0.00  0.00    +0.145 HD
ENDBRANCH   4   8
BRANCH   5  13
ATOM     13  O   LIG    1       31.845 -18.689   7.446  0.00  0.00    -0.506 OA
ATOM     14  H   LIG    1       32.025 -18.710   8.403  0.00  0.00    +0.292 HD
ENDBRANCH   5  13
ENDBRANCH   1   2
BRANCH   1  15
ATOM     15  O   LIG    1       26.288 -21.012   5.218  0.00  0.00    -0.386 OA
ATOM     16  H   LIG    1       25.548 -20.389   5.281  0.00  0.00    +0.210 HD
ENDBRANCH   1  15
BRANCH   1  17
ATOM     17  C   LIG    1       25.799 -20.624   7.585  0.00  0.00    +0.117 C 
BRANCH  17  18
ATOM     18  N   LIG    1       24.816 -21.615   8.060  0.00  0.00    -0.311 NA
ATOM     19  H   LIG    1       25.227 -22.548   8.030  0.00  0.00    +0.122 HD
BRANCH  18  21
ATOM     20  C   LIG    1       23.241 -20.203   6.712  0.00  0.00    +0.024 C 
ATOM     21  C   LIG    1       23.519 -21.566   7.368  0.00  0.00    +0.051 C 
BRANCH  21  22
ATOM     22  C   LIG    1       23.445 -22.659   6.270  0.00  0.00    +0.023 C 
BRANCH  22  23
ATOM     23  C   LIG    1       23.221 -24.095   6.770  0.00  0.00    +0.036 C 
BRANCH  23  24
ATOM     24  C   LIG    1       24.278 -25.088   6.347  0.00  0.00    -0.047 A 
ATOM     25  C   LIG    1       23.955 -26.177   5.527  0.00  0.00    +0.003 A 
ATOM     26  C   LIG    1       24.938 -27.090   5.141  0.00  0.00    +0.000 A 
ATOM     27  C   LIG    1       26.255 -26.920   5.564  0.00  0.00    +0.000 A 
ATOM     28  C   LIG    1       26.588 -25.839   6.376  0.00  0.00    +0.000 A 
ATOM     29  C   LIG    1       25.605 -24.927   6.765  0.00  0.00    +0.003 A 
ENDBRANCH  23  24
ENDBRANCH  22  23
ENDBRANCH  21  22
ENDBRANCH  18  21
ENDBRANCH  17  18
ENDBRANCH   1  17
TORSDOF 10
ENDMDL
MODEL 6
REMARK VINA RESULT:      -9.4      3.052      7.914
REMARK  Name = *****
REMARK                            x       y       z     vdW  Elec       q    Type
REMARK                         _______ _______ _______ _____ _____    ______ ____
ROOT
ATOM      1  C   LIG    1       27.200 -21.216   7.962  0.00  0.00    +0.158 C 
ENDROOT
BRANCH   1   2
ATOM      2  C   LIG    1       25.871 -21.908   7.672  0.00  0.00    -0.017 A 
ATOM      3  C   LIG    1       25.863 -23.261   7.282  0.00  0.00    +0.023 A 
ATOM      4  C   LIG    1       24.678 -23.899   6.861  0.00  0.00    +0.078 A 
ATOM      5  C   LIG    1       23.475 -23.181   6.886  0.00  0.00    +0.129 A 
ATOM      6  C   LIG    1       23.456 -21.857   7.322  0.00  0.00    +0.046 A 
ATOM      7  C   LIG    1       24.644 -21.227   7.697  0.00  0.00    +0.010 A 
BRANCH   4   8
ATOM      8  C   LIG    1       24.803 -25.297   6.342  0.00  0.00    +0.245 C 
ATOM      9  O   LIG    1       25.578 -26.100   6.828  0.00  0.00    -0.270 OA
ATOM     10  N   LIG    1       24.027 -25.637   5.269  0.00  0.00    -0.325 N 
ATOM     11  H   LIG    1       24.114 -26.559   4.869  0.00  0.00    +0.145 HD
ATOM     12  H   LIG    1       23.359 -24.978   4.887  0.00  0.00    +0.145 HD
ENDBRANCH   4   8
BRANCH   5  13
ATOM     13  O   LIG    1       22.296 -23.743   6.464  0.00  0.00    -0.506 OA
ATOM     14  H   LIG    1       22.174 -24.598   6.913  0.00  0.00    +0.292 HD
ENDBRANCH   5  13
ENDBRANCH   1   2
BRANCH   1  15
ATOM     15  O   LIG    1       27.017 -20.126   8.879  0.00  0.00    -0.386 OA
ATOM     16  H   LIG    1       27.895 -19.840   9.174  0.00  0.00    +0.210 HD
ENDBRANCH   1  15
BRANCH   1  17
ATOM     17  C   LIG    1       27.860 -20.690   6.651  0.00  0.00    +0.117 C 
BRANCH  17  18
ATOM     18  N   LIG    1       29.317 -20.912   6.618  0.00  0.00    -0.311 NA
ATOM     19  H   LIG    1       29.613 -21.385   7.472  0.00  0.00    +0.122 HD
BRANCH  18  21
ATOM     20  C   LIG    1       29.261 -18.521   5.864  0.00  0.00    +0.024 C 
ATOM     21  C   LIG    1       30.112 -19.701   6.361  0.00  0.00    +0.051 C 
BRANCH  21  22
ATOM     22  C   LIG    1       30.861 -19.257   7.645  0.00  0.00    +0.023 C 
BRANCH  22  23
ATOM     23  C   LIG    1       30.072 -18.344   8.596  0.00  0.00    +0.036 C 
BRANCH  23  24
ATOM     24  C   LIG    1       30.921 -17.526   9.541  0.00  0.00    -0.047 A 
ATOM     25  C   LIG    1       30.500 -17.278  10.855  0.00  0.00    +0.003 A 
ATOM     26  C   LIG    1       31.291 -16.521  11.721  0.00  0.00    +0.000 A 
ATOM     27  C   LIG    1       32.514 -16.012  11.287  0.00  0.00    +0.000 A 
ATOM     28  C   LIG    1       32.944 -16.256   9.985  0.00  0.00    +0.000 A 
ATOM     29  C   LIG    1       32.152 -17.010   9.117  0.00  0.00    +0.003 A 
ENDBRANCH  23  24
ENDBRANCH  22  23
ENDBRANCH  21  22
ENDBRANCH  18  21
ENDBRANCH  17  18
ENDBRANCH   1  17
TORSDOF 10
ENDMDL
MODEL 7
REMARK VINA RESULT:      -9.1      3.390      7.872
REMARK  Name = *****
REMARK                            x       y       z     vdW  Elec       q    Type
REMARK                         _______ _______ _______ _____ _____    ______ ____
ROOT
ATOM      1  C   LIG    1       26.385 -21.537   8.362  0.00  0.00    +0.158 C 
ENDROOT
BRANCH   1   2
ATOM      2  C   LIG    1       25.231 -21.541   7.362  0.00  0.00    -0.017 A 
ATOM      3  C   LIG    1       25.326 -20.768   6.189  0.00  0.00    +0.023 A 
ATOM      4  C   LIG    1       24.231 -20.623   5.312  0.00  0.00    +0.078 A 
ATOM      5  C   LIG    1       23.042 -21.309   5.592  0.00  0.00    +0.129 A 
ATOM      6  C   LIG    1       22.949 -22.123   6.720  0.00  0.00    +0.046 A 
ATOM      7  C   LIG    1       24.028 -22.225   7.599  0.00  0.00    +0.010 A 
BRANCH   4   8
ATOM      8  C   LIG    1       24.395 -19.674   4.167  0.00  0.00    +0.245 C 
ATOM      9  O   LIG    1       23.491 -18.948   3.794  0.00  0.00    -0.270 OA
ATOM     10  N   LIG    1       25.602 -19.672   3.525  0.00  0.00    -0.325 N 
ATOM     11  H   LIG    1       25.734 -19.073   2.724  0.00  0.00    +0.145 HD
ATOM     12  H   LIG    1       26.363 -20.253   3.856  0.00  0.00    +0.145 HD
ENDBRANCH   4   8
BRANCH   5  13
ATOM     13  O   LIG    1       21.936 -21.185   4.788  0.00  0.00    -0.506 OA
ATOM     14  H   LIG    1       22.198 -21.341   3.864  0.00  0.00    +0.292 HD
ENDBRANCH   5  13
ENDBRANCH   1   2
BRANCH   1  15
ATOM     15  O   LIG    1       26.360 -20.346   9.162  0.00  0.00    -0.386 OA
ATOM     16  H   LIG    1       25.518 -20.332   9.642  0.00  0.00    +0.210 HD
ENDBRANCH   1  15
BRANCH   1  17
ATOM     17  C   LIG    1       27.760 -21.651   7.637  0.00  0.00    +0.117 C 
BRANCH  17  18
ATOM     18  N   LIG    1       28.752 -20.684   8.141  0.00  0.00    -0.311 NA
ATOM     19  H   LIG    1       28.289 -19.990   8.727  0.00  0.00    +0.122 HD
BRANCH  18  21
ATOM     20  C   LIG    1       28.737 -19.450   5.958  0.00  0.00    +0.024 C 
ATOM     21  C   LIG    1       29.575 -20.055   7.096  0.00  0.00    +0.051 C 
BRANCH  21  22
ATOM     22  C   LIG    1       30.460 -18.934   7.701  0.00  0.00    +0.023 C 
BRANCH  22  23
ATOM     23  C   LIG    1       29.864 -18.187   8.904  0.00  0.00    +0.036 C 
BRANCH  23  24
ATOM     24  C   LIG    1       30.869 -17.447   9.754  0.00  0.00    -0.047 A 
ATOM     25  C   LIG    1       32.037 -16.916   9.190  0.00  0.00    +0.003 A 
ATOM     26  C   LIG    1       32.961 -16.233   9.984  0.00  0.00    +0.000 A 
ATOM     27  C   LIG    1       32.723 -16.065  11.347  0.00  0.00    +0.000 A 
ATOM     28  C   LIG    1       31.563 -16.584  11.917  0.00  0.00    +0.000 A 
ATOM     29  C   LIG    1       30.640 -17.271  11.125  0.00  0.00    +0.003 A 
ENDBRANCH  23  24
ENDBRANCH  22  23
ENDBRANCH  21  22
ENDBRANCH  18  21
ENDBRANCH  17  18
ENDBRANCH   1  17
TORSDOF 10
ENDMDL
MODEL 8
REMARK VINA RESULT:      -8.9      3.683      6.797
REMARK  Name = *****
REMARK                            x       y       z     vdW  Elec       q    Type
REMARK                         _______ _______ _______ _____ _____    ______ ____
ROOT
ATOM      1  C   LIG    1       22.959 -23.220   6.944  0.00  0.00    +0.158 C 
ENDROOT
BRANCH   1   2
ATOM      2  C   LIG    1       24.079 -24.201   6.607  0.00  0.00    -0.017 A 
ATOM      3  C   LIG    1       23.769 -25.554   6.368  0.00  0.00    +0.023 A 
ATOM      4  C   LIG    1       24.780 -26.523   6.200  0.00  0.00    +0.078 A 
ATOM      5  C   LIG    1       26.121 -26.114   6.220  0.00  0.00    +0.129 A 
ATOM      6  C   LIG    1       26.444 -24.771   6.401  0.00  0.00    +0.046 A 
ATOM      7  C   LIG    1       25.433 -23.830   6.605  0.00  0.00    +0.010 A 
BRANCH   4   8
ATOM      8  C   LIG    1       24.346 -27.949   6.084  0.00  0.00    +0.245 C 
ATOM      9  O   LIG    1       24.334 -28.702   7.041  0.00  0.00    -0.270 OA
ATOM     10  N   LIG    1       23.985 -28.394   4.842  0.00  0.00    -0.325 N 
ATOM     11  H   LIG    1       23.724 -29.361   4.720  0.00  0.00    +0.145 HD
ATOM     12  H   LIG    1       23.964 -27.759   4.053  0.00  0.00    +0.145 HD
ENDBRANCH   4   8
BRANCH   5  13
ATOM     13  O   LIG    1       27.147 -27.017   6.088  0.00  0.00    -0.506 OA
ATOM     14  H   LIG    1       27.048 -27.487   5.241  0.00  0.00    +0.292 HD
ENDBRANCH   5  13
ENDBRANCH   1   2
BRANCH   1  15
ATOM     15  O   LIG    1       21.735 -23.606   6.301  0.00  0.00    -0.386 OA
ATOM     16  H   LIG    1       21.964 -24.178   5.553  0.00  0.00    +0.210 HD
ENDBRANCH   1  15
BRANCH   1  17
ATOM     17  C   LIG    1       23.336 -21.768   6.522  0.00  0.00    +0.117 C 
BRANCH  17  18
ATOM     18  N   LIG    1       23.227 -21.551   5.068  0.00  0.00    -0.311 NA
ATOM     19  H   LIG    1       23.066 -22.442   4.598  0.00  0.00    +0.122 HD
BRANCH  18  21
ATOM     20  C   LIG    1       23.950 -19.444   3.915  0.00  0.00    +0.024 C 
ATOM     21  C   LIG    1       24.357 -20.817   4.475  0.00  0.00    +0.051 C 
BRANCH  21  22
ATOM     22  C   LIG    1       25.478 -20.603   5.526  0.00  0.00    +0.023 C 
BRANCH  22  23
ATOM     23  C   LIG    1       26.730 -19.865   5.026  0.00  0.00    +0.036 C 
BRANCH  23  24
ATOM     24  C   LIG    1       27.938 -19.981   5.926  0.00  0.00    -0.047 A 
ATOM     25  C   LIG    1       29.003 -19.076   5.821  0.00  0.00    +0.003 A 
ATOM     26  C   LIG    1       30.115 -19.192   6.656  0.00  0.00    +0.000 A 
ATOM     27  C   LIG    1       30.172 -20.206   7.611  0.00  0.00    +0.000 A 
ATOM     28  C   LIG    1       29.117 -21.108   7.727  0.00  0.00    +0.000 A 
ATOM     29  C   LIG    1       28.005 -20.996   6.889  0.00  0.00    +0.003 A 
ENDBRANCH  23  24
ENDBRANCH  22  23
ENDBRANCH  21  22
ENDBRANCH  18  21
ENDBRANCH  17  18
ENDBRANCH   1  17
TORSDOF 10
ENDMDL
MODEL 9
REMARK VINA RESULT:      -8.7      1.934      4.203
REMARK  Name = *****
REMARK                            x       y       z     vdW  Elec       q    Type
REMARK                         _______ _______ _______ _____ _____    ______ ____
ROOT
ATOM      1  C   LIG    1       26.249 -20.651   8.451  0.00  0.00    +0.158 C 
ENDROOT
BRANCH   1   2
ATOM      2  C   LIG    1       27.394 -20.165   7.566  0.00  0.00    -0.017 A 
ATOM      3  C   LIG    1       28.597 -19.738   8.159  0.00  0.00    +0.023 A 
ATOM      4  C   LIG    1       29.624 -19.144   7.397  0.00  0.00    +0.078 A 
ATOM      5  C   LIG    1       29.458 -19.027   6.010  0.00  0.00    +0.129 A 
ATOM      6  C   LIG    1       28.296 -19.493   5.400  0.00  0.00    +0.046 A 
ATOM      7  C   LIG    1       27.272 -20.044   6.173  0.00  0.00    +0.010 A 
BRANCH   4   8
ATOM      8  C   LIG    1       30.804 -18.606   8.143  0.00  0.00    +0.245 C 
ATOM      9  O   LIG    1       31.928 -18.623   7.674  0.00  0.00    -0.270 OA
ATOM     10  N   LIG    1       30.580 -18.116   9.399  0.00  0.00    -0.325 N 
ATOM     11  H   LIG    1       31.359 -17.781   9.946  0.00  0.00    +0.145 HD
ATOM     12  H   LIG    1       29.640 -18.073   9.775  0.00  0.00    +0.145 HD
ENDBRANCH   4   8
BRANCH   5  13
ATOM     13  O   LIG    1       30.413 -18.434   5.222  0.00  0.00    -0.506 OA
ATOM     14  H   LIG    1       30.570 -18.992   4.440  0.00  0.00    +0.292 HD
ENDBRANCH   5  13
ENDBRANCH   1   2
BRANCH   1  15
ATOM     15  O   LIG    1       26.520 -21.968   8.955  0.00  0.00    -0.386 OA
ATOM     16  H   LIG    1       25.778 -22.538   8.700  0.00  0.00    +0.210 HD
ENDBRANCH   1  15
BRANCH   1  17
ATOM     17  C   LIG    1       24.898 -20.658   7.673  0.00  0.00    +0.117 C 
BRANCH  17  18
ATOM     18  N   LIG    1       23.967 -21.693   8.157  0.00  0.00    -0.311 NA
ATOM     19  H   LIG    1       24.492 -22.461   8.574  0.00  0.00    +0.122 HD
BRANCH  18  21
ATOM     20  C   LIG    1       23.008 -21.313   5.870  0.00  0.00    +0.024 C 
ATOM     21  C   LIG    1       23.009 -22.171   7.147  0.00  0.00    +0.051 C 
BRANCH  21  22
ATOM     22  C   LIG    1       23.323 -23.637   6.750  0.00  0.00    +0.023 C 
BRANCH  22  23
ATOM     23  C   LIG    1       24.813 -23.995   6.636  0.00  0.00    +0.036 C 
BRANCH  23  24
ATOM     24  C   LIG    1       25.094 -25.404   6.171  0.00  0.00    -0.047 A 
ATOM     25  C   LIG    1       26.407 -25.837   5.938  0.00  0.00    +0.003 A 
ATOM     26  C   LIG    1       26.658 -27.141   5.508  0.00  0.00    +0.000 A 
ATOM     27  C   LIG    1       25.601 -28.030   5.316  0.00  0.00    +0.000 A 
ATOM     28  C   LIG    1       24.293 -27.613   5.549  0.00  0.00    +0.000 A 
ATOM     29  C   LIG    1       24.041 -26.307   5.975  0.00  0.00    +0.003 A 
ENDBRANCH  23  24
ENDBRANCH  22  23
ENDBRANCH  21  22
ENDBRANCH  18  21
ENDBRANCH  17  18
ENDBRANCH   1  17
TORSDOF 10
ENDMDL
