MODEL 1
REMARK VINA RESULT:      24.4      0.000      0.000
REMARK  Name = *****
REMARK                            x       y       z     vdW  Elec       q    Type
REMARK                         _______ _______ _______ _____ _____    ______ ____
ROOT
ATOM      1  C   LIG    1       24.893 -21.082   6.340  0.00  0.00    +0.299 A 
ATOM      2  N   LIG    1       24.841 -20.336   5.177  0.00  0.00    -0.289 N 
ATOM      3  C   LIG    1       23.504 -20.020   4.934  0.00  0.00    +0.086 A 
ATOM      4  C   LIG    1       22.836 -20.802   5.894  0.00  0.00    +0.093 A 
ATOM      5  C   LIG    1       21.436 -20.894   5.910  0.00  0.00    +0.030 A 
ATOM      6  C   LIG    1       20.691 -20.156   5.003  0.00  0.00    +0.003 A 
ATOM      7  C   LIG    1       21.338 -19.306   4.118  0.00  0.00    +0.017 A 
ATOM      8  C   LIG    1       22.751 -19.194   4.051  0.00  0.00    +0.085 A 
ATOM      9  N   LIG    1       23.699 -21.412   6.758  0.00  0.00    -0.195 NA
ENDROOT
BRANCH   8  10
ATOM     10  C   LIG    1       23.308 -18.244   3.053  0.00  0.00    +0.344 C 
ATOM     11  O   LIG    1       24.340 -18.386   2.434  0.00  0.00    -0.245 OA
BRANCH  10  12
ATOM     12  O   LIG    1       22.458 -17.178   2.920  0.00  0.00    -0.421 OA
BRANCH  12  13
ATOM     13  C   LIG    1       22.564 -16.122   3.889  0.00  0.00    +0.371 C 
ATOM     14  C   LIG    1       23.965 -16.187   4.501  0.00  0.00    +0.101 C 
BRANCH  13  15
ATOM     15  O   LIG    1       21.668 -16.143   5.009  0.00  0.00    -0.394 OA
BRANCH  15  16
ATOM     16  C   LIG    1       21.943 -15.379   6.077  0.00  0.00    +0.513 C 
ATOM     17  O   LIG    1       21.132 -14.906   6.872  0.00  0.00    -0.203 OA
BRANCH  16  18
ATOM     18  O   LIG    1       23.270 -15.216   6.157  0.00  0.00    -0.430 OA
BRANCH  18  19
ATOM     19  C   LIG    1       23.777 -13.876   6.263  0.00  0.00    +0.180 C 
ATOM     20  C   LIG    1       23.037 -13.099   5.174  0.00  0.00    +0.045 C 
ATOM     21  C   LIG    1       23.439 -11.633   5.158  0.00  0.00    +0.003 C 
ATOM     22  C   LIG    1       24.946 -11.473   4.987  0.00  0.00    +0.000 C 
ATOM     23  C   LIG    1       25.709 -12.238   6.065  0.00  0.00    +0.003 C 
ATOM     24  C   LIG    1       25.296 -13.712   6.078  0.00  0.00    +0.045 C 
ENDBRANCH  18  19
ENDBRANCH  16  18
ENDBRANCH  15  16
ENDBRANCH  13  15
ENDBRANCH  12  13
ENDBRANCH  10  12
ENDBRANCH   8  10
BRANCH   1  25
ATOM     25  O   LIG    1       26.028 -21.456   6.939  0.00  0.00    -0.464 OA
BRANCH  25  27
ATOM     26  C   LIG    1       27.746 -19.752   6.701  0.00  0.00    +0.048 C 
ATOM     27  C   LIG    1       27.203 -21.083   6.205  0.00  0.00    +0.229 C 
ENDBRANCH  25  27
ENDBRANCH   1  25
BRANCH   2  28
ATOM     28  C   LIG    1       26.013 -20.141   4.324  0.00  0.00    +0.162 C 
BRANCH  28  29
ATOM     29  C   LIG    1       26.461 -18.706   4.184  0.00  0.00    -0.028 A 
ATOM     30  C   LIG    1       26.602 -18.085   2.945  0.00  0.00    +0.006 A 
ATOM     31  C   LIG    1       27.050 -16.762   2.830  0.00  0.00    +0.009 A 
ATOM     32  C   LIG    1       27.337 -15.963   3.952  0.00  0.00    -0.017 A 
ATOM     33  C   LIG    1       27.188 -16.606   5.194  0.00  0.00    +0.009 A 
ATOM     34  C   LIG    1       26.802 -17.955   5.313  0.00  0.00    +0.006 A 
BRANCH  32  35
ATOM     35  C   LIG    1       27.709 -14.512   3.796  0.00  0.00    -0.007 A 
ATOM     36  C   LIG    1       26.919 -13.497   3.191  0.00  0.00    +0.030 A 
ATOM     37  C   LIG    1       27.431 -12.178   3.060  0.00  0.00    +0.012 A 
ATOM     38  C   LIG    1       28.690 -11.824   3.521  0.00  0.00    +0.001 A 
ATOM     39  C   LIG    1       29.472 -12.789   4.125  0.00  0.00    +0.001 A 
ATOM     40  C   LIG    1       28.994 -14.100   4.250  0.00  0.00    +0.009 A 
BRANCH  36  41
ATOM     41  C   LIG    1       25.580 -13.685   2.647  0.00  0.00    +0.205 A 
ATOM     42  N   LIG    1       25.034 -14.904   2.455  0.00  0.00    -0.133 NA
ATOM     43  N   LIG    1       23.842 -14.557   1.964  0.00  0.00    -0.176 N 
ATOM     44  H   LIG    1       23.165 -15.249   1.655  0.00  0.00    +0.214 HD
ATOM     45  N   LIG    1       23.603 -13.247   1.871  0.00  0.00    -0.049 NA
ATOM     46  N   LIG    1       24.739 -12.676   2.246  0.00  0.00    -0.108 NA
ENDBRANCH  36  41
ENDBRANCH  32  35
ENDBRANCH  28  29
ENDBRANCH   2  28
TORSDOF 13
ENDMDL
