MODEL 1
REMARK VINA RESULT:      -4.5      0.000      0.000
REMARK  Name = *****
REMARK                            x       y       z     vdW  Elec       q    Type
REMARK                         _______ _______ _______ _____ _____    ______ ____
ROOT
ATOM      1  S   LIG    1       27.006 -21.550   6.996  0.00  0.00    -0.030 S 
ATOM      2  C   LIG    1       25.492 -21.172   6.438  0.00  0.00    +0.113 C 
ATOM      3  C   LIG    1       25.269 -20.416   5.260  0.00  0.00    +0.116 A 
ATOM      4  C   LIG    1       24.007 -20.113   4.811  0.00  0.00    +0.182 A 
ATOM      5  N   LIG    1       24.054 -19.380   3.664  0.00  0.00    -0.216 NA
ATOM      6  C   LIG    1       25.337 -19.232   3.408  0.00  0.00    +0.199 A 
ATOM      7  N   LIG    1       22.854 -20.528   5.484  0.00  0.00    -0.216 NA
ATOM      8  C   LIG    1       23.093 -21.214   6.555  0.00  0.00    +0.199 C 
ATOM      9  N   LIG    1       26.116 -19.846   4.351  0.00  0.00    -0.341 N 
ATOM     10  H   LIG    1       27.127 -19.874   4.374  0.00  0.00    +0.167 HD
ATOM     11  N   LIG    1       24.331 -21.552   7.061  0.00  0.00    -0.339 N 
ATOM     12  H   LIG    1       24.404 -22.094   7.910  0.00  0.00    +0.167 HD
ENDROOT
TORSDOF 0
ENDMDL
MODEL 2
REMARK VINA RESULT:      -4.2      1.185      1.248
REMARK  Name = *****
REMARK                            x       y       z     vdW  Elec       q    Type
REMARK                         _______ _______ _______ _____ _____    ______ ____
ROOT
ATOM      1  S   LIG    1       28.119 -20.068   5.984  0.00  0.00    -0.030 S 
ATOM      2  C   LIG    1       26.510 -20.463   6.040  0.00  0.00    +0.113 C 
ATOM      3  C   LIG    1       25.589 -20.098   5.027  0.00  0.00    +0.116 A 
ATOM      4  C   LIG    1       24.259 -20.435   5.089  0.00  0.00    +0.182 A 
ATOM      5  N   LIG    1       23.581 -19.971   4.003  0.00  0.00    -0.216 NA
ATOM      6  C   LIG    1       24.487 -19.352   3.276  0.00  0.00    +0.199 A 
ATOM      7  N   LIG    1       23.721 -21.163   6.155  0.00  0.00    -0.216 NA
ATOM      8  C   LIG    1       24.588 -21.479   7.062  0.00  0.00    +0.199 C 
ATOM      9  N   LIG    1       25.725 -19.402   3.858  0.00  0.00    -0.341 N 
ATOM     10  H   LIG    1       26.579 -19.001   3.495  0.00  0.00    +0.167 HD
ATOM     11  N   LIG    1       25.934 -21.172   7.062  0.00  0.00    -0.339 N 
ATOM     12  H   LIG    1       26.524 -21.469   7.826  0.00  0.00    +0.167 HD
ENDROOT
TORSDOF 0
ENDMDL
MODEL 3
REMARK VINA RESULT:      -4.0      2.135      2.969
REMARK  Name = *****
REMARK                            x       y       z     vdW  Elec       q    Type
REMARK                         _______ _______ _______ _____ _____    ______ ____
ROOT
ATOM      1  S   LIG    1       24.111 -19.377   3.184  0.00  0.00    -0.030 S 
ATOM      2  C   LIG    1       24.428 -20.178   4.600  0.00  0.00    +0.113 C 
ATOM      3  C   LIG    1       25.716 -20.230   5.187  0.00  0.00    +0.116 A 
ATOM      4  C   LIG    1       25.960 -20.898   6.361  0.00  0.00    +0.182 A 
ATOM      5  N   LIG    1       27.271 -20.805   6.720  0.00  0.00    -0.216 NA
ATOM      6  C   LIG    1       27.831 -20.084   5.771  0.00  0.00    +0.199 A 
ATOM      7  N   LIG    1       24.955 -21.572   7.062  0.00  0.00    -0.216 NA
ATOM      8  C   LIG    1       23.792 -21.505   6.499  0.00  0.00    +0.199 C 
ATOM      9  N   LIG    1       26.925 -19.711   4.815  0.00  0.00    -0.341 N 
ATOM     10  H   LIG    1       27.111 -19.157   3.990  0.00  0.00    +0.167 HD
ATOM     11  N   LIG    1       23.479 -20.855   5.322  0.00  0.00    -0.339 N 
ATOM     12  H   LIG    1       22.533 -20.867   4.969  0.00  0.00    +0.167 HD
ENDROOT
TORSDOF 0
ENDMDL
MODEL 4
REMARK VINA RESULT:      -4.0      1.822      3.020
REMARK  Name = *****
REMARK                            x       y       z     vdW  Elec       q    Type
REMARK                         _______ _______ _______ _____ _____    ______ ____
ROOT
ATOM      1  S   LIG    1       23.095 -21.571   6.902  0.00  0.00    -0.030 S 
ATOM      2  C   LIG    1       23.983 -20.794   5.738  0.00  0.00    +0.113 C 
ATOM      3  C   LIG    1       25.374 -20.556   5.857  0.00  0.00    +0.116 A 
ATOM      4  C   LIG    1       26.095 -19.912   4.882  0.00  0.00    +0.182 A 
ATOM      5  N   LIG    1       27.408 -19.804   5.228  0.00  0.00    -0.216 NA
ATOM      6  C   LIG    1       27.495 -20.378   6.409  0.00  0.00    +0.199 A 
ATOM      7  N   LIG    1       25.507 -19.446   3.703  0.00  0.00    -0.216 NA
ATOM      8  C   LIG    1       24.236 -19.677   3.626  0.00  0.00    +0.199 C 
ATOM      9  N   LIG    1       26.284 -20.852   6.835  0.00  0.00    -0.341 N 
ATOM     10  H   LIG    1       26.094 -21.329   7.705  0.00  0.00    +0.167 HD
ATOM     11  N   LIG    1       23.454 -20.316   4.567  0.00  0.00    -0.339 N 
ATOM     12  H   LIG    1       22.465 -20.444   4.405  0.00  0.00    +0.167 HD
ENDROOT
TORSDOF 0
ENDMDL
MODEL 5
REMARK VINA RESULT:      -3.8      1.911      3.206
REMARK  Name = *****
REMARK                            x       y       z     vdW  Elec       q    Type
REMARK                         _______ _______ _______ _____ _____    ______ ____
ROOT
ATOM      1  S   LIG    1       25.737 -18.514   3.308  0.00  0.00    -0.030 S 
ATOM      2  C   LIG    1       25.637 -19.630   4.528  0.00  0.00    +0.113 C 
ATOM      3  C   LIG    1       24.417 -20.225   4.934  0.00  0.00    +0.116 A 
ATOM      4  C   LIG    1       24.352 -21.150   5.947  0.00  0.00    +0.182 A 
ATOM      5  N   LIG    1       23.073 -21.572   6.151  0.00  0.00    -0.216 NA
ATOM      6  C   LIG    1       22.354 -20.911   5.268  0.00  0.00    +0.199 A 
ATOM      7  N   LIG    1       25.486 -21.571   6.649  0.00  0.00    -0.216 NA
ATOM      8  C   LIG    1       26.583 -21.008   6.255  0.00  0.00    +0.199 C 
ATOM      9  N   LIG    1       23.127 -20.078   4.505  0.00  0.00    -0.341 N 
ATOM     10  H   LIG    1       22.808 -19.469   3.763  0.00  0.00    +0.167 HD
ATOM     11  N   LIG    1       26.717 -20.073   5.248  0.00  0.00    -0.339 N 
ATOM     12  H   LIG    1       27.626 -19.696   5.020  0.00  0.00    +0.167 HD
ENDROOT
TORSDOF 0
ENDMDL
MODEL 6
REMARK VINA RESULT:      -3.8      2.235      3.992
REMARK  Name = *****
REMARK                            x       y       z     vdW  Elec       q    Type
REMARK                         _______ _______ _______ _____ _____    ______ ____
ROOT
ATOM      1  S   LIG    1       21.752 -18.580   4.140  0.00  0.00    -0.030 S 
ATOM      2  C   LIG    1       23.279 -19.186   4.358  0.00  0.00    +0.113 C 
ATOM      3  C   LIG    1       23.599 -20.132   5.363  0.00  0.00    +0.116 A 
ATOM      4  C   LIG    1       24.870 -20.625   5.529  0.00  0.00    +0.182 A 
ATOM      5  N   LIG    1       24.924 -21.516   6.558  0.00  0.00    -0.216 NA
ATOM      6  C   LIG    1       23.694 -21.572   7.023  0.00  0.00    +0.199 A 
ATOM      7  N   LIG    1       25.938 -20.229   4.718  0.00  0.00    -0.216 NA
ATOM      8  C   LIG    1       25.612 -19.364   3.811  0.00  0.00    +0.199 C 
ATOM      9  N   LIG    1       22.851 -20.747   6.328  0.00  0.00    -0.341 N 
ATOM     10  H   LIG    1       21.863 -20.615   6.495  0.00  0.00    +0.167 HD
ATOM     11  N   LIG    1       24.359 -18.829   3.593  0.00  0.00    -0.339 N 
ATOM     12  H   LIG    1       24.215 -18.156   2.853  0.00  0.00    +0.167 HD
ENDROOT
TORSDOF 0
ENDMDL
MODEL 7
REMARK VINA RESULT:      -3.7      1.869      3.045
REMARK  Name = *****
REMARK                            x       y       z     vdW  Elec       q    Type
REMARK                         _______ _______ _______ _____ _____    ______ ____
ROOT
ATOM      1  S   LIG    1       25.717 -18.423   3.203  0.00  0.00    -0.030 S 
ATOM      2  C   LIG    1       24.642 -19.244   4.161  0.00  0.00    +0.113 C 
ATOM      3  C   LIG    1       25.045 -20.121   5.199  0.00  0.00    +0.116 A 
ATOM      4  C   LIG    1       24.140 -20.793   5.984  0.00  0.00    +0.182 A 
ATOM      5  N   LIG    1       24.770 -21.572   6.907  0.00  0.00    -0.216 NA
ATOM      6  C   LIG    1       26.054 -21.381   6.692  0.00  0.00    +0.199 A 
ATOM      7  N   LIG    1       22.759 -20.659   5.815  0.00  0.00    -0.216 NA
ATOM      8  C   LIG    1       22.425 -19.853   4.859  0.00  0.00    +0.199 C 
ATOM      9  N   LIG    1       26.272 -20.506   5.662  0.00  0.00    -0.341 N 
ATOM     10  H   LIG    1       27.169 -20.201   5.309  0.00  0.00    +0.167 HD
ATOM     11  N   LIG    1       23.280 -19.150   4.035  0.00  0.00    -0.339 N 
ATOM     12  H   LIG    1       22.911 -18.545   3.315  0.00  0.00    +0.167 HD
ENDROOT
TORSDOF 0
ENDMDL
MODEL 8
REMARK VINA RESULT:      -3.6      6.675      7.791
REMARK  Name = *****
REMARK                            x       y       z     vdW  Elec       q    Type
REMARK                         _______ _______ _______ _____ _____    ______ ____
ROOT
ATOM      1  S   LIG    1       23.302 -15.144   4.508  0.00  0.00    -0.030 S 
ATOM      2  C   LIG    1       24.197 -14.081   3.603  0.00  0.00    +0.113 C 
ATOM      3  C   LIG    1       25.614 -14.075   3.596  0.00  0.00    +0.116 A 
ATOM      4  C   LIG    1       26.340 -13.188   2.840  0.00  0.00    +0.182 A 
ATOM      5  N   LIG    1       27.678 -13.379   3.003  0.00  0.00    -0.216 NA
ATOM      6  C   LIG    1       27.777 -14.377   3.855  0.00  0.00    +0.199 A 
ATOM      7  N   LIG    1       25.732 -12.230   2.022  0.00  0.00    -0.216 NA
ATOM      8  C   LIG    1       24.439 -12.262   2.053  0.00  0.00    +0.199 C 
ATOM      9  N   LIG    1       26.547 -14.834   4.246  0.00  0.00    -0.341 N 
ATOM     10  H   LIG    1       26.361 -15.590   4.891  0.00  0.00    +0.167 HD
ATOM     11  N   LIG    1       23.651 -13.123   2.789  0.00  0.00    -0.339 N 
ATOM     12  H   LIG    1       22.644 -13.061   2.739  0.00  0.00    +0.167 HD
ENDROOT
TORSDOF 0
ENDMDL
MODEL 9
REMARK VINA RESULT:      -3.5      5.954      7.108
REMARK  Name = *****
REMARK                            x       y       z     vdW  Elec       q    Type
REMARK                         _______ _______ _______ _____ _____    ______ ____
ROOT
ATOM      1  S   LIG    1       28.516 -12.581   4.564  0.00  0.00    -0.030 S 
ATOM      2  C   LIG    1       27.469 -13.794   4.141  0.00  0.00    +0.113 C 
ATOM      3  C   LIG    1       26.063 -13.623   4.104  0.00  0.00    +0.116 A 
ATOM      4  C   LIG    1       25.209 -14.639   3.750  0.00  0.00    +0.182 A 
ATOM      5  N   LIG    1       23.911 -14.230   3.791  0.00  0.00    -0.216 NA
ATOM      6  C   LIG    1       23.964 -12.970   4.167  0.00  0.00    +0.199 A 
ATOM      7  N   LIG    1       25.667 -15.913   3.402  0.00  0.00    -0.216 NA
ATOM      8  C   LIG    1       26.955 -16.036   3.447  0.00  0.00    +0.199 C 
ATOM      9  N   LIG    1       25.252 -12.555   4.370  0.00  0.00    -0.341 N 
ATOM     10  H   LIG    1       25.551 -11.633   4.661  0.00  0.00    +0.167 HD
ATOM     11  N   LIG    1       27.866 -15.059   3.795  0.00  0.00    -0.339 N 
ATOM     12  H   LIG    1       28.856 -15.264   3.798  0.00  0.00    +0.167 HD
ENDROOT
TORSDOF 0
ENDMDL
