MODEL 1
REMARK VINA RESULT:      -9.8      0.000      0.000
REMARK  Name = *****
REMARK                            x       y       z     vdW  Elec       q    Type
REMARK                         _______ _______ _______ _____ _____    ______ ____
ROOT
ATOM      1  C   LIG    1       24.273 -25.362   6.411  0.00  0.00    +0.122 A 
ATOM      2  C   LIG    1       23.213 -24.455   6.574  0.00  0.00    +0.046 A 
ATOM      3  C   LIG    1       23.453 -23.105   6.907  0.00  0.00    +0.015 A 
ATOM      4  C   LIG    1       24.763 -22.644   7.077  0.00  0.00    +0.022 A 
ATOM      5  C   LIG    1       25.814 -23.539   6.887  0.00  0.00    +0.015 A 
ATOM      6  C   LIG    1       25.566 -24.878   6.573  0.00  0.00    +0.046 A 
ENDROOT
BRANCH   4   7
ATOM      7  C   LIG    1       25.124 -21.240   7.422  0.00  0.00    +0.193 C 
ATOM      8  O   LIG    1       24.284 -20.532   7.979  0.00  0.00    -0.287 OA
BRANCH   7   9
ATOM      9  C   LIG    1       26.448 -20.646   7.112  0.00  0.00    +0.022 A 
ATOM     10  C   LIG    1       27.350 -20.439   8.166  0.00  0.00    +0.013 A 
ATOM     11  C   LIG    1       28.614 -19.898   7.919  0.00  0.00    +0.021 A 
ATOM     12  C   LIG    1       28.972 -19.550   6.619  0.00  0.00    +0.041 A 
ATOM     13 CL   LIG    1       30.538 -18.911   6.305  0.00  0.00    -0.084 Cl
ATOM     14  C   LIG    1       28.067 -19.709   5.570  0.00  0.00    +0.021 A 
ATOM     15  C   LIG    1       26.798 -20.242   5.818  0.00  0.00    +0.013 A 
ENDBRANCH   7   9
ENDBRANCH   4   7
BRANCH   1  16
ATOM     16  O   LIG    1       23.949 -26.650   6.074  0.00  0.00    -0.475 OA
BRANCH  16  18
ATOM     17  C   LIG    1       25.794 -27.920   4.962  0.00  0.00    +0.067 C 
ATOM     18  C   LIG    1       24.884 -27.750   6.193  0.00  0.00    +0.200 C 
ATOM     19  C   LIG    1       25.753 -27.732   7.467  0.00  0.00    +0.067 C 
BRANCH  18  20
ATOM     20  C   LIG    1       23.994 -29.013   6.302  0.00  0.00    +0.348 C 
ATOM     21  O   LIG    1       23.959 -29.770   7.286  0.00  0.00    -0.246 OA
BRANCH  20  22
ATOM     22  O   LIG    1       23.224 -29.280   5.227  0.00  0.00    -0.478 OA
ATOM     23  H   LIG    1       22.801 -28.479   4.836  0.00  0.00    +0.295 HD
ENDBRANCH  20  22
ENDBRANCH  18  20
ENDBRANCH  16  18
ENDBRANCH   1  16
TORSDOF 6
ENDMDL
MODEL 2
REMARK VINA RESULT:      -9.1      4.930      8.560
REMARK  Name = *****
REMARK                            x       y       z     vdW  Elec       q    Type
REMARK                         _______ _______ _______ _____ _____    ______ ____
ROOT
ATOM      1  C   LIG    1       29.750 -18.898   7.209  0.00  0.00    +0.122 A 
ATOM      2  C   LIG    1       29.319 -18.898   5.873  0.00  0.00    +0.046 A 
ATOM      3  C   LIG    1       28.159 -19.598   5.480  0.00  0.00    +0.015 A 
ATOM      4  C   LIG    1       27.410 -20.306   6.427  0.00  0.00    +0.022 A 
ATOM      5  C   LIG    1       27.824 -20.281   7.757  0.00  0.00    +0.015 A 
ATOM      6  C   LIG    1       28.983 -19.598   8.134  0.00  0.00    +0.046 A 
ENDROOT
BRANCH   4   7
ATOM      7  C   LIG    1       26.169 -21.071   6.118  0.00  0.00    +0.193 C 
ATOM      8  O   LIG    1       26.140 -22.277   6.363  0.00  0.00    -0.287 OA
BRANCH   7   9
ATOM      9  C   LIG    1       24.965 -20.448   5.511  0.00  0.00    +0.022 A 
ATOM     10  C   LIG    1       23.757 -20.503   6.222  0.00  0.00    +0.013 A 
ATOM     11  C   LIG    1       22.603 -19.916   5.698  0.00  0.00    +0.021 A 
ATOM     12  C   LIG    1       22.652 -19.286   4.457  0.00  0.00    +0.041 A 
ATOM     13 CL   LIG    1       21.241 -18.536   3.821  0.00  0.00    -0.084 Cl
ATOM     14  C   LIG    1       23.838 -19.265   3.722  0.00  0.00    +0.021 A 
ATOM     15  C   LIG    1       24.991 -19.860   4.241  0.00  0.00    +0.013 A 
ENDBRANCH   7   9
ENDBRANCH   4   7
BRANCH   1  16
ATOM     16  O   LIG    1       30.879 -18.180   7.504  0.00  0.00    -0.475 OA
BRANCH  16  18
ATOM     17  C   LIG    1       32.416 -16.780   8.895  0.00  0.00    +0.067 C 
ATOM     18  C   LIG    1       31.158 -17.667   8.830  0.00  0.00    +0.200 C 
ATOM     19  C   LIG    1       29.983 -16.931   9.504  0.00  0.00    +0.067 C 
BRANCH  18  20
ATOM     20  C   LIG    1       31.423 -18.927   9.692  0.00  0.00    +0.348 C 
ATOM     21  O   LIG    1       32.186 -19.853   9.373  0.00  0.00    -0.246 OA
BRANCH  20  22
ATOM     22  O   LIG    1       30.749 -18.990  10.859  0.00  0.00    -0.478 OA
ATOM     23  H   LIG    1       30.928 -18.227  11.458  0.00  0.00    +0.295 HD
ENDBRANCH  20  22
ENDBRANCH  18  20
ENDBRANCH  16  18
ENDBRANCH   1  16
TORSDOF 6
ENDMDL
MODEL 3
REMARK VINA RESULT:      -9.0      3.517      5.992
REMARK  Name = *****
REMARK                            x       y       z     vdW  Elec       q    Type
REMARK                         _______ _______ _______ _____ _____    ______ ____
ROOT
ATOM      1  C   LIG    1       26.565 -20.400   6.677  0.00  0.00    +0.122 A 
ATOM      2  C   LIG    1       26.993 -20.403   8.015  0.00  0.00    +0.046 A 
ATOM      3  C   LIG    1       28.305 -20.016   8.363  0.00  0.00    +0.015 A 
ATOM      4  C   LIG    1       29.206 -19.614   7.370  0.00  0.00    +0.022 A 
ATOM      5  C   LIG    1       28.770 -19.585   6.047  0.00  0.00    +0.015 A 
ATOM      6  C   LIG    1       27.474 -19.986   5.711  0.00  0.00    +0.046 A 
ENDROOT
BRANCH   4   7
ATOM      7  C   LIG    1       30.608 -19.182   7.631  0.00  0.00    +0.193 C 
ATOM      8  O   LIG    1       31.495 -19.550   6.861  0.00  0.00    -0.287 OA
BRANCH   7   9
ATOM      9  C   LIG    1       30.990 -18.336   8.790  0.00  0.00    +0.022 A 
ATOM     10  C   LIG    1       30.061 -18.166   9.827  0.00  0.00    +0.013 A 
ATOM     11  C   LIG    1       30.384 -17.392  10.944  0.00  0.00    +0.021 A 
ATOM     12  C   LIG    1       31.631 -16.776  11.019  0.00  0.00    +0.041 A 
ATOM     13 CL   LIG    1       32.044 -15.846  12.406  0.00  0.00    -0.084 Cl
ATOM     14  C   LIG    1       32.544 -16.901   9.973  0.00  0.00    +0.021 A 
ATOM     15  C   LIG    1       32.219 -17.668   8.850  0.00  0.00    +0.013 A 
ENDBRANCH   7   9
ENDBRANCH   4   7
BRANCH   1  16
ATOM     16  O   LIG    1       25.271 -20.778   6.432  0.00  0.00    -0.475 OA
BRANCH  16  18
ATOM     17  C   LIG    1       25.922 -23.143   6.917  0.00  0.00    +0.067 C 
ATOM     18  C   LIG    1       24.851 -22.163   6.401  0.00  0.00    +0.200 C 
ATOM     19  C   LIG    1       23.514 -22.455   7.111  0.00  0.00    +0.067 C 
BRANCH  18  20
ATOM     20  C   LIG    1       24.613 -22.469   4.901  0.00  0.00    +0.348 C 
ATOM     21  O   LIG    1       24.272 -21.628   4.054  0.00  0.00    -0.246 OA
BRANCH  20  22
ATOM     22  O   LIG    1       24.790 -23.754   4.531  0.00  0.00    -0.478 OA
ATOM     23  H   LIG    1       23.949 -24.267   4.475  0.00  0.00    +0.295 HD
ENDBRANCH  20  22
ENDBRANCH  18  20
ENDBRANCH  16  18
ENDBRANCH   1  16
TORSDOF 6
ENDMDL
MODEL 4
REMARK VINA RESULT:      -8.9      3.622      8.001
REMARK  Name = *****
REMARK                            x       y       z     vdW  Elec       q    Type
REMARK                         _______ _______ _______ _____ _____    ______ ____
ROOT
ATOM      1  C   LIG    1       27.853 -20.023   7.736  0.00  0.00    +0.122 A 
ATOM      2  C   LIG    1       27.484 -20.332   6.416  0.00  0.00    +0.046 A 
ATOM      3  C   LIG    1       26.420 -21.218   6.144  0.00  0.00    +0.015 A 
ATOM      4  C   LIG    1       25.705 -21.803   7.195  0.00  0.00    +0.022 A 
ATOM      5  C   LIG    1       26.055 -21.473   8.503  0.00  0.00    +0.015 A 
ATOM      6  C   LIG    1       27.121 -20.607   8.763  0.00  0.00    +0.046 A 
ENDROOT
BRANCH   4   7
ATOM      7  C   LIG    1       24.564 -22.744   7.016  0.00  0.00    +0.193 C 
ATOM      8  O   LIG    1       23.421 -22.334   7.216  0.00  0.00    -0.287 OA
BRANCH   7   9
ATOM      9  C   LIG    1       24.741 -24.164   6.619  0.00  0.00    +0.022 A 
ATOM     10  C   LIG    1       26.018 -24.733   6.731  0.00  0.00    +0.013 A 
ATOM     11  C   LIG    1       26.228 -26.070   6.385  0.00  0.00    +0.021 A 
ATOM     12  C   LIG    1       25.164 -26.835   5.913  0.00  0.00    +0.041 A 
ATOM     13 CL   LIG    1       25.410 -28.490   5.513  0.00  0.00    -0.084 Cl
ATOM     14  C   LIG    1       23.900 -26.266   5.755  0.00  0.00    +0.021 A 
ATOM     15  C   LIG    1       23.691 -24.925   6.092  0.00  0.00    +0.013 A 
ENDBRANCH   7   9
ENDBRANCH   4   7
BRANCH   1  16
ATOM     16  O   LIG    1       28.889 -19.143   7.907  0.00  0.00    -0.475 OA
BRANCH  16  18
ATOM     17  C   LIG    1       30.390 -21.072   8.436  0.00  0.00    +0.067 C 
ATOM     18  C   LIG    1       30.257 -19.573   8.108  0.00  0.00    +0.200 C 
ATOM     19  C   LIG    1       31.226 -19.217   6.962  0.00  0.00    +0.067 C 
BRANCH  18  20
ATOM     20  C   LIG    1       30.744 -18.773   9.342  0.00  0.00    +0.348 C 
ATOM     21  O   LIG    1       30.011 -18.091  10.076  0.00  0.00    -0.246 OA
BRANCH  20  22
ATOM     22  O   LIG    1       32.067 -18.841   9.598  0.00  0.00    -0.478 OA
ATOM     23  H   LIG    1       32.585 -19.279   8.882  0.00  0.00    +0.295 HD
ENDBRANCH  20  22
ENDBRANCH  18  20
ENDBRANCH  16  18
ENDBRANCH   1  16
TORSDOF 6
ENDMDL
MODEL 5
REMARK VINA RESULT:      -8.9      1.024      2.048
REMARK  Name = *****
REMARK                            x       y       z     vdW  Elec       q    Type
REMARK                         _______ _______ _______ _____ _____    ______ ____
ROOT
ATOM      1  C   LIG    1       24.324 -25.268   6.481  0.00  0.00    +0.122 A 
ATOM      2  C   LIG    1       23.293 -24.314   6.504  0.00  0.00    +0.046 A 
ATOM      3  C   LIG    1       23.546 -22.974   6.865  0.00  0.00    +0.015 A 
ATOM      4  C   LIG    1       24.843 -22.570   7.204  0.00  0.00    +0.022 A 
ATOM      5  C   LIG    1       25.869 -23.512   7.152  0.00  0.00    +0.015 A 
ATOM      6  C   LIG    1       25.605 -24.840   6.809  0.00  0.00    +0.046 A 
ENDROOT
BRANCH   4   7
ATOM      7  C   LIG    1       25.217 -21.181   7.593  0.00  0.00    +0.193 C 
ATOM      8  O   LIG    1       24.394 -20.493   8.197  0.00  0.00    -0.287 OA
BRANCH   7   9
ATOM      9  C   LIG    1       26.536 -20.579   7.272  0.00  0.00    +0.022 A 
ATOM     10  C   LIG    1       26.818 -20.265   5.935  0.00  0.00    +0.013 A 
ATOM     11  C   LIG    1       28.039 -19.682   5.588  0.00  0.00    +0.021 A 
ATOM     12  C   LIG    1       28.985 -19.425   6.578  0.00  0.00    +0.041 A 
ATOM     13 CL   LIG    1       30.479 -18.681   6.161  0.00  0.00    -0.084 Cl
ATOM     14  C   LIG    1       28.732 -19.775   7.904  0.00  0.00    +0.021 A 
ATOM     15  C   LIG    1       27.514 -20.367   8.251  0.00  0.00    +0.013 A 
ENDBRANCH   7   9
ENDBRANCH   4   7
BRANCH   1  16
ATOM     16  O   LIG    1       23.990 -26.542   6.105  0.00  0.00    -0.475 OA
BRANCH  16  18
ATOM     17  C   LIG    1       25.694 -27.905   7.328  0.00  0.00    +0.067 C 
ATOM     18  C   LIG    1       24.964 -27.610   6.004  0.00  0.00    +0.200 C 
ATOM     19  C   LIG    1       24.425 -28.930   5.417  0.00  0.00    +0.067 C 
BRANCH  18  20
ATOM     20  C   LIG    1       26.014 -27.090   4.990  0.00  0.00    +0.348 C 
ATOM     21  O   LIG    1       25.744 -26.593   3.885  0.00  0.00    -0.246 OA
BRANCH  20  22
ATOM     22  O   LIG    1       27.303 -27.214   5.369  0.00  0.00    -0.478 OA
ATOM     23  H   LIG    1       27.939 -27.193   4.614  0.00  0.00    +0.295 HD
ENDBRANCH  20  22
ENDBRANCH  18  20
ENDBRANCH  16  18
ENDBRANCH   1  16
TORSDOF 6
ENDMDL
MODEL 6
REMARK VINA RESULT:      -8.9      2.981      3.447
REMARK  Name = *****
REMARK                            x       y       z     vdW  Elec       q    Type
REMARK                         _______ _______ _______ _____ _____    ______ ____
ROOT
ATOM      1  C   LIG    1       25.296 -27.273   5.792  0.00  0.00    +0.122 A 
ATOM      2  C   LIG    1       24.083 -26.567   5.846  0.00  0.00    +0.046 A 
ATOM      3  C   LIG    1       24.046 -25.207   6.221  0.00  0.00    +0.015 A 
ATOM      4  C   LIG    1       25.230 -24.533   6.542  0.00  0.00    +0.022 A 
ATOM      5  C   LIG    1       26.435 -25.228   6.459  0.00  0.00    +0.015 A 
ATOM      6  C   LIG    1       26.460 -26.579   6.103  0.00  0.00    +0.046 A 
ENDROOT
BRANCH   4   7
ATOM      7  C   LIG    1       25.301 -23.100   6.943  0.00  0.00    +0.193 C 
ATOM      8  O   LIG    1       26.013 -22.786   7.896  0.00  0.00    -0.287 OA
BRANCH   7   9
ATOM      9  C   LIG    1       24.538 -22.029   6.253  0.00  0.00    +0.022 A 
ATOM     10  C   LIG    1       23.627 -21.271   7.002  0.00  0.00    +0.013 A 
ATOM     11  C   LIG    1       22.899 -20.242   6.399  0.00  0.00    +0.021 A 
ATOM     12  C   LIG    1       23.073 -19.980   5.042  0.00  0.00    +0.041 A 
ATOM     13 CL   LIG    1       22.202 -18.695   4.301  0.00  0.00    -0.084 Cl
ATOM     14  C   LIG    1       23.943 -20.757   4.278  0.00  0.00    +0.021 A 
ATOM     15  C   LIG    1       24.665 -21.793   4.879  0.00  0.00    +0.013 A 
ENDBRANCH   7   9
ENDBRANCH   4   7
BRANCH   1  16
ATOM     16  O   LIG    1       25.241 -28.586   5.405  0.00  0.00    -0.475 OA
BRANCH  16  18
ATOM     17  C   LIG    1       26.188 -30.827   5.984  0.00  0.00    +0.067 C 
ATOM     18  C   LIG    1       25.225 -29.682   6.351  0.00  0.00    +0.200 C 
ATOM     19  C   LIG    1       25.454 -29.278   7.821  0.00  0.00    +0.067 C 
BRANCH  18  20
ATOM     20  C   LIG    1       23.781 -30.239   6.283  0.00  0.00    +0.348 C 
ATOM     21  O   LIG    1       23.352 -31.176   6.976  0.00  0.00    -0.246 OA
BRANCH  20  22
ATOM     22  O   LIG    1       22.966 -29.644   5.387  0.00  0.00    -0.478 OA
ATOM     23  H   LIG    1       22.504 -30.281   4.791  0.00  0.00    +0.295 HD
ENDBRANCH  20  22
ENDBRANCH  18  20
ENDBRANCH  16  18
ENDBRANCH   1  16
TORSDOF 6
ENDMDL
MODEL 7
REMARK VINA RESULT:      -8.4      3.639      5.443
REMARK  Name = *****
REMARK                            x       y       z     vdW  Elec       q    Type
REMARK                         _______ _______ _______ _____ _____    ______ ____
ROOT
ATOM      1  C   LIG    1       25.471 -20.399   6.574  0.00  0.00    +0.122 A 
ATOM      2  C   LIG    1       25.698 -20.648   7.937  0.00  0.00    +0.046 A 
ATOM      3  C   LIG    1       27.007 -20.708   8.461  0.00  0.00    +0.015 A 
ATOM      4  C   LIG    1       28.110 -20.511   7.621  0.00  0.00    +0.022 A 
ATOM      5  C   LIG    1       27.881 -20.236   6.274  0.00  0.00    +0.015 A 
ATOM      6  C   LIG    1       26.581 -20.195   5.762  0.00  0.00    +0.046 A 
ENDROOT
BRANCH   4   7
ATOM      7  C   LIG    1       29.529 -20.547   8.074  0.00  0.00    +0.193 C 
ATOM      8  O   LIG    1       30.095 -21.637   8.164  0.00  0.00    -0.287 OA
BRANCH   7   9
ATOM      9  C   LIG    1       30.293 -19.327   8.436  0.00  0.00    +0.022 A 
ATOM     10  C   LIG    1       29.677 -18.376   9.262  0.00  0.00    +0.013 A 
ATOM     11  C   LIG    1       30.363 -17.220   9.643  0.00  0.00    +0.021 A 
ATOM     12  C   LIG    1       31.662 -17.008   9.187  0.00  0.00    +0.041 A 
ATOM     13 CL   LIG    1       32.523 -15.602   9.676  0.00  0.00    -0.084 Cl
ATOM     14  C   LIG    1       32.267 -17.927   8.329  0.00  0.00    +0.021 A 
ATOM     15  C   LIG    1       31.578 -19.079   7.939  0.00  0.00    +0.013 A 
ENDBRANCH   7   9
ENDBRANCH   4   7
BRANCH   1  16
ATOM     16  O   LIG    1       24.168 -20.344   6.155  0.00  0.00    -0.475 OA
BRANCH  16  18
ATOM     17  C   LIG    1       22.088 -21.193   5.056  0.00  0.00    +0.067 C 
ATOM     18  C   LIG    1       23.623 -21.255   5.169  0.00  0.00    +0.200 C 
ATOM     19  C   LIG    1       24.240 -21.137   3.761  0.00  0.00    +0.067 C 
BRANCH  18  20
ATOM     20  C   LIG    1       24.003 -22.666   5.684  0.00  0.00    +0.348 C 
ATOM     21  O   LIG    1       23.577 -23.173   6.734  0.00  0.00    -0.246 OA
BRANCH  20  22
ATOM     22  O   LIG    1       24.868 -23.357   4.913  0.00  0.00    -0.478 OA
ATOM     23  H   LIG    1       24.687 -23.272   3.946  0.00  0.00    +0.295 HD
ENDBRANCH  20  22
ENDBRANCH  18  20
ENDBRANCH  16  18
ENDBRANCH   1  16
TORSDOF 6
ENDMDL
MODEL 8
REMARK VINA RESULT:      -8.4      3.428      5.686
REMARK  Name = *****
REMARK                            x       y       z     vdW  Elec       q    Type
REMARK                         _______ _______ _______ _____ _____    ______ ____
ROOT
ATOM      1  C   LIG    1       26.835 -21.574   6.857  0.00  0.00    +0.122 A 
ATOM      2  C   LIG    1       26.953 -20.520   5.937  0.00  0.00    +0.046 A 
ATOM      3  C   LIG    1       28.048 -19.631   5.982  0.00  0.00    +0.015 A 
ATOM      4  C   LIG    1       29.046 -19.793   6.950  0.00  0.00    +0.022 A 
ATOM      5  C   LIG    1       28.941 -20.858   7.843  0.00  0.00    +0.015 A 
ATOM      6  C   LIG    1       27.844 -21.722   7.801  0.00  0.00    +0.046 A 
ENDROOT
BRANCH   4   7
ATOM      7  C   LIG    1       30.244 -18.916   7.078  0.00  0.00    +0.193 C 
ATOM      8  O   LIG    1       30.962 -18.746   6.093  0.00  0.00    -0.287 OA
BRANCH   7   9
ATOM      9  C   LIG    1       30.623 -18.246   8.348  0.00  0.00    +0.022 A 
ATOM     10  C   LIG    1       31.944 -17.801   8.498  0.00  0.00    +0.013 A 
ATOM     11  C   LIG    1       32.341 -17.150   9.669  0.00  0.00    +0.021 A 
ATOM     12  C   LIG    1       31.421 -16.955  10.696  0.00  0.00    +0.041 A 
ATOM     13 CL   LIG    1       31.897 -16.128  12.127  0.00  0.00    -0.084 Cl
ATOM     14  C   LIG    1       30.116 -17.434  10.574  0.00  0.00    +0.021 A 
ATOM     15  C   LIG    1       29.720 -18.094   9.407  0.00  0.00    +0.013 A 
ENDBRANCH   7   9
ENDBRANCH   4   7
BRANCH   1  16
ATOM     16  O   LIG    1       25.746 -22.396   6.732  0.00  0.00    -0.475 OA
BRANCH  16  18
ATOM     17  C   LIG    1       23.900 -20.819   7.331  0.00  0.00    +0.067 C 
ATOM     18  C   LIG    1       24.430 -21.906   6.377  0.00  0.00    +0.200 C 
ATOM     19  C   LIG    1       24.288 -21.418   4.922  0.00  0.00    +0.067 C 
BRANCH  18  20
ATOM     20  C   LIG    1       23.503 -23.141   6.505  0.00  0.00    +0.348 C 
ATOM     21  O   LIG    1       23.868 -24.262   6.895  0.00  0.00    -0.246 OA
BRANCH  20  22
ATOM     22  O   LIG    1       22.216 -22.945   6.149  0.00  0.00    -0.478 OA
ATOM     23  H   LIG    1       21.614 -23.673   6.433  0.00  0.00    +0.295 HD
ENDBRANCH  20  22
ENDBRANCH  18  20
ENDBRANCH  16  18
ENDBRANCH   1  16
TORSDOF 6
ENDMDL
MODEL 9
REMARK VINA RESULT:      -8.4      3.951      8.092
REMARK  Name = *****
REMARK                            x       y       z     vdW  Elec       q    Type
REMARK                         _______ _______ _______ _____ _____    ______ ____
ROOT
ATOM      1  C   LIG    1       28.929 -19.433   7.092  0.00  0.00    +0.122 A 
ATOM      2  C   LIG    1       28.314 -19.576   5.837  0.00  0.00    +0.046 A 
ATOM      3  C   LIG    1       27.056 -20.202   5.707  0.00  0.00    +0.015 A 
ATOM      4  C   LIG    1       26.392 -20.689   6.839  0.00  0.00    +0.022 A 
ATOM      5  C   LIG    1       26.991 -20.520   8.086  0.00  0.00    +0.015 A 
ATOM      6  C   LIG    1       28.245 -19.913   8.203  0.00  0.00    +0.046 A 
ENDROOT
BRANCH   4   7
ATOM      7  C   LIG    1       25.062 -21.358   6.812  0.00  0.00    +0.193 C 
ATOM      8  O   LIG    1       24.048 -20.667   6.912  0.00  0.00    -0.287 OA
BRANCH   7   9
ATOM      9  C   LIG    1       24.898 -22.829   6.684  0.00  0.00    +0.022 A 
ATOM     10  C   LIG    1       23.599 -23.350   6.596  0.00  0.00    +0.013 A 
ATOM     11  C   LIG    1       23.398 -24.725   6.458  0.00  0.00    +0.021 A 
ATOM     12  C   LIG    1       24.495 -25.582   6.421  0.00  0.00    +0.041 A 
ATOM     13 CL   LIG    1       24.254 -27.273   6.221  0.00  0.00    -0.084 Cl
ATOM     14  C   LIG    1       25.789 -25.078   6.552  0.00  0.00    +0.021 A 
ATOM     15  C   LIG    1       25.992 -23.703   6.700  0.00  0.00    +0.013 A 
ENDBRANCH   7   9
ENDBRANCH   4   7
BRANCH   1  16
ATOM     16  O   LIG    1       30.143 -18.801   7.126  0.00  0.00    -0.475 OA
BRANCH  16  18
ATOM     17  C   LIG    1       32.132 -17.693   8.162  0.00  0.00    +0.067 C 
ATOM     18  C   LIG    1       30.837 -18.503   8.363  0.00  0.00    +0.200 C 
ATOM     19  C   LIG    1       29.976 -17.822   9.445  0.00  0.00    +0.067 C 
BRANCH  18  20
ATOM     20  C   LIG    1       31.229 -19.887   8.937  0.00  0.00    +0.348 C 
ATOM     21  O   LIG    1       31.747 -20.804   8.279  0.00  0.00    -0.246 OA
BRANCH  20  22
ATOM     22  O   LIG    1       30.963 -20.073  10.247  0.00  0.00    -0.478 OA
ATOM     23  H   LIG    1       30.371 -19.383  10.630  0.00  0.00    +0.295 HD
ENDBRANCH  20  22
ENDBRANCH  18  20
ENDBRANCH  16  18
ENDBRANCH   1  16
TORSDOF 6
ENDMDL
