MODEL 1
REMARK VINA RESULT:      -3.0      0.000      0.000
REMARK  Name = *****
REMARK                            x       y       z     vdW  Elec       q    Type
REMARK                         _______ _______ _______ _____ _____    ______ ____
ROOT
ATOM      1  C   LIG    1       23.964 -15.184   4.673  0.00  0.00    +0.026 C 
ATOM      2  C   LIG    1       24.815 -14.445   3.559  0.00  0.00    +0.109 C 
ATOM      3  C   LIG    1       23.727 -13.503   3.034  0.00  0.00    +0.136 C 
ATOM      4  O   LIG    1       23.856 -12.460   4.091  0.00  0.00    -0.371 OA
ATOM      5  C   LIG    1       25.164 -11.995   3.710  0.00  0.00    +0.136 C 
ATOM      6  C   LIG    1       24.797 -11.478   2.322  0.00  0.00    +0.035 C 
ATOM      7  C   LIG    1       23.904 -12.612   1.812  0.00  0.00    +0.035 C 
ATOM      8  C   LIG    1       25.917 -13.317   3.671  0.00  0.00    +0.109 C 
ATOM      9  C   LIG    1       27.036 -13.289   2.553  0.00  0.00    +0.026 C 
ATOM     10  C   LIG    1       26.572 -13.782   4.893  0.00  0.00    +0.324 C 
ATOM     11  O   LIG    1       26.974 -13.104   5.841  0.00  0.00    -0.250 OA
ATOM     12  O   LIG    1       26.734 -15.122   4.696  0.00  0.00    -0.392 OA
ATOM     13  C   LIG    1       25.931 -15.465   3.595  0.00  0.00    +0.324 C 
ATOM     14  O   LIG    1       26.090 -16.481   2.930  0.00  0.00    -0.250 OA
ENDROOT
TORSDOF 0
ENDMDL
MODEL 2
REMARK VINA RESULT:      -2.9      1.524      2.171
REMARK  Name = *****
REMARK                            x       y       z     vdW  Elec       q    Type
REMARK                         _______ _______ _______ _____ _____    ______ ____
ROOT
ATOM      1  C   LIG    1       26.881 -13.711   6.024  0.00  0.00    +0.026 C 
ATOM      2  C   LIG    1       26.328 -14.154   4.606  0.00  0.00    +0.109 C 
ATOM      3  C   LIG    1       24.846 -13.837   4.835  0.00  0.00    +0.136 C 
ATOM      4  O   LIG    1       24.924 -12.374   4.558  0.00  0.00    -0.371 OA
ATOM      5  C   LIG    1       25.213 -12.484   3.152  0.00  0.00    +0.136 C 
ATOM      6  C   LIG    1       23.912 -13.162   2.732  0.00  0.00    +0.035 C 
ATOM      7  C   LIG    1       23.746 -14.198   3.847  0.00  0.00    +0.035 C 
ATOM      8  C   LIG    1       26.394 -13.443   3.196  0.00  0.00    +0.109 C 
ATOM      9  C   LIG    1       26.405 -14.374   1.918  0.00  0.00    +0.026 C 
ATOM     10  C   LIG    1       27.741 -12.884   3.305  0.00  0.00    +0.324 C 
ATOM     11  O   LIG    1       28.127 -11.766   2.956  0.00  0.00    -0.250 OA
ATOM     12  O   LIG    1       28.494 -13.916   3.781  0.00  0.00    -0.392 OA
ATOM     13  C   LIG    1       27.592 -14.894   4.234  0.00  0.00    +0.324 C 
ATOM     14  O   LIG    1       27.892 -16.070   4.396  0.00  0.00    -0.250 OA
ENDROOT
TORSDOF 0
ENDMDL
MODEL 3
REMARK VINA RESULT:      -2.9      1.488      2.758
REMARK  Name = *****
REMARK                            x       y       z     vdW  Elec       q    Type
REMARK                         _______ _______ _______ _____ _____    ______ ____
ROOT
ATOM      1  C   LIG    1       26.699 -14.906   3.381  0.00  0.00    +0.026 C 
ATOM      2  C   LIG    1       26.026 -13.508   3.701  0.00  0.00    +0.109 C 
ATOM      3  C   LIG    1       26.009 -12.938   2.278  0.00  0.00    +0.136 C 
ATOM      4  O   LIG    1       24.777 -13.636   1.812  0.00  0.00    -0.371 OA
ATOM      5  C   LIG    1       23.852 -12.929   2.659  0.00  0.00    +0.136 C 
ATOM      6  C   LIG    1       24.073 -11.535   2.079  0.00  0.00    +0.035 C 
ATOM      7  C   LIG    1       25.598 -11.509   1.950  0.00  0.00    +0.035 C 
ATOM      8  C   LIG    1       24.524 -13.123   4.010  0.00  0.00    +0.109 C 
ATOM      9  C   LIG    1       24.278 -11.868   4.941  0.00  0.00    +0.026 C 
ATOM     10  C   LIG    1       24.165 -14.297   4.805  0.00  0.00    +0.324 C 
ATOM     11  O   LIG    1       23.117 -14.945   4.766  0.00  0.00    -0.250 OA
ATOM     12  O   LIG    1       25.207 -14.447   5.671  0.00  0.00    -0.392 OA
ATOM     13  C   LIG    1       26.246 -13.630   5.191  0.00  0.00    +0.324 C 
ATOM     14  O   LIG    1       27.182 -13.248   5.882  0.00  0.00    -0.250 OA
ENDROOT
TORSDOF 0
ENDMDL
MODEL 4
REMARK VINA RESULT:      -2.8      1.569      3.434
REMARK  Name = *****
REMARK                            x       y       z     vdW  Elec       q    Type
REMARK                         _______ _______ _______ _____ _____    ______ ____
ROOT
ATOM      1  C   LIG    1       25.435 -15.744   2.937  0.00  0.00    +0.026 C 
ATOM      2  C   LIG    1       25.485 -14.613   4.046  0.00  0.00    +0.109 C 
ATOM      3  C   LIG    1       26.960 -14.748   4.436  0.00  0.00    +0.136 C 
ATOM      4  O   LIG    1       27.524 -13.939   3.318  0.00  0.00    -0.371 OA
ATOM      5  C   LIG    1       26.994 -12.670   3.745  0.00  0.00    +0.136 C 
ATOM      6  C   LIG    1       27.749 -12.572   5.068  0.00  0.00    +0.035 C 
ATOM      7  C   LIG    1       27.594 -13.999   5.601  0.00  0.00    +0.035 C 
ATOM      8  C   LIG    1       25.528 -13.038   3.923  0.00  0.00    +0.109 C 
ATOM      9  C   LIG    1       24.883 -12.204   5.102  0.00  0.00    +0.026 C 
ATOM     10  C   LIG    1       24.630 -12.890   2.779  0.00  0.00    +0.324 C 
ATOM     11  O   LIG    1       24.753 -12.135   1.812  0.00  0.00    -0.250 OA
ATOM     12  O   LIG    1       23.572 -13.697   3.078  0.00  0.00    -0.392 OA
ATOM     13  C   LIG    1       23.980 -14.510   4.150  0.00  0.00    +0.324 C 
ATOM     14  O   LIG    1       23.201 -15.094   4.893  0.00  0.00    -0.250 OA
ENDROOT
TORSDOF 0
ENDMDL
MODEL 5
REMARK VINA RESULT:      -2.6      1.375      3.025
REMARK  Name = *****
REMARK                            x       y       z     vdW  Elec       q    Type
REMARK                         _______ _______ _______ _____ _____    ______ ____
ROOT
ATOM      1  C   LIG    1       26.051 -12.771   1.815  0.00  0.00    +0.026 C 
ATOM      2  C   LIG    1       25.968 -12.926   3.390  0.00  0.00    +0.109 C 
ATOM      3  C   LIG    1       24.535 -12.421   3.588  0.00  0.00    +0.136 C 
ATOM      4  O   LIG    1       23.839 -13.692   3.238  0.00  0.00    -0.371 OA
ATOM      5  C   LIG    1       24.280 -14.446   4.383  0.00  0.00    +0.136 C 
ATOM      6  C   LIG    1       23.599 -13.601   5.455  0.00  0.00    +0.035 C 
ATOM      7  C   LIG    1       23.908 -12.187   4.956  0.00  0.00    +0.035 C 
ATOM      8  C   LIG    1       25.781 -14.204   4.300  0.00  0.00    +0.109 C 
ATOM      9  C   LIG    1       26.418 -14.160   5.747  0.00  0.00    +0.026 C 
ATOM     10  C   LIG    1       26.595 -15.138   3.524  0.00  0.00    +0.324 C 
ATOM     11  O   LIG    1       26.350 -16.317   3.260  0.00  0.00    -0.250 OA
ATOM     12  O   LIG    1       27.734 -14.440   3.250  0.00  0.00    -0.392 OA
ATOM     13  C   LIG    1       27.462 -13.095   3.552  0.00  0.00    +0.324 C 
ATOM     14  O   LIG    1       28.330 -12.257   3.759  0.00  0.00    -0.250 OA
ENDROOT
TORSDOF 0
ENDMDL
MODEL 6
REMARK VINA RESULT:      -2.6      1.171      2.964
REMARK  Name = *****
REMARK                            x       y       z     vdW  Elec       q    Type
REMARK                         _______ _______ _______ _____ _____    ______ ____
ROOT
ATOM      1  C   LIG    1       28.109 -12.948   3.471  0.00  0.00    +0.026 C 
ATOM      2  C   LIG    1       26.610 -13.128   3.950  0.00  0.00    +0.109 C 
ATOM      3  C   LIG    1       25.952 -12.109   3.015  0.00  0.00    +0.136 C 
ATOM      4  O   LIG    1       25.870 -12.985   1.812  0.00  0.00    -0.371 OA
ATOM      5  C   LIG    1       24.894 -13.903   2.338  0.00  0.00    +0.136 C 
ATOM      6  C   LIG    1       23.749 -12.908   2.502  0.00  0.00    +0.035 C 
ATOM      7  C   LIG    1       24.485 -11.709   3.106  0.00  0.00    +0.035 C 
ATOM      8  C   LIG    1       25.556 -14.269   3.659  0.00  0.00    +0.109 C 
ATOM      9  C   LIG    1       24.465 -14.545   4.771  0.00  0.00    +0.026 C 
ATOM     10  C   LIG    1       26.467 -15.412   3.688  0.00  0.00    +0.324 C 
ATOM     11  O   LIG    1       26.484 -16.386   2.932  0.00  0.00    -0.250 OA
ATOM     12  O   LIG    1       27.223 -15.208   4.805  0.00  0.00    -0.392 OA
ATOM     13  C   LIG    1       26.997 -13.880   5.204  0.00  0.00    +0.324 C 
ATOM     14  O   LIG    1       27.225 -13.462   6.333  0.00  0.00    -0.250 OA
ENDROOT
TORSDOF 0
ENDMDL
MODEL 7
REMARK VINA RESULT:      -2.5      1.615      3.564
REMARK  Name = *****
REMARK                            x       y       z     vdW  Elec       q    Type
REMARK                         _______ _______ _______ _____ _____    ______ ____
ROOT
ATOM      1  C   LIG    1       25.669 -11.629   2.076  0.00  0.00    +0.026 C 
ATOM      2  C   LIG    1       25.422 -13.000   2.831  0.00  0.00    +0.109 C 
ATOM      3  C   LIG    1       26.857 -13.536   2.794  0.00  0.00    +0.136 C 
ATOM      4  O   LIG    1       27.373 -12.769   3.963  0.00  0.00    -0.371 OA
ATOM      5  C   LIG    1       26.596 -13.449   4.967  0.00  0.00    +0.136 C 
ATOM      6  C   LIG    1       27.198 -14.838   4.780  0.00  0.00    +0.035 C 
ATOM      7  C   LIG    1       27.243 -14.936   3.253  0.00  0.00    +0.035 C 
ATOM      8  C   LIG    1       25.205 -13.318   4.364  0.00  0.00    +0.109 C 
ATOM      9  C   LIG    1       24.321 -14.580   4.721  0.00  0.00    +0.026 C 
ATOM     10  C   LIG    1       24.403 -12.146   4.712  0.00  0.00    +0.324 C 
ATOM     11  O   LIG    1       24.483 -11.447   5.724  0.00  0.00    -0.250 OA
ATOM     12  O   LIG    1       23.477 -12.066   3.713  0.00  0.00    -0.392 OA
ATOM     13  C   LIG    1       23.919 -12.922   2.689  0.00  0.00    +0.324 C 
ATOM     14  O   LIG    1       23.187 -13.364   1.812  0.00  0.00    -0.250 OA
ENDROOT
TORSDOF 0
ENDMDL
MODEL 8
REMARK VINA RESULT:      -2.2      5.324      7.297
REMARK  Name = *****
REMARK                            x       y       z     vdW  Elec       q    Type
REMARK                         _______ _______ _______ _____ _____    ______ ____
ROOT
ATOM      1  C   LIG    1       22.365 -20.802   5.414  0.00  0.00    +0.026 C 
ATOM      2  C   LIG    1       23.606 -19.832   5.240  0.00  0.00    +0.109 C 
ATOM      3  C   LIG    1       24.525 -20.453   6.297  0.00  0.00    +0.136 C 
ATOM      4  O   LIG    1       25.043 -21.571   5.459  0.00  0.00    -0.371 OA
ATOM      5  C   LIG    1       25.796 -20.758   4.539  0.00  0.00    +0.136 C 
ATOM      6  C   LIG    1       26.787 -20.181   5.546  0.00  0.00    +0.035 C 
ATOM      7  C   LIG    1       25.857 -19.845   6.715  0.00  0.00    +0.035 C 
ATOM      8  C   LIG    1       24.722 -19.762   4.124  0.00  0.00    +0.109 C 
ATOM      9  C   LIG    1       25.361 -18.346   3.829  0.00  0.00    +0.026 C 
ATOM     10  C   LIG    1       23.886 -20.081   2.968  0.00  0.00    +0.324 C 
ATOM     11  O   LIG    1       24.158 -20.819   2.018  0.00  0.00    -0.250 OA
ATOM     12  O   LIG    1       22.783 -19.296   3.126  0.00  0.00    -0.392 OA
ATOM     13  C   LIG    1       22.822 -18.812   4.445  0.00  0.00    +0.324 C 
ATOM     14  O   LIG    1       22.204 -17.825   4.824  0.00  0.00    -0.250 OA
ENDROOT
TORSDOF 0
ENDMDL
MODEL 9
REMARK VINA RESULT:      -1.8      1.308      1.458
REMARK  Name = *****
REMARK                            x       y       z     vdW  Elec       q    Type
REMARK                         _______ _______ _______ _____ _____    ______ ____
ROOT
ATOM      1  C   LIG    1       25.307 -15.803   3.513  0.00  0.00    +0.026 C 
ATOM      2  C   LIG    1       25.520 -14.251   3.276  0.00  0.00    +0.109 C 
ATOM      3  C   LIG    1       24.048 -13.829   3.226  0.00  0.00    +0.136 C 
ATOM      4  O   LIG    1       23.821 -13.765   4.698  0.00  0.00    -0.371 OA
ATOM      5  C   LIG    1       24.672 -12.631   4.950  0.00  0.00    +0.136 C 
ATOM      6  C   LIG    1       23.896 -11.609   4.124  0.00  0.00    +0.035 C 
ATOM      7  C   LIG    1       23.588 -12.423   2.864  0.00  0.00    +0.035 C 
ATOM      8  C   LIG    1       25.950 -13.098   4.268  0.00  0.00    +0.109 C 
ATOM      9  C   LIG    1       26.734 -11.871   3.651  0.00  0.00    +0.026 C 
ATOM     10  C   LIG    1       26.925 -13.850   5.057  0.00  0.00    +0.324 C 
ATOM     11  O   LIG    1       27.092 -13.824   6.278  0.00  0.00    -0.250 OA
ATOM     12  O   LIG    1       27.676 -14.504   4.125  0.00  0.00    -0.392 OA
ATOM     13  C   LIG    1       26.978 -14.406   2.908  0.00  0.00    +0.324 C 
ATOM     14  O   LIG    1       27.500 -14.564   1.812  0.00  0.00    -0.250 OA
ENDROOT
TORSDOF 0
ENDMDL
