MODEL 1
REMARK VINA RESULT:      15.3      0.000      0.000
REMARK  Name = *****
REMARK                            x       y       z     vdW  Elec       q    Type
REMARK                         _______ _______ _______ _____ _____    ______ ____
ROOT
ATOM      1  C   LIG    1       24.932 -14.324   4.329  0.00  0.00    +0.123 C 
ENDROOT
BRANCH   1   4
ATOM      2 CL   LIG    1       24.021 -11.614   5.863  0.00  0.00    -0.083 Cl
ATOM      3  C   LIG    1       23.195 -13.136   5.931  0.00  0.00    +0.047 A 
ATOM      4  C   LIG    1       23.624 -14.296   5.229  0.00  0.00    +0.005 A 
ATOM      5  C   LIG    1       22.839 -15.461   5.406  0.00  0.00    +0.008 A 
ATOM      6  C   LIG    1       21.707 -15.474   6.228  0.00  0.00    +0.001 A 
ATOM      7  C   LIG    1       21.309 -14.323   6.891  0.00  0.00    +0.001 A 
ATOM      8  C   LIG    1       22.048 -13.158   6.739  0.00  0.00    +0.020 A 
ENDBRANCH   1   4
BRANCH   1   9
ATOM      9  C   LIG    1       25.220 -15.801   3.794  0.00  0.00    -0.013 A 
ATOM     10  C   LIG    1       24.238 -16.819   3.818  0.00  0.00    +0.006 A 
ATOM     11  C   LIG    1       24.503 -18.126   3.381  0.00  0.00    +0.000 A 
ATOM     12  C   LIG    1       25.772 -18.469   2.940  0.00  0.00    +0.000 A 
ATOM     13  C   LIG    1       26.783 -17.516   2.973  0.00  0.00    +0.000 A 
ATOM     14  C   LIG    1       26.516 -16.217   3.418  0.00  0.00    +0.006 A 
ENDBRANCH   1   9
BRANCH   1  15
ATOM     15  C   LIG    1       26.209 -13.840   5.147  0.00  0.00    -0.013 A 
ATOM     16  C   LIG    1       27.044 -12.812   4.650  0.00  0.00    +0.006 A 
ATOM     17  C   LIG    1       28.175 -12.380   5.353  0.00  0.00    +0.000 A 
ATOM     18  C   LIG    1       28.520 -12.977   6.560  0.00  0.00    +0.000 A 
ATOM     19  C   LIG    1       27.743 -14.016   7.059  0.00  0.00    +0.000 A 
ATOM     20  C   LIG    1       26.609 -14.443   6.362  0.00  0.00    +0.006 A 
ENDBRANCH   1  15
BRANCH   1  21
ATOM     21  N   LIG    1       24.714 -13.326   3.210  0.00  0.00    -0.319 N 
ATOM     22  C   LIG    1       23.477 -13.033   2.649  0.00  0.00    +0.200 A 
ATOM     23  N   LIG    1       23.521 -12.022   1.815  0.00  0.00    -0.244 NA
ATOM     24  C   LIG    1       24.822 -11.625   1.813  0.00  0.00    +0.130 A 
ATOM     25  C   LIG    1       25.574 -12.403   2.660  0.00  0.00    +0.108 A 
ENDBRANCH   1  21
TORSDOF 4
ENDMDL
MODEL 2
REMARK VINA RESULT:      17.3      3.685      6.691
REMARK  Name = *****
REMARK                            x       y       z     vdW  Elec       q    Type
REMARK                         _______ _______ _______ _____ _____    ______ ____
ROOT
ATOM      1  C   LIG    1       22.736 -17.790   4.776  0.00  0.00    +0.123 C 
ENDROOT
BRANCH   1   4
ATOM      2 CL   LIG    1       24.513 -20.026   3.237  0.00  0.00    -0.083 Cl
ATOM      3  C   LIG    1       24.878 -18.334   3.323  0.00  0.00    +0.047 A 
ATOM      4  C   LIG    1       24.060 -17.386   3.999  0.00  0.00    +0.005 A 
ATOM      5  C   LIG    1       24.513 -16.045   3.982  0.00  0.00    +0.008 A 
ATOM      6  C   LIG    1       25.700 -15.670   3.343  0.00  0.00    +0.001 A 
ATOM      7  C   LIG    1       26.469 -16.617   2.684  0.00  0.00    +0.001 A 
ATOM      8  C   LIG    1       26.057 -17.942   2.671  0.00  0.00    +0.020 A 
ENDBRANCH   1   4
BRANCH   1   9
ATOM      9  C   LIG    1       22.960 -19.129   5.618  0.00  0.00    -0.013 A 
ATOM     10  C   LIG    1       24.145 -19.372   6.352  0.00  0.00    +0.006 A 
ATOM     11  C   LIG    1       24.355 -20.564   7.062  0.00  0.00    +0.000 A 
ATOM     12  C   LIG    1       23.404 -21.571   7.030  0.00  0.00    +0.000 A 
ATOM     13  C   LIG    1       22.260 -21.401   6.258  0.00  0.00    +0.000 A 
ATOM     14  C   LIG    1       22.058 -20.214   5.545  0.00  0.00    +0.006 A 
ENDBRANCH   1   9
BRANCH   1  15
ATOM     15  C   LIG    1       21.527 -18.039   3.771  0.00  0.00    -0.013 A 
ATOM     16  C   LIG    1       21.224 -17.104   2.753  0.00  0.00    +0.006 A 
ATOM     17  C   LIG    1       20.160 -17.304   1.865  0.00  0.00    +0.000 A 
ATOM     18  C   LIG    1       19.352 -18.428   1.982  0.00  0.00    +0.000 A 
ATOM     19  C   LIG    1       19.597 -19.347   2.995  0.00  0.00    +0.000 A 
ATOM     20  C   LIG    1       20.664 -19.154   3.877  0.00  0.00    +0.006 A 
ENDBRANCH   1  15
BRANCH   1  21
ATOM     21  N   LIG    1       22.359 -16.607   5.644  0.00  0.00    -0.319 N 
ATOM     22  C   LIG    1       22.888 -15.330   5.503  0.00  0.00    +0.200 A 
ATOM     23  N   LIG    1       22.288 -14.442   6.260  0.00  0.00    -0.244 NA
ATOM     24  C   LIG    1       21.331 -15.140   6.928  0.00  0.00    +0.130 A 
ATOM     25  C   LIG    1       21.350 -16.467   6.569  0.00  0.00    +0.108 A 
ENDBRANCH   1  21
TORSDOF 4
ENDMDL
