MODEL 1
REMARK VINA RESULT:       0.5      0.000      0.000
REMARK  Name = *****
REMARK                            x       y       z     vdW  Elec       q    Type
REMARK                         _______ _______ _______ _____ _____    ______ ____
ROOT
ATOM      1  N   LIG    1       25.107 -19.082   4.105  0.00  0.00    -0.346 NA
ATOM      2  C   LIG    1       24.744 -17.719   3.985  0.00  0.00    +0.055 C 
ATOM      3  C   LIG    1       23.394 -17.349   4.161  0.00  0.00    +0.049 C 
ATOM      4  C   LIG    1       22.972 -16.024   4.034  0.00  0.00    +0.054 C 
ATOM      5  C   LIG    1       23.899 -15.035   3.734  0.00  0.00    +0.145 C 
ATOM      6  C   LIG    1       25.262 -15.328   3.562  0.00  0.00    +0.067 C 
ATOM      7  F   LIG    1       23.438 -13.779   3.646  0.00  0.00    -0.203 F 
ATOM      8  C   LIG    1       22.381 -18.379   4.491  0.00  0.00    +0.203 C 
ATOM      9  O   LIG    1       21.199 -18.090   4.663  0.00  0.00    -0.286 OA
ATOM     10  C   LIG    1       22.822 -19.780   4.614  0.00  0.00    +0.122 C 
ATOM     11  C   LIG    1       25.653 -16.680   3.698  0.00  0.00    +0.052 C 
ATOM     12  C   LIG    1       24.125 -20.020   4.404  0.00  0.00    +0.105 C 
ENDROOT
BRANCH   6  13
ATOM     13  N   LIG    1       26.263 -14.376   3.259  0.00  0.00    -0.325 NA
ATOM     14  C   LIG    1       27.608 -14.810   3.714  0.00  0.00    +0.120 C 
ATOM     15  C   LIG    1       28.703 -13.799   3.282  0.00  0.00    +0.103 C 
ATOM     16  N   LIG    1       28.443 -12.382   3.619  0.00  0.00    -0.302 NA
ATOM     17  C   LIG    1       28.592 -12.131   5.053  0.00  0.00    +0.105 C 
ATOM     18  C   LIG    1       27.088 -12.024   3.139  0.00  0.00    +0.103 C 
ATOM     19  C   LIG    1       25.961 -12.970   3.616  0.00  0.00    +0.120 C 
ENDBRANCH   6  13
BRANCH   1  21
ATOM     20  C   LIG    1       27.228 -19.899   5.072  0.00  0.00    +0.027 C 
ATOM     21  C   LIG    1       26.483 -19.517   3.800  0.00  0.00    +0.118 C 
ENDBRANCH   1  21
BRANCH  10  22
ATOM     22  C   LIG    1       21.915 -20.898   4.944  0.00  0.00    +0.342 C 
ATOM     23  O   LIG    1       20.950 -21.204   4.258  0.00  0.00    -0.245 OA
BRANCH  22  24
ATOM     24  O   LIG    1       22.243 -21.571   6.065  0.00  0.00    -0.477 OA
ATOM     25  H   LIG    1       23.215 -21.670   6.211  0.00  0.00    +0.295 HD
ENDBRANCH  22  24
ENDBRANCH  10  22
TORSDOF 4
ENDMDL
MODEL 2
REMARK VINA RESULT:       1.0      3.881      7.751
REMARK  Name = *****
REMARK                            x       y       z     vdW  Elec       q    Type
REMARK                         _______ _______ _______ _____ _____    ______ ____
ROOT
ATOM      1  N   LIG    1       25.303 -14.067   3.634  0.00  0.00    -0.346 NA
ATOM      2  C   LIG    1       25.647 -15.438   3.718  0.00  0.00    +0.055 C 
ATOM      3  C   LIG    1       26.999 -15.797   3.894  0.00  0.00    +0.049 C 
ATOM      4  C   LIG    1       27.403 -17.132   3.963  0.00  0.00    +0.054 C 
ATOM      5  C   LIG    1       26.454 -18.141   3.864  0.00  0.00    +0.145 C 
ATOM      6  C   LIG    1       25.087 -17.857   3.706  0.00  0.00    +0.067 C 
ATOM      7  F   LIG    1       26.898 -19.402   3.959  0.00  0.00    -0.203 F 
ATOM      8  C   LIG    1       28.036 -14.745   4.011  0.00  0.00    +0.203 C 
ATOM      9  O   LIG    1       29.222 -15.022   4.177  0.00  0.00    -0.286 OA
ATOM     10  C   LIG    1       27.615 -13.334   3.927  0.00  0.00    +0.122 C 
ATOM     11  C   LIG    1       24.716 -16.494   3.641  0.00  0.00    +0.052 C 
ATOM     12  C   LIG    1       26.306 -13.109   3.737  0.00  0.00    +0.105 C 
ENDROOT
BRANCH   6  13
ATOM     13  N   LIG    1       24.064 -18.828   3.602  0.00  0.00    -0.325 NA
ATOM     14  C   LIG    1       22.917 -18.533   4.497  0.00  0.00    +0.120 C 
ATOM     15  C   LIG    1       21.766 -19.554   4.292  0.00  0.00    +0.103 C 
ATOM     16  N   LIG    1       22.151 -20.982   4.348  0.00  0.00    -0.302 NA
ATOM     17  C   LIG    1       22.459 -21.405   5.714  0.00  0.00    +0.105 C 
ATOM     18  C   LIG    1       23.298 -21.197   3.437  0.00  0.00    +0.103 C 
ATOM     19  C   LIG    1       24.496 -20.243   3.666  0.00  0.00    +0.120 C 
ENDBRANCH   6  13
BRANCH   1  21
ATOM     20  C   LIG    1       23.845 -12.180   2.990  0.00  0.00    +0.027 C 
ATOM     21  C   LIG    1       23.919 -13.664   3.322  0.00  0.00    +0.118 C 
ENDBRANCH   1  21
BRANCH  10  22
ATOM     22  C   LIG    1       28.546 -12.193   4.035  0.00  0.00    +0.342 C 
ATOM     23  O   LIG    1       28.920 -11.539   3.071  0.00  0.00    -0.245 OA
BRANCH  22  24
ATOM     24  O   LIG    1       28.948 -11.918   5.291  0.00  0.00    -0.477 OA
ATOM     25  H   LIG    1       28.343 -12.254   5.995  0.00  0.00    +0.295 HD
ENDBRANCH  22  24
ENDBRANCH  10  22
TORSDOF 4
ENDMDL
MODEL 3
REMARK VINA RESULT:       1.4      3.547      7.098
REMARK  Name = *****
REMARK                            x       y       z     vdW  Elec       q    Type
REMARK                         _______ _______ _______ _____ _____    ______ ____
ROOT
ATOM      1  N   LIG    1       27.639 -16.066   4.020  0.00  0.00    -0.346 NA
ATOM      2  C   LIG    1       26.224 -16.115   4.024  0.00  0.00    +0.055 C 
ATOM      3  C   LIG    1       25.495 -14.912   4.130  0.00  0.00    +0.049 C 
ATOM      4  C   LIG    1       24.099 -14.898   4.160  0.00  0.00    +0.054 C 
ATOM      5  C   LIG    1       23.400 -16.095   4.077  0.00  0.00    +0.145 C 
ATOM      6  C   LIG    1       24.059 -17.329   3.952  0.00  0.00    +0.067 C 
ATOM      7  F   LIG    1       22.061 -16.017   4.090  0.00  0.00    -0.203 F 
ATOM      8  C   LIG    1       26.210 -13.617   4.213  0.00  0.00    +0.203 C 
ATOM      9  O   LIG    1       25.607 -12.550   4.294  0.00  0.00    -0.286 OA
ATOM     10  C   LIG    1       27.685 -13.630   4.192  0.00  0.00    +0.122 C 
ATOM     11  C   LIG    1       25.473 -17.305   3.924  0.00  0.00    +0.052 C 
ATOM     12  C   LIG    1       28.274 -14.832   4.111  0.00  0.00    +0.105 C 
ENDROOT
BRANCH   6  13
ATOM     13  N   LIG    1       23.417 -18.585   3.858  0.00  0.00    -0.325 NA
ATOM     14  C   LIG    1       22.267 -18.701   4.790  0.00  0.00    +0.120 C 
ATOM     15  C   LIG    1       21.518 -20.046   4.597  0.00  0.00    +0.103 C 
ATOM     16  N   LIG    1       22.360 -21.263   4.614  0.00  0.00    -0.302 NA
ATOM     17  C   LIG    1       22.837 -21.572   5.962  0.00  0.00    +0.105 C 
ATOM     18  C   LIG    1       23.482 -21.073   3.667  0.00  0.00    +0.103 C 
ATOM     19  C   LIG    1       24.299 -19.776   3.881  0.00  0.00    +0.120 C 
ENDBRANCH   6  13
BRANCH   1  21
ATOM     20  C   LIG    1       28.838 -17.675   5.461  0.00  0.00    +0.027 C 
ATOM     21  C   LIG    1       28.428 -17.312   4.040  0.00  0.00    +0.118 C 
ENDBRANCH   1  21
BRANCH  10  22
ATOM     22  C   LIG    1       28.515 -12.410   4.262  0.00  0.00    +0.342 C 
ATOM     23  O   LIG    1       28.936 -11.827   3.272  0.00  0.00    -0.245 OA
BRANCH  22  24
ATOM     24  O   LIG    1       28.767 -11.978   5.513  0.00  0.00    -0.477 OA
ATOM     25  H   LIG    1       28.163 -11.262   5.826  0.00  0.00    +0.295 HD
ENDBRANCH  22  24
ENDBRANCH  10  22
TORSDOF 4
ENDMDL
MODEL 4
REMARK VINA RESULT:       3.0      1.714      2.866
REMARK  Name = *****
REMARK                            x       y       z     vdW  Elec       q    Type
REMARK                         _______ _______ _______ _____ _____    ______ ____
ROOT
ATOM      1  N   LIG    1       22.641 -17.283   4.341  0.00  0.00    -0.346 NA
ATOM      2  C   LIG    1       24.027 -17.290   4.054  0.00  0.00    +0.055 C 
ATOM      3  C   LIG    1       24.722 -18.517   4.048  0.00  0.00    +0.049 C 
ATOM      4  C   LIG    1       26.093 -18.585   3.793  0.00  0.00    +0.054 C 
ATOM      5  C   LIG    1       26.800 -17.419   3.531  0.00  0.00    +0.145 C 
ATOM      6  C   LIG    1       26.171 -16.164   3.504  0.00  0.00    +0.067 C 
ATOM      7  F   LIG    1       28.109 -17.550   3.273  0.00  0.00    -0.203 F 
ATOM      8  C   LIG    1       23.995 -19.781   4.316  0.00  0.00    +0.203 C 
ATOM      9  O   LIG    1       24.566 -20.869   4.306  0.00  0.00    -0.286 OA
ATOM     10  C   LIG    1       22.549 -19.711   4.596  0.00  0.00    +0.122 C 
ATOM     11  C   LIG    1       24.781 -16.133   3.766  0.00  0.00    +0.052 C 
ATOM     12  C   LIG    1       21.997 -18.488   4.598  0.00  0.00    +0.105 C 
ENDROOT
BRANCH   6  13
ATOM     13  N   LIG    1       26.822 -14.937   3.241  0.00  0.00    -0.325 NA
ATOM     14  C   LIG    1       28.146 -14.848   3.905  0.00  0.00    +0.120 C 
ATOM     15  C   LIG    1       28.884 -13.538   3.521  0.00  0.00    +0.103 C 
ATOM     16  N   LIG    1       28.108 -12.288   3.680  0.00  0.00    -0.302 NA
ATOM     17  C   LIG    1       27.938 -11.934   5.089  0.00  0.00    +0.105 C 
ATOM     18  C   LIG    1       26.804 -12.453   2.997  0.00  0.00    +0.103 C 
ATOM     19  C   LIG    1       26.007 -13.712   3.415  0.00  0.00    +0.120 C 
ENDBRANCH   6  13
BRANCH   1  21
ATOM     20  C   LIG    1       22.009 -15.480   5.907  0.00  0.00    +0.027 C 
ATOM     21  C   LIG    1       21.915 -16.007   4.482  0.00  0.00    +0.118 C 
ENDBRANCH   1  21
BRANCH  10  22
ATOM     22  C   LIG    1       21.710 -20.894   4.873  0.00  0.00    +0.342 C 
ATOM     23  O   LIG    1       20.787 -21.246   4.151  0.00  0.00    -0.245 OA
BRANCH  22  24
ATOM     24  O   LIG    1       22.051 -21.572   5.987  0.00  0.00    -0.477 OA
ATOM     25  H   LIG    1       22.557 -21.041   6.648  0.00  0.00    +0.295 HD
ENDBRANCH  22  24
ENDBRANCH  10  22
TORSDOF 4
ENDMDL
