MODEL 1
REMARK VINA RESULT:       0.3      0.000      0.000
REMARK  Name = *****
REMARK                            x       y       z     vdW  Elec       q    Type
REMARK                         _______ _______ _______ _____ _____    ______ ____
ROOT
ATOM      1  C   LIG    1       27.201 -17.424   3.910  0.00  0.00    +0.142 C 
ATOM      2  C   LIG    1       27.828 -16.058   4.188  0.00  0.00    +0.237 C 
ATOM      3  O   LIG    1       28.937 -16.048   4.750  0.00  0.00    -0.274 OA
ATOM      4  N   LIG    1       27.284 -14.825   3.813  0.00  0.00    -0.259 N 
ATOM      5  C   LIG    1       25.883 -14.424   3.775  0.00  0.00    +0.040 A 
ATOM      6  C   LIG    1       24.785 -15.291   3.919  0.00  0.00    -0.026 A 
ATOM      7  C   LIG    1       23.489 -14.764   4.178  0.00  0.00    +0.005 A 
ATOM      8  C   LIG    1       23.229 -13.403   4.141  0.00  0.00    +0.000 A 
ATOM      9  C   LIG    1       24.256 -12.547   3.808  0.00  0.00    +0.002 A 
ATOM     10  C   LIG    1       24.793 -16.778   3.694  0.00  0.00    +0.039 C 
ATOM     11  C   LIG    1       25.554 -13.050   3.641  0.00  0.00    +0.024 A 
ATOM     12  C   LIG    1       26.018 -17.290   2.962  0.00  0.00    +0.033 C 
ENDROOT
BRANCH   1  13
ATOM     13  N   LIG    1       26.867 -18.214   5.134  0.00  0.00    -0.293 NA
ATOM     14  H   LIG    1       26.388 -17.593   5.783  0.00  0.00    +0.123 HD
BRANCH  13  15
ATOM     15  C   LIG    1       26.050 -19.464   4.984  0.00  0.00    +0.164 C 
BRANCH  15  16
ATOM     16  C   LIG    1       26.276 -20.512   6.080  0.00  0.00    +0.324 C 
ATOM     17  O   LIG    1       25.604 -21.547   6.225  0.00  0.00    -0.249 OA
BRANCH  16  18
ATOM     18  O   LIG    1       27.326 -20.140   6.886  0.00  0.00    -0.464 OA
BRANCH  18  20
ATOM     19  C   LIG    1       29.475 -19.106   6.374  0.00  0.00    +0.048 C 
ATOM     20  C   LIG    1       28.674 -20.397   6.424  0.00  0.00    +0.229 C 
ENDBRANCH  18  20
ENDBRANCH  16  18
ENDBRANCH  15  16
BRANCH  15  21
ATOM     21  C   LIG    1       26.291 -20.116   3.574  0.00  0.00    +0.035 C 
BRANCH  21  22
ATOM     22  C   LIG    1       25.034 -20.615   2.821  0.00  0.00    +0.037 C 
BRANCH  22  23
ATOM     23  C   LIG    1       23.689 -20.406   3.508  0.00  0.00    -0.047 A 
ATOM     24  C   LIG    1       23.102 -21.425   4.272  0.00  0.00    +0.003 A 
ATOM     25  C   LIG    1       21.935 -21.190   5.012  0.00  0.00    +0.000 A 
ATOM     26  C   LIG    1       21.328 -19.937   4.993  0.00  0.00    +0.000 A 
ATOM     27  C   LIG    1       21.891 -18.915   4.234  0.00  0.00    +0.000 A 
ATOM     28  C   LIG    1       23.066 -19.144   3.505  0.00  0.00    +0.003 A 
ENDBRANCH  22  23
ENDBRANCH  21  22
ENDBRANCH  15  21
ENDBRANCH  13  15
ENDBRANCH   1  13
BRANCH   4  29
ATOM     29  C   LIG    1       28.312 -13.758   3.717  0.00  0.00    +0.234 C 
BRANCH  29  30
ATOM     30  C   LIG    1       28.475 -12.902   4.962  0.00  0.00    +0.323 C 
ATOM     31  O   LIG    1       27.827 -13.160   5.987  0.00  0.00    -0.249 OA
BRANCH  30  32
ATOM     32  O   LIG    1       29.262 -11.823   4.870  0.00  0.00    -0.479 OA
ATOM     33  H   LIG    1       29.084 -11.332   4.025  0.00  0.00    +0.295 HD
ENDBRANCH  30  32
ENDBRANCH  29  30
ENDBRANCH   4  29
TORSDOF 11
ENDMDL
MODEL 2
REMARK VINA RESULT:       0.3      1.856      6.740
REMARK  Name = *****
REMARK                            x       y       z     vdW  Elec       q    Type
REMARK                         _______ _______ _______ _____ _____    ______ ____
ROOT
ATOM      1  C   LIG    1       25.690 -17.721   3.161  0.00  0.00    +0.142 C 
ATOM      2  C   LIG    1       24.827 -18.794   3.824  0.00  0.00    +0.237 C 
ATOM      3  O   LIG    1       23.595 -18.627   3.795  0.00  0.00    -0.274 OA
ATOM      4  N   LIG    1       25.304 -19.971   4.409  0.00  0.00    -0.259 N 
ATOM      5  C   LIG    1       26.534 -20.176   5.164  0.00  0.00    +0.040 A 
ATOM      6  C   LIG    1       27.587 -19.250   5.271  0.00  0.00    -0.026 A 
ATOM      7  C   LIG    1       28.585 -19.416   6.270  0.00  0.00    +0.005 A 
ATOM      8  C   LIG    1       28.653 -20.554   7.059  0.00  0.00    +0.000 A 
ATOM      9  C   LIG    1       27.742 -21.563   6.835  0.00  0.00    +0.002 A 
ATOM     10  C   LIG    1       27.870 -18.116   4.323  0.00  0.00    +0.039 C 
ATOM     11  C   LIG    1       26.701 -21.369   5.915  0.00  0.00    +0.024 A 
ATOM     12  C   LIG    1       27.124 -18.205   3.006  0.00  0.00    +0.033 C 
ENDROOT
BRANCH   1  13
ATOM     13  N   LIG    1       25.605 -16.374   3.802  0.00  0.00    -0.293 NA
ATOM     14  H   LIG    1       25.896 -16.473   4.773  0.00  0.00    +0.123 HD
BRANCH  13  15
ATOM     15  C   LIG    1       26.373 -15.237   3.193  0.00  0.00    +0.164 C 
BRANCH  15  16
ATOM     16  C   LIG    1       27.285 -14.485   4.170  0.00  0.00    +0.324 C 
ATOM     17  O   LIG    1       26.988 -14.195   5.342  0.00  0.00    -0.249 OA
BRANCH  16  18
ATOM     18  O   LIG    1       28.477 -14.169   3.562  0.00  0.00    -0.464 OA
BRANCH  18  20
ATOM     19  C   LIG    1       28.327 -12.199   4.994  0.00  0.00    +0.048 C 
ATOM     20  C   LIG    1       29.124 -12.924   3.921  0.00  0.00    +0.229 C 
ENDBRANCH  18  20
ENDBRANCH  16  18
ENDBRANCH  15  16
BRANCH  15  21
ATOM     21  C   LIG    1       25.396 -14.220   2.498  0.00  0.00    +0.035 C 
BRANCH  21  22
ATOM     22  C   LIG    1       24.402 -13.476   3.423  0.00  0.00    +0.037 C 
BRANCH  22  23
ATOM     23  C   LIG    1       23.552 -14.333   4.354  0.00  0.00    -0.047 A 
ATOM     24  C   LIG    1       23.275 -13.919   5.666  0.00  0.00    +0.003 A 
ATOM     25  C   LIG    1       22.386 -14.638   6.476  0.00  0.00    +0.000 A 
ATOM     26  C   LIG    1       21.768 -15.790   5.996  0.00  0.00    +0.000 A 
ATOM     27  C   LIG    1       22.037 -16.222   4.700  0.00  0.00    +0.000 A 
ATOM     28  C   LIG    1       22.914 -15.495   3.883  0.00  0.00    +0.003 A 
ENDBRANCH  22  23
ENDBRANCH  21  22
ENDBRANCH  15  21
ENDBRANCH  13  15
ENDBRANCH   1  13
BRANCH   4  29
ATOM     29  C   LIG    1       24.269 -21.034   4.472  0.00  0.00    +0.234 C 
BRANCH  29  30
ATOM     30  C   LIG    1       23.118 -20.761   5.426  0.00  0.00    +0.323 C 
ATOM     31  O   LIG    1       23.343 -20.464   6.608  0.00  0.00    -0.249 OA
BRANCH  30  32
ATOM     32  O   LIG    1       21.876 -20.948   4.963  0.00  0.00    -0.479 OA
ATOM     33  H   LIG    1       21.319 -21.420   5.636  0.00  0.00    +0.295 HD
ENDBRANCH  30  32
ENDBRANCH  29  30
ENDBRANCH   4  29
TORSDOF 11
ENDMDL
MODEL 3
REMARK VINA RESULT:       0.3      1.809      4.294
REMARK  Name = *****
REMARK                            x       y       z     vdW  Elec       q    Type
REMARK                         _______ _______ _______ _____ _____    ______ ____
ROOT
ATOM      1  C   LIG    1       23.977 -17.489   3.714  0.00  0.00    +0.142 C 
ATOM      2  C   LIG    1       25.236 -16.652   3.481  0.00  0.00    +0.237 C 
ATOM      3  O   LIG    1       26.305 -17.269   3.328  0.00  0.00    -0.274 OA
ATOM      4  N   LIG    1       25.273 -15.259   3.371  0.00  0.00    -0.259 N 
ATOM      5  C   LIG    1       24.476 -14.269   4.085  0.00  0.00    +0.040 A 
ATOM      6  C   LIG    1       23.357 -14.551   4.888  0.00  0.00    -0.026 A 
ATOM      7  C   LIG    1       22.850 -13.565   5.778  0.00  0.00    +0.005 A 
ATOM      8  C   LIG    1       23.324 -12.262   5.779  0.00  0.00    +0.000 A 
ATOM      9  C   LIG    1       24.292 -11.916   4.861  0.00  0.00    +0.002 A 
ATOM     10  C   LIG    1       22.509 -15.792   4.821  0.00  0.00    +0.039 C 
ATOM     11  C   LIG    1       24.859 -12.902   4.043  0.00  0.00    +0.024 A 
ATOM     12  C   LIG    1       22.728 -16.630   3.577  0.00  0.00    +0.033 C 
ENDROOT
BRANCH   1  13
ATOM     13  N   LIG    1       23.989 -18.287   4.977  0.00  0.00    -0.293 NA
ATOM     14  H   LIG    1       23.036 -18.314   5.336  0.00  0.00    +0.123 HD
BRANCH  13  15
ATOM     15  C   LIG    1       24.518 -19.690   4.938  0.00  0.00    +0.164 C 
BRANCH  15  16
ATOM     16  C   LIG    1       23.957 -20.554   3.803  0.00  0.00    +0.324 C 
ATOM     17  O   LIG    1       24.423 -20.610   2.652  0.00  0.00    -0.249 OA
BRANCH  16  18
ATOM     18  O   LIG    1       22.856 -21.255   4.237  0.00  0.00    -0.464 OA
BRANCH  18  20
ATOM     19  C   LIG    1       21.154 -19.600   3.676  0.00  0.00    +0.048 C 
ATOM     20  C   LIG    1       21.725 -20.512   4.750  0.00  0.00    +0.229 C 
ENDBRANCH  18  20
ENDBRANCH  16  18
ENDBRANCH  15  16
BRANCH  15  21
ATOM     21  C   LIG    1       24.277 -20.410   6.315  0.00  0.00    +0.035 C 
BRANCH  21  22
ATOM     22  C   LIG    1       25.441 -21.278   6.852  0.00  0.00    +0.037 C 
BRANCH  22  23
ATOM     23  C   LIG    1       26.855 -20.821   6.515  0.00  0.00    -0.047 A 
ATOM     24  C   LIG    1       27.080 -19.650   5.775  0.00  0.00    +0.003 A 
ATOM     25  C   LIG    1       28.378 -19.159   5.580  0.00  0.00    +0.000 A 
ATOM     26  C   LIG    1       29.475 -19.834   6.108  0.00  0.00    +0.000 A 
ATOM     27  C   LIG    1       29.274 -21.002   6.838  0.00  0.00    +0.000 A 
ATOM     28  C   LIG    1       27.975 -21.487   7.047  0.00  0.00    +0.003 A 
ENDBRANCH  22  23
ENDBRANCH  21  22
ENDBRANCH  15  21
ENDBRANCH  13  15
ENDBRANCH   1  13
BRANCH   4  29
ATOM     29  C   LIG    1       26.468 -14.780   2.630  0.00  0.00    +0.234 C 
BRANCH  29  30
ATOM     30  C   LIG    1       27.586 -14.222   3.495  0.00  0.00    +0.323 C 
ATOM     31  O   LIG    1       27.615 -14.463   4.711  0.00  0.00    -0.249 OA
BRANCH  30  32
ATOM     32  O   LIG    1       28.463 -13.396   2.912  0.00  0.00    -0.479 OA
ATOM     33  H   LIG    1       29.280 -13.302   3.469  0.00  0.00    +0.295 HD
ENDBRANCH  30  32
ENDBRANCH  29  30
ENDBRANCH   4  29
TORSDOF 11
ENDMDL
MODEL 4
REMARK VINA RESULT:       0.4      2.287      7.378
REMARK  Name = *****
REMARK                            x       y       z     vdW  Elec       q    Type
REMARK                         _______ _______ _______ _____ _____    ______ ____
ROOT
ATOM      1  C   LIG    1       24.351 -15.620   4.309  0.00  0.00    +0.142 C 
ATOM      2  C   LIG    1       24.909 -16.898   3.681  0.00  0.00    +0.237 C 
ATOM      3  O   LIG    1       25.932 -16.785   2.982  0.00  0.00    -0.274 OA
ATOM      4  N   LIG    1       24.397 -18.185   3.873  0.00  0.00    -0.259 N 
ATOM      5  C   LIG    1       23.007 -18.597   4.021  0.00  0.00    +0.040 A 
ATOM      6  C   LIG    1       21.916 -17.729   4.203  0.00  0.00    -0.026 A 
ATOM      7  C   LIG    1       20.588 -18.204   4.024  0.00  0.00    +0.005 A 
ATOM      8  C   LIG    1       20.308 -19.547   3.823  0.00  0.00    +0.000 A 
ATOM      9  C   LIG    1       21.355 -20.444   3.835  0.00  0.00    +0.002 A 
ATOM     10  C   LIG    1       21.983 -16.317   4.717  0.00  0.00    +0.039 C 
ATOM     11  C   LIG    1       22.673 -19.973   3.920  0.00  0.00    +0.024 A 
ATOM     12  C   LIG    1       23.306 -15.952   5.363  0.00  0.00    +0.033 C 
ENDROOT
BRANCH   1  13
ATOM     13  N   LIG    1       23.871 -14.604   3.325  0.00  0.00    -0.293 NA
ATOM     14  H   LIG    1       22.939 -14.311   3.611  0.00  0.00    +0.123 HD
BRANCH  13  15
ATOM     15  C   LIG    1       24.701 -13.375   3.094  0.00  0.00    +0.164 C 
BRANCH  15  16
ATOM     16  C   LIG    1       23.896 -12.086   2.895  0.00  0.00    +0.324 C 
ATOM     17  O   LIG    1       23.756 -11.493   1.812  0.00  0.00    -0.249 OA
BRANCH  16  18
ATOM     18  O   LIG    1       23.356 -11.673   4.090  0.00  0.00    -0.464 OA
BRANCH  18  20
ATOM     19  C   LIG    1       24.919 -11.447   5.949  0.00  0.00    +0.048 C 
ATOM     20  C   LIG    1       23.828 -12.292   5.311  0.00  0.00    +0.229 C 
ENDBRANCH  18  20
ENDBRANCH  16  18
ENDBRANCH  15  16
BRANCH  15  21
ATOM     21  C   LIG    1       25.668 -13.584   1.871  0.00  0.00    +0.035 C 
BRANCH  21  22
ATOM     22  C   LIG    1       27.108 -14.049   2.203  0.00  0.00    +0.037 C 
BRANCH  22  23
ATOM     23  C   LIG    1       27.703 -13.563   3.519  0.00  0.00    -0.047 A 
ATOM     24  C   LIG    1       28.638 -12.517   3.548  0.00  0.00    +0.003 A 
ATOM     25  C   LIG    1       29.083 -11.982   4.764  0.00  0.00    +0.000 A 
ATOM     26  C   LIG    1       28.614 -12.490   5.973  0.00  0.00    +0.000 A 
ATOM     27  C   LIG    1       27.693 -13.533   5.966  0.00  0.00    +0.000 A 
ATOM     28  C   LIG    1       27.235 -14.060   4.750  0.00  0.00    +0.003 A 
ENDBRANCH  22  23
ENDBRANCH  21  22
ENDBRANCH  15  21
ENDBRANCH  13  15
ENDBRANCH   1  13
BRANCH   4  29
ATOM     29  C   LIG    1       25.408 -19.241   3.613  0.00  0.00    +0.234 C 
BRANCH  29  30
ATOM     30  C   LIG    1       26.138 -19.756   4.843  0.00  0.00    +0.323 C 
ATOM     31  O   LIG    1       25.599 -20.591   5.585  0.00  0.00    -0.249 OA
BRANCH  30  32
ATOM     32  O   LIG    1       27.322 -19.205   5.133  0.00  0.00    -0.479 OA
ATOM     33  H   LIG    1       27.549 -18.497   4.474  0.00  0.00    +0.295 HD
ENDBRANCH  30  32
ENDBRANCH  29  30
ENDBRANCH   4  29
TORSDOF 11
ENDMDL
MODEL 5
REMARK VINA RESULT:       1.5      3.009      7.448
REMARK  Name = *****
REMARK                            x       y       z     vdW  Elec       q    Type
REMARK                         _______ _______ _______ _____ _____    ______ ____
ROOT
ATOM      1  C   LIG    1       24.585 -18.447   2.934  0.00  0.00    +0.142 C 
ATOM      2  C   LIG    1       24.162 -19.489   3.969  0.00  0.00    +0.237 C 
ATOM      3  O   LIG    1       22.943 -19.620   4.175  0.00  0.00    -0.274 OA
ATOM      4  N   LIG    1       25.028 -20.342   4.661  0.00  0.00    -0.259 N 
ATOM      5  C   LIG    1       26.371 -20.067   5.157  0.00  0.00    +0.040 A 
ATOM      6  C   LIG    1       27.135 -18.929   4.845  0.00  0.00    -0.026 A 
ATOM      7  C   LIG    1       28.286 -18.609   5.617  0.00  0.00    +0.005 A 
ATOM      8  C   LIG    1       28.785 -19.468   6.584  0.00  0.00    +0.000 A 
ATOM      9  C   LIG    1       28.158 -20.681   6.770  0.00  0.00    +0.002 A 
ATOM     10  C   LIG    1       26.946 -18.033   3.652  0.00  0.00    +0.039 C 
ATOM     11  C   LIG    1       26.972 -20.964   6.078  0.00  0.00    +0.024 A 
ATOM     12  C   LIG    1       26.054 -18.615   2.572  0.00  0.00    +0.033 C 
ENDROOT
BRANCH   1  13
ATOM     13  N   LIG    1       24.240 -17.039   3.294  0.00  0.00    -0.293 NA
ATOM     14  H   LIG    1       23.694 -16.647   2.529  0.00  0.00    +0.123 HD
BRANCH  13  15
ATOM     15  C   LIG    1       23.506 -16.782   4.577  0.00  0.00    +0.164 C 
BRANCH  15  16
ATOM     16  C   LIG    1       21.979 -16.849   4.465  0.00  0.00    +0.324 C 
ATOM     17  O   LIG    1       21.182 -16.310   5.252  0.00  0.00    -0.249 OA
BRANCH  16  18
ATOM     18  O   LIG    1       21.613 -17.599   3.372  0.00  0.00    -0.464 OA
BRANCH  18  20
ATOM     19  C   LIG    1       19.401 -18.160   2.510  0.00  0.00    +0.048 C 
ATOM     20  C   LIG    1       20.496 -18.511   3.505  0.00  0.00    +0.229 C 
ENDBRANCH  18  20
ENDBRANCH  16  18
ENDBRANCH  15  16
BRANCH  15  21
ATOM     21  C   LIG    1       23.928 -15.396   5.188  0.00  0.00    +0.035 C 
BRANCH  21  22
ATOM     22  C   LIG    1       24.226 -14.261   4.178  0.00  0.00    +0.037 C 
BRANCH  22  23
ATOM     23  C   LIG    1       25.682 -13.840   4.022  0.00  0.00    -0.047 A 
ATOM     24  C   LIG    1       26.420 -13.369   5.118  0.00  0.00    +0.003 A 
ATOM     25  C   LIG    1       27.793 -13.109   5.006  0.00  0.00    +0.000 A 
ATOM     26  C   LIG    1       28.450 -13.304   3.794  0.00  0.00    +0.000 A 
ATOM     27  C   LIG    1       27.734 -13.764   2.692  0.00  0.00    +0.000 A 
ATOM     28  C   LIG    1       26.364 -14.038   2.807  0.00  0.00    +0.003 A 
ENDBRANCH  22  23
ENDBRANCH  21  22
ENDBRANCH  15  21
ENDBRANCH  13  15
ENDBRANCH   1  13
BRANCH   4  29
ATOM     29  C   LIG    1       24.344 -21.563   5.158  0.00  0.00    +0.234 C 
BRANCH  29  30
ATOM     30  C   LIG    1       23.021 -21.321   5.866  0.00  0.00    +0.323 C 
ATOM     31  O   LIG    1       23.003 -20.990   7.061  0.00  0.00    -0.249 OA
BRANCH  30  32
ATOM     32  O   LIG    1       21.900 -21.572   5.180  0.00  0.00    -0.479 OA
ATOM     33  H   LIG    1       21.505 -20.728   4.834  0.00  0.00    +0.295 HD
ENDBRANCH  30  32
ENDBRANCH  29  30
ENDBRANCH   4  29
TORSDOF 11
ENDMDL
