MODEL 1
REMARK VINA RESULT:       1.7      0.000      0.000
REMARK  Name = *****
REMARK                            x       y       z     vdW  Elec       q    Type
REMARK                         _______ _______ _______ _____ _____    ______ ____
ROOT
ATOM      1  C   LIG    1       27.392 -24.761  12.537  0.00  0.00    +0.010 C 
ATOM      2  C   LIG    1       27.074 -25.780  13.347  0.00  0.00    -0.046 C 
ATOM      3  C   LIG    1       27.249 -27.260  13.104  0.00  0.00    +0.144 C 
ATOM      4  O   LIG    1       26.841 -27.886  14.347  0.00  0.00    -0.369 OA
ATOM      5  C   LIG    1       26.040 -26.950  15.094  0.00  0.00    +0.123 C 
ATOM      6  C   LIG    1       24.544 -27.095  14.770  0.00  0.00    +0.037 C 
ATOM      7  C   LIG    1       24.041 -28.493  15.129  0.00  0.00    +0.068 C 
ATOM      8  C   LIG    1       22.580 -28.757  14.764  0.00  0.00    +0.174 C 
ATOM      9  O   LIG    1       22.252 -30.091  15.296  0.00  0.00    -0.340 OA
ATOM     10  C   LIG    1       20.805 -30.215  15.400  0.00  0.00    +0.182 C 
ATOM     11  C   LIG    1       20.324 -28.754  15.373  0.00  0.00    +0.155 C 
ATOM     12  O   LIG    1       19.811 -28.518  14.053  0.00  0.00    -0.365 OA
ATOM     13  C   LIG    1       20.207 -29.629  13.251  0.00  0.00    +0.181 C 
ATOM     14  C   LIG    1       21.692 -29.724  12.832  0.00  0.00    +0.184 C 
ATOM     15  C   LIG    1       21.698 -30.551  11.550  0.00  0.00    +0.179 C 
ATOM     16  C   LIG    1       20.883 -31.866  12.018  0.00  0.00    +0.150 C 
ATOM     17  C   LIG    1       21.453 -33.187  11.507  0.00  0.00    +0.037 C 
ATOM     18  C   LIG    1       22.953 -33.135  11.251  0.00  0.00    +0.034 C 
ATOM     19  C   LIG    1       23.362 -31.923  10.419  0.00  0.00    +0.126 C 
ATOM     20  C   LIG    1       22.783 -31.852   9.001  0.00  0.00    +0.106 C 
ATOM     21  C   LIG    1       23.665 -32.560   7.981  0.00  0.00    +0.136 C 
ATOM     22  C   LIG    1       23.711 -31.956   6.583  0.00  0.00    +0.083 C 
ATOM     23  C   LIG    1       25.050 -32.031   5.837  0.00  0.00    +0.056 C 
ATOM     24  C   LIG    1       26.327 -31.546   6.544  0.00  0.00    +0.128 C 
ATOM     25  C   LIG    1       26.261 -30.726   7.839  0.00  0.00    +0.068 C 
ATOM     26  C   LIG    1       26.943 -29.351   7.661  0.00  0.00    +0.147 C 
ATOM     27  C   LIG    1       26.249 -28.453   6.646  0.00  0.00    -0.045 C 
ATOM     28  C   LIG    1       26.803 -28.201   5.445  0.00  0.00    +0.010 C 
ATOM     29  C   LIG    1       24.948 -27.856   7.140  0.00  0.00    +0.016 C 
ATOM     30  C   LIG    1       24.214 -26.925   6.170  0.00  0.00    +0.012 C 
ATOM     31  C   LIG    1       25.258 -27.116   8.440  0.00  0.00    +0.039 C 
ATOM     32  C   LIG    1       25.938 -28.038   9.460  0.00  0.00    +0.120 C 
ATOM     33  C   LIG    1       26.420 -27.189  10.649  0.00  0.00    +0.034 C 
ATOM     34  O   LIG    1       27.099 -28.663   8.906  0.00  0.00    -0.369 OA
ATOM     35  O   LIG    1       27.153 -32.717   6.716  0.00  0.00    -0.370 OA
ATOM     36  C   LIG    1       26.918 -33.546   5.558  0.00  0.00    +0.150 C 
ATOM     37  C   LIG    1       25.403 -33.440   5.324  0.00  0.00    +0.152 C 
ATOM     38  O   LIG    1       24.235 -33.622   8.245  0.00  0.00    -0.297 OA
ATOM     39  O   LIG    1       20.737 -31.984  13.498  0.00  0.00    -0.365 OA
ATOM     40  O   LIG    1       23.059 -30.740  11.157  0.00  0.00    -0.368 OA
ATOM     41  C   LIG    1       20.110 -30.838  14.135  0.00  0.00    +0.181 C 
ATOM     42  O   LIG    1       22.444 -28.621  13.293  0.00  0.00    -0.340 OA
ATOM     43  C   LIG    1       21.567 -27.895  15.499  0.00  0.00    +0.099 C 
ATOM     44  C   LIG    1       26.496 -27.968  11.959  0.00  0.00    +0.038 C 
ATOM     45  C   LIG    1       26.586 -25.580  14.742  0.00  0.00    +0.064 C 
ENDROOT
BRANCH  37  46
ATOM     46  O   LIG    1       25.001 -33.564   3.959  0.00  0.00    -0.377 OA
ATOM     47  C   LIG    1       23.611 -33.825   3.792  0.00  0.00    +0.194 C 
ENDBRANCH  37  46
BRANCH  36  48
ATOM     48  C   LIG    1       27.799 -33.075   4.379  0.00  0.00    +0.066 C 
BRANCH  48  49
ATOM     49  C   LIG    1       27.278 -33.555   3.014  0.00  0.00    +0.131 C 
BRANCH  49  50
ATOM     50  O   LIG    1       28.363 -33.822   2.125  0.00  0.00    -0.391 OA
ATOM     51  H   LIG    1       28.819 -32.973   1.952  0.00  0.00    +0.210 HD
ENDBRANCH  49  50
BRANCH  49  52
ATOM     52  C   LIG    1       26.372 -32.502   2.336  0.00  0.00    +0.109 C 
BRANCH  52  53
ATOM     53  N   LIG    1       26.017 -32.778   0.943  0.00  0.00    -0.328 NA
ATOM     54  H   LIG    1       26.748 -33.332   0.501  0.00  0.00    +0.118 HD
ATOM     55  H   LIG    1       25.949 -31.906   0.423  0.00  0.00    +0.118 HD
ENDBRANCH  52  53
ENDBRANCH  49  52
ENDBRANCH  48  49
ENDBRANCH  36  48
TORSDOF 6
ENDMDL
