MODEL 1
REMARK VINA RESULT:      -2.6      0.000      0.000
REMARK  Name = *****
REMARK                            x       y       z     vdW  Elec       q    Type
REMARK                         _______ _______ _______ _____ _____    ______ ____
ROOT
ATOM      1  O   LIG    1       24.727 -17.296   3.255  0.00  0.00    -0.226 OA
ATOM      2  C   LIG    1       25.627 -17.883   3.853  0.00  0.00    +0.413 C 
ATOM      3  N   LIG    1       25.456 -19.075   4.592  0.00  0.00    -0.188 N 
ATOM      4  C   LIG    1       26.550 -19.690   5.304  0.00  0.00    +0.148 A 
ATOM      5  C   LIG    1       26.345 -20.567   6.376  0.00  0.00    +0.053 A 
ATOM      6  C   LIG    1       27.452 -21.164   6.998  0.00  0.00    +0.020 A 
ATOM      7  C   LIG    1       28.737 -20.883   6.558  0.00  0.00    +0.021 A 
ATOM      8  C   LIG    1       28.868 -20.007   5.505  0.00  0.00    +0.113 A 
ATOM      9  S   LIG    1       24.755 -20.919   7.061  0.00  0.00    -0.084 S 
ATOM     10  C   LIG    1       23.774 -20.632   5.615  0.00  0.00    +0.035 A 
ATOM     11  C   LIG    1       22.531 -21.290   5.563  0.00  0.00    +0.017 A 
ATOM     12  C   LIG    1       21.679 -21.125   4.476  0.00  0.00    +0.001 A 
ATOM     13  C   LIG    1       22.069 -20.304   3.432  0.00  0.00    +0.002 A 
ATOM     14  C   LIG    1       23.302 -19.643   3.484  0.00  0.00    +0.025 A 
ATOM     15  N   LIG    1       27.818 -19.429   4.882  0.00  0.00    -0.238 NA
ATOM     16  C   LIG    1       24.183 -19.772   4.581  0.00  0.00    +0.060 A 
ENDROOT
BRANCH   2  17
ATOM     17  O   LIG    1       26.891 -17.359   3.864  0.00  0.00    -0.448 OA
BRANCH  17  18
ATOM     18  C   LIG    1       27.045 -16.051   3.291  0.00  0.00    +0.262 C 
BRANCH  18  19
ATOM     19  C   LIG    1       28.112 -15.259   4.042  0.00  0.00    +0.201 C 
BRANCH  19  20
ATOM     20  O   LIG    1       27.537 -14.120   4.685  0.00  0.00    -0.375 OA
BRANCH  20  21
ATOM     21  C   LIG    1       27.900 -12.923   3.985  0.00  0.00    +0.175 C 
BRANCH  21  22
ATOM     22  C   LIG    1       26.810 -12.555   2.968  0.00  0.00    +0.112 C 
BRANCH  22  23
ATOM     23  N   LIG    1       25.558 -13.327   3.111  0.00  0.00    -0.300 NA
ATOM     24  C   LIG    1       24.996 -13.325   4.471  0.00  0.00    +0.084 C 
ATOM     25  C   LIG    1       24.463 -11.961   4.907  0.00  0.00    +0.015 C 
ATOM     26  C   LIG    1       23.419 -11.447   3.920  0.00  0.00    +0.002 C 
ATOM     27  C   LIG    1       23.930 -11.509   2.482  0.00  0.00    +0.015 C 
ATOM     28  C   LIG    1       24.538 -12.877   2.150  0.00  0.00    +0.084 C 
ENDBRANCH  22  23
ENDBRANCH  21  22
ENDBRANCH  20  21
ENDBRANCH  19  20
ENDBRANCH  18  19
ENDBRANCH  17  18
ENDBRANCH   2  17
TORSDOF 7
ENDMDL
MODEL 2
REMARK VINA RESULT:      -1.1      1.311      3.826
REMARK  Name = *****
REMARK                            x       y       z     vdW  Elec       q    Type
REMARK                         _______ _______ _______ _____ _____    ______ ____
ROOT
ATOM      1  O   LIG    1       28.006 -17.441   3.615  0.00  0.00    -0.226 OA
ATOM      2  C   LIG    1       26.791 -17.629   3.676  0.00  0.00    +0.413 C 
ATOM      3  N   LIG    1       26.173 -18.653   4.428  0.00  0.00    -0.188 N 
ATOM      4  C   LIG    1       24.742 -18.839   4.422  0.00  0.00    +0.148 A 
ATOM      5  C   LIG    1       24.147 -20.061   4.760  0.00  0.00    +0.053 A 
ATOM      6  C   LIG    1       22.748 -20.163   4.775  0.00  0.00    +0.020 A 
ATOM      7  C   LIG    1       21.963 -19.066   4.454  0.00  0.00    +0.021 A 
ATOM      8  C   LIG    1       22.612 -17.899   4.124  0.00  0.00    +0.113 A 
ATOM      9  S   LIG    1       25.062 -21.533   5.100  0.00  0.00    -0.084 S 
ATOM     10  C   LIG    1       26.555 -20.787   5.691  0.00  0.00    +0.035 A 
ATOM     11  C   LIG    1       27.349 -21.572   6.549  0.00  0.00    +0.017 A 
ATOM     12  C   LIG    1       28.546 -21.084   7.062  0.00  0.00    +0.001 A 
ATOM     13  C   LIG    1       28.954 -19.806   6.722  0.00  0.00    +0.002 A 
ATOM     14  C   LIG    1       28.171 -19.026   5.863  0.00  0.00    +0.025 A 
ATOM     15  N   LIG    1       23.957 -17.771   4.114  0.00  0.00    -0.238 NA
ATOM     16  C   LIG    1       26.960 -19.497   5.308  0.00  0.00    +0.060 A 
ENDROOT
BRANCH   2  17
ATOM     17  O   LIG    1       25.944 -16.838   2.948  0.00  0.00    -0.448 OA
BRANCH  17  18
ATOM     18  C   LIG    1       26.464 -15.569   2.519  0.00  0.00    +0.262 C 
BRANCH  18  19
ATOM     19  C   LIG    1       27.343 -14.955   3.604  0.00  0.00    +0.201 C 
BRANCH  19  20
ATOM     20  O   LIG    1       27.635 -13.589   3.306  0.00  0.00    -0.375 OA
BRANCH  20  21
ATOM     21  C   LIG    1       27.320 -12.760   4.432  0.00  0.00    +0.175 C 
BRANCH  21  22
ATOM     22  C   LIG    1       26.158 -13.371   5.228  0.00  0.00    +0.112 C 
BRANCH  22  23
ATOM     23  N   LIG    1       24.887 -12.626   5.119  0.00  0.00    -0.300 NA
ATOM     24  C   LIG    1       24.804 -11.736   3.950  0.00  0.00    +0.084 C 
ATOM     25  C   LIG    1       24.733 -12.484   2.620  0.00  0.00    +0.015 C 
ATOM     26  C   LIG    1       23.559 -13.457   2.607  0.00  0.00    +0.002 C 
ATOM     27  C   LIG    1       23.557 -14.349   3.848  0.00  0.00    +0.015 C 
ATOM     28  C   LIG    1       23.729 -13.535   5.136  0.00  0.00    +0.084 C 
ENDBRANCH  22  23
ENDBRANCH  21  22
ENDBRANCH  20  21
ENDBRANCH  19  20
ENDBRANCH  18  19
ENDBRANCH  17  18
ENDBRANCH   2  17
TORSDOF 7
ENDMDL
MODEL 3
REMARK VINA RESULT:       0.1      1.548      4.340
REMARK  Name = *****
REMARK                            x       y       z     vdW  Elec       q    Type
REMARK                         _______ _______ _______ _____ _____    ______ ____
ROOT
ATOM      1  O   LIG    1       27.313 -17.144   3.310  0.00  0.00    -0.226 OA
ATOM      2  C   LIG    1       26.149 -17.491   3.508  0.00  0.00    +0.413 C 
ATOM      3  N   LIG    1       25.762 -18.578   4.322  0.00  0.00    -0.188 N 
ATOM      4  C   LIG    1       24.377 -18.952   4.478  0.00  0.00    +0.148 A 
ATOM      5  C   LIG    1       23.992 -20.238   4.878  0.00  0.00    +0.053 A 
ATOM      6  C   LIG    1       22.629 -20.525   5.051  0.00  0.00    +0.020 A 
ATOM      7  C   LIG    1       21.674 -19.546   4.823  0.00  0.00    +0.021 A 
ATOM      8  C   LIG    1       22.120 -18.307   4.425  0.00  0.00    +0.113 A 
ATOM      9  S   LIG    1       25.127 -21.572   5.109  0.00  0.00    -0.084 S 
ATOM     10  C   LIG    1       26.564 -20.626   5.529  0.00  0.00    +0.035 A 
ATOM     11  C   LIG    1       27.546 -21.288   6.290  0.00  0.00    +0.017 A 
ATOM     12  C   LIG    1       28.718 -20.639   6.665  0.00  0.00    +0.001 A 
ATOM     13  C   LIG    1       28.911 -19.323   6.285  0.00  0.00    +0.002 A 
ATOM     14  C   LIG    1       27.940 -18.665   5.522  0.00  0.00    +0.025 A 
ATOM     15  N   LIG    1       23.426 -18.002   4.263  0.00  0.00    -0.238 NA
ATOM     16  C   LIG    1       26.747 -19.299   5.106  0.00  0.00    +0.060 A 
ENDROOT
BRANCH   2  17
ATOM     17  O   LIG    1       25.128 -16.829   2.882  0.00  0.00    -0.448 OA
BRANCH  17  18
ATOM     18  C   LIG    1       25.140 -15.395   2.979  0.00  0.00    +0.262 C 
BRANCH  18  19
ATOM     19  C   LIG    1       23.917 -14.900   3.745  0.00  0.00    +0.201 C 
BRANCH  19  20
ATOM     20  O   LIG    1       23.702 -13.507   3.507  0.00  0.00    -0.375 OA
BRANCH  20  21
ATOM     21  C   LIG    1       24.720 -12.734   4.155  0.00  0.00    +0.175 C 
BRANCH  21  22
ATOM     22  C   LIG    1       26.013 -12.764   3.327  0.00  0.00    +0.112 C 
BRANCH  22  23
ATOM     23  N   LIG    1       27.036 -13.704   3.829  0.00  0.00    -0.300 NA
ATOM     24  C   LIG    1       28.380 -13.495   3.265  0.00  0.00    +0.084 C 
ATOM     25  C   LIG    1       29.036 -12.194   3.723  0.00  0.00    +0.015 C 
ATOM     26  C   LIG    1       29.102 -12.127   5.245  0.00  0.00    +0.002 C 
ATOM     27  C   LIG    1       27.744 -12.420   5.879  0.00  0.00    +0.015 C 
ATOM     28  C   LIG    1       27.105 -13.688   5.300  0.00  0.00    +0.084 C 
ENDBRANCH  22  23
ENDBRANCH  21  22
ENDBRANCH  20  21
ENDBRANCH  19  20
ENDBRANCH  18  19
ENDBRANCH  17  18
ENDBRANCH   2  17
TORSDOF 7
ENDMDL
