MODEL 1
REMARK VINA RESULT:      -5.2      0.000      0.000
REMARK  Name = *****
REMARK                            x       y       z     vdW  Elec       q    Type
REMARK                         _______ _______ _______ _____ _____    ______ ____
ROOT
ATOM      1  C   LIG    1       24.987 -17.454   3.266  0.00  0.00    +0.144 C 
ENDROOT
BRANCH   1   2
ATOM      2  C   LIG    1       24.424 -18.712   3.996  0.00  0.00    -0.003 C 
ATOM      3  C   LIG    1       24.334 -19.893   2.983  0.00  0.00    +0.012 C 
ATOM      4  C   LIG    1       23.759 -21.158   3.641  0.00  0.00    -0.007 C 
ATOM      5  C   LIG    1       24.670 -21.571   4.806  0.00  0.00    +0.038 C 
ATOM      6  C   LIG    1       24.739 -20.438   5.843  0.00  0.00    +0.067 C 
ATOM      7  C   LIG    1       23.327 -20.145   6.368  0.00  0.00    +0.038 C 
ATOM      8  C   LIG    1       22.415 -19.722   5.207  0.00  0.00    -0.007 C 
ATOM      9  C   LIG    1       22.351 -20.856   4.174  0.00  0.00    +0.007 C 
ATOM     10  C   LIG    1       25.312 -19.167   5.185  0.00  0.00    +0.043 C 
ATOM     11  C   LIG    1       22.992 -18.459   4.543  0.00  0.00    +0.012 C 
BRANCH   6  12
ATOM     12  O   LIG    1       25.563 -20.835   6.930  0.00  0.00    -0.389 OA
ATOM     13  H   LIG    1       26.089 -21.600   6.643  0.00  0.00    +0.210 HD
ENDBRANCH   6  12
ENDBRANCH   1   2
BRANCH   1  16
ATOM     14  C   LIG    1       25.083 -13.800   4.631  0.00  0.00    +0.179 C 
ATOM     15  N   LIG    1       25.439 -15.066   3.954  0.00  0.00    -0.281 N 
ATOM     16  C   LIG    1       24.524 -16.096   3.867  0.00  0.00    +0.234 C 
ATOM     17  O   LIG    1       23.379 -15.967   4.314  0.00  0.00    -0.274 OA
ATOM     18  C   LIG    1       26.825 -15.062   3.571  0.00  0.00    +0.081 C 
ATOM     19  C   LIG    1       27.484 -13.851   4.169  0.00  0.00    +0.014 C 
ATOM     20  C   LIG    1       27.380 -13.989   2.675  0.00  0.00    +0.028 C 
ATOM     21  C   LIG    1       26.442 -13.164   5.016  0.00  0.00    +0.043 C 
BRANCH  14  23
ATOM     22  N   LIG    1       23.761 -12.165   3.036  0.00  0.00    -0.195 NA
ATOM     23  C   LIG    1       24.320 -12.896   3.745  0.00  0.00    +0.085 C 
ENDBRANCH  14  23
ENDBRANCH   1  16
BRANCH   1  24
ATOM     24  N   LIG    1       26.474 -17.449   3.243  0.00  0.00    -0.320 NA
ATOM     25  H   LIG    1       26.809 -18.257   3.769  0.00  0.00    +0.119 HD
ATOM     26  H   LIG    1       26.758 -17.656   2.279  0.00  0.00    +0.119 HD
ENDBRANCH   1  24
TORSDOF 5
ENDMDL
MODEL 2
REMARK VINA RESULT:      -3.8      1.105      1.989
REMARK  Name = *****
REMARK                            x       y       z     vdW  Elec       q    Type
REMARK                         _______ _______ _______ _____ _____    ______ ____
ROOT
ATOM      1  C   LIG    1       25.342 -17.516   3.155  0.00  0.00    +0.144 C 
ENDROOT
BRANCH   1   2
ATOM      2  C   LIG    1       24.708 -18.806   3.760  0.00  0.00    -0.003 C 
ATOM      3  C   LIG    1       25.371 -19.103   5.139  0.00  0.00    +0.012 C 
ATOM      4  C   LIG    1       24.803 -20.383   5.774  0.00  0.00    -0.007 C 
ATOM      5  C   LIG    1       23.291 -20.210   5.976  0.00  0.00    +0.038 C 
ATOM      6  C   LIG    1       22.607 -19.960   4.623  0.00  0.00    +0.067 C 
ATOM      7  C   LIG    1       22.872 -21.153   3.693  0.00  0.00    +0.038 C 
ATOM      8  C   LIG    1       24.383 -21.324   3.480  0.00  0.00    -0.007 C 
ATOM      9  C   LIG    1       25.061 -21.571   4.836  0.00  0.00    +0.007 C 
ATOM     10  C   LIG    1       23.177 -18.679   3.982  0.00  0.00    +0.043 C 
ATOM     11  C   LIG    1       24.955 -20.042   2.850  0.00  0.00    +0.012 C 
BRANCH   6  12
ATOM     12  O   LIG    1       21.206 -19.825   4.813  0.00  0.00    -0.389 OA
ATOM     13  H   LIG    1       20.764 -20.105   3.994  0.00  0.00    +0.210 HD
ENDBRANCH   6  12
ENDBRANCH   1   2
BRANCH   1  16
ATOM     14  C   LIG    1       25.192 -13.882   4.567  0.00  0.00    +0.179 C 
ATOM     15  N   LIG    1       25.647 -15.124   3.902  0.00  0.00    -0.281 N 
ATOM     16  C   LIG    1       24.782 -16.186   3.736  0.00  0.00    +0.234 C 
ATOM     17  O   LIG    1       23.603 -16.108   4.098  0.00  0.00    -0.274 OA
ATOM     18  C   LIG    1       27.056 -15.060   3.625  0.00  0.00    +0.081 C 
ATOM     19  C   LIG    1       27.620 -13.834   4.284  0.00  0.00    +0.014 C 
ATOM     20  C   LIG    1       27.634 -13.953   2.786  0.00  0.00    +0.028 C 
ATOM     21  C   LIG    1       26.492 -13.200   5.060  0.00  0.00    +0.043 C 
BRANCH  14  23
ATOM     22  N   LIG    1       23.902 -12.261   2.931  0.00  0.00    -0.195 NA
ATOM     23  C   LIG    1       24.462 -12.995   3.636  0.00  0.00    +0.085 C 
ENDBRANCH  14  23
ENDBRANCH   1  16
BRANCH   1  24
ATOM     24  N   LIG    1       26.818 -17.494   3.329  0.00  0.00    -0.320 NA
ATOM     25  H   LIG    1       27.208 -18.337   2.902  0.00  0.00    +0.119 HD
ATOM     26  H   LIG    1       27.179 -16.738   2.736  0.00  0.00    +0.119 HD
ENDBRANCH   1  24
TORSDOF 5
ENDMDL
MODEL 3
REMARK VINA RESULT:      -3.2      1.496      2.391
REMARK  Name = *****
REMARK                            x       y       z     vdW  Elec       q    Type
REMARK                         _______ _______ _______ _____ _____    ______ ____
ROOT
ATOM      1  C   LIG    1       23.527 -17.351   4.402  0.00  0.00    +0.144 C 
ENDROOT
BRANCH   1   2
ATOM      2  C   LIG    1       23.654 -18.878   4.693  0.00  0.00    -0.003 C 
ATOM      3  C   LIG    1       23.205 -19.678   3.432  0.00  0.00    +0.012 C 
ATOM      4  C   LIG    1       23.283 -21.195   3.669  0.00  0.00    -0.007 C 
ATOM      5  C   LIG    1       24.733 -21.572   4.007  0.00  0.00    +0.038 C 
ATOM      6  C   LIG    1       25.185 -20.829   5.274  0.00  0.00    +0.067 C 
ATOM      7  C   LIG    1       24.265 -21.213   6.442  0.00  0.00    +0.038 C 
ATOM      8  C   LIG    1       22.816 -20.829   6.113  0.00  0.00    -0.007 C 
ATOM      9  C   LIG    1       22.369 -21.572   4.845  0.00  0.00    +0.007 C 
ATOM     10  C   LIG    1       25.105 -19.308   5.041  0.00  0.00    +0.043 C 
ATOM     11  C   LIG    1       22.736 -19.311   5.869  0.00  0.00    +0.012 C 
BRANCH   6  12
ATOM     12  O   LIG    1       26.519 -21.200   5.596  0.00  0.00    -0.389 OA
ATOM     13  H   LIG    1       27.107 -20.484   5.304  0.00  0.00    +0.210 HD
ENDBRANCH   6  12
ENDBRANCH   1   2
BRANCH   1  16
ATOM     14  C   LIG    1       25.882 -14.727   2.732  0.00  0.00    +0.179 C 
ATOM     15  N   LIG    1       24.810 -15.357   3.534  0.00  0.00    -0.281 N 
ATOM     16  C   LIG    1       24.747 -16.729   3.663  0.00  0.00    +0.234 C 
ATOM     17  O   LIG    1       25.605 -17.456   3.150  0.00  0.00    -0.274 OA
ATOM     18  C   LIG    1       23.868 -14.368   3.983  0.00  0.00    +0.081 C 
ATOM     19  C   LIG    1       24.191 -13.061   3.316  0.00  0.00    +0.014 C 
ATOM     20  C   LIG    1       24.311 -13.191   4.809  0.00  0.00    +0.028 C 
ATOM     21  C   LIG    1       25.328 -13.329   2.362  0.00  0.00    +0.043 C 
BRANCH  14  23
ATOM     22  N   LIG    1       28.120 -14.453   4.107  0.00  0.00    -0.195 NA
ATOM     23  C   LIG    1       27.141 -14.599   3.498  0.00  0.00    +0.085 C 
ENDBRANCH  14  23
ENDBRANCH   1  16
BRANCH   1  24
ATOM     24  N   LIG    1       22.314 -17.042   3.600  0.00  0.00    -0.320 NA
ATOM     25  H   LIG    1       21.507 -17.480   4.049  0.00  0.00    +0.119 HD
ATOM     26  H   LIG    1       22.131 -16.039   3.707  0.00  0.00    +0.119 HD
ENDBRANCH   1  24
TORSDOF 5
ENDMDL
MODEL 4
REMARK VINA RESULT:      -2.7      2.292      6.530
REMARK  Name = *****
REMARK                            x       y       z     vdW  Elec       q    Type
REMARK                         _______ _______ _______ _____ _____    ______ ____
ROOT
ATOM      1  C   LIG    1       26.705 -17.155   4.260  0.00  0.00    +0.144 C 
ENDROOT
BRANCH   1   2
ATOM      2  C   LIG    1       26.536 -15.625   4.015  0.00  0.00    -0.003 C 
ATOM      3  C   LIG    1       25.059 -15.219   4.310  0.00  0.00    +0.012 C 
ATOM      4  C   LIG    1       24.825 -13.721   4.059  0.00  0.00    -0.007 C 
ATOM      5  C   LIG    1       25.755 -12.911   4.973  0.00  0.00    +0.038 C 
ATOM      6  C   LIG    1       27.221 -13.260   4.669  0.00  0.00    +0.067 C 
ATOM      7  C   LIG    1       27.525 -12.934   3.200  0.00  0.00    +0.038 C 
ATOM      8  C   LIG    1       26.604 -13.749   2.282  0.00  0.00    -0.007 C 
ATOM      9  C   LIG    1       25.141 -13.398   2.590  0.00  0.00    +0.007 C 
ATOM     10  C   LIG    1       27.459 -14.763   4.917  0.00  0.00    +0.043 C 
ATOM     11  C   LIG    1       26.833 -15.250   2.536  0.00  0.00    +0.012 C 
BRANCH   6  12
ATOM     12  O   LIG    1       28.078 -12.490   5.501  0.00  0.00    -0.389 OA
ATOM     13  H   LIG    1       28.561 -11.865   4.934  0.00  0.00    +0.210 HD
ENDBRANCH   6  12
ENDBRANCH   1   2
BRANCH   1  16
ATOM     14  C   LIG    1       24.294 -20.176   3.727  0.00  0.00    +0.179 C 
ATOM     15  N   LIG    1       25.299 -19.253   4.298  0.00  0.00    -0.281 N 
ATOM     16  C   LIG    1       25.546 -18.032   3.704  0.00  0.00    +0.234 C 
ATOM     17  O   LIG    1       24.906 -17.668   2.712  0.00  0.00    -0.274 OA
ATOM     18  C   LIG    1       25.992 -19.876   5.393  0.00  0.00    +0.081 C 
ATOM     19  C   LIG    1       25.592 -21.322   5.453  0.00  0.00    +0.014 C 
ATOM     20  C   LIG    1       25.244 -20.401   6.588  0.00  0.00    +0.028 C 
ATOM     21  C   LIG    1       24.686 -21.571   4.273  0.00  0.00    +0.043 C 
BRANCH  14  23
ATOM     22  N   LIG    1       21.859 -19.509   4.497  0.00  0.00    -0.195 NA
ATOM     23  C   LIG    1       22.920 -19.823   4.144  0.00  0.00    +0.085 C 
ENDBRANCH  14  23
ENDBRANCH   1  16
BRANCH   1  24
ATOM     24  N   LIG    1       27.974 -17.670   3.680  0.00  0.00    -0.320 NA
ATOM     25  H   LIG    1       27.764 -18.121   2.788  0.00  0.00    +0.119 HD
ATOM     26  H   LIG    1       28.532 -16.853   3.410  0.00  0.00    +0.119 HD
ENDBRANCH   1  24
TORSDOF 5
ENDMDL
MODEL 5
REMARK VINA RESULT:      -2.4      2.023      6.774
REMARK  Name = *****
REMARK                            x       y       z     vdW  Elec       q    Type
REMARK                         _______ _______ _______ _____ _____    ______ ____
ROOT
ATOM      1  C   LIG    1       23.423 -16.079   3.764  0.00  0.00    +0.144 C 
ENDROOT
BRANCH   1   2
ATOM      2  C   LIG    1       24.246 -14.756   3.759  0.00  0.00    -0.003 C 
ATOM      3  C   LIG    1       23.990 -13.989   5.092  0.00  0.00    +0.012 C 
ATOM      4  C   LIG    1       24.759 -12.658   5.133  0.00  0.00    -0.007 C 
ATOM      5  C   LIG    1       26.261 -12.945   5.006  0.00  0.00    +0.038 C 
ATOM      6  C   LIG    1       26.545 -13.662   3.676  0.00  0.00    +0.067 C 
ATOM      7  C   LIG    1       26.088 -12.771   2.512  0.00  0.00    +0.038 C 
ATOM      8  C   LIG    1       24.583 -12.489   2.631  0.00  0.00    -0.007 C 
ATOM      9  C   LIG    1       24.305 -11.775   3.961  0.00  0.00    +0.007 C 
ATOM     10  C   LIG    1       25.775 -14.996   3.630  0.00  0.00    +0.043 C 
ATOM     11  C   LIG    1       23.813 -13.820   2.596  0.00  0.00    +0.012 C 
BRANCH   6  12
ATOM     12  O   LIG    1       27.940 -13.904   3.552  0.00  0.00    -0.389 OA
ATOM     13  H   LIG    1       28.358 -13.087   3.231  0.00  0.00    +0.210 HD
ENDBRANCH   6  12
ENDBRANCH   1   2
BRANCH   1  16
ATOM     14  C   LIG    1       24.581 -19.731   4.502  0.00  0.00    +0.179 C 
ATOM     15  N   LIG    1       23.757 -18.511   4.357  0.00  0.00    -0.281 N 
ATOM     16  C   LIG    1       24.281 -17.376   3.773  0.00  0.00    +0.234 C 
ATOM     17  O   LIG    1       25.432 -17.368   3.322  0.00  0.00    -0.274 OA
ATOM     18  C   LIG    1       22.485 -18.682   5.005  0.00  0.00    +0.081 C 
ATOM     19  C   LIG    1       22.509 -19.971   5.776  0.00  0.00    +0.014 C 
ATOM     20  C   LIG    1       21.562 -19.806   4.620  0.00  0.00    +0.028 C 
ATOM     21  C   LIG    1       23.902 -20.533   5.639  0.00  0.00    +0.043 C 
BRANCH  14  23
ATOM     22  N   LIG    1       24.595 -21.150   2.276  0.00  0.00    -0.195 NA
ATOM     23  C   LIG    1       24.615 -20.525   3.255  0.00  0.00    +0.085 C 
ENDBRANCH  14  23
ENDBRANCH   1  16
BRANCH   1  24
ATOM     24  N   LIG    1       22.497 -16.148   4.926  0.00  0.00    -0.320 NA
ATOM     25  H   LIG    1       22.289 -15.196   5.232  0.00  0.00    +0.119 HD
ATOM     26  H   LIG    1       21.596 -16.487   4.572  0.00  0.00    +0.119 HD
ENDBRANCH   1  24
TORSDOF 5
ENDMDL
MODEL 6
REMARK VINA RESULT:      -2.3      2.294      6.556
REMARK  Name = *****
REMARK                            x       y       z     vdW  Elec       q    Type
REMARK                         _______ _______ _______ _____ _____    ______ ____
ROOT
ATOM      1  C   LIG    1       26.739 -17.091   4.288  0.00  0.00    +0.144 C 
ENDROOT
BRANCH   1   2
ATOM      2  C   LIG    1       26.529 -15.567   4.035  0.00  0.00    -0.003 C 
ATOM      3  C   LIG    1       27.164 -15.184   2.663  0.00  0.00    +0.012 C 
ATOM      4  C   LIG    1       27.012 -13.682   2.371  0.00  0.00    -0.007 C 
ATOM      5  C   LIG    1       25.518 -13.329   2.343  0.00  0.00    +0.038 C 
ATOM      6  C   LIG    1       24.878 -13.656   3.702  0.00  0.00    +0.067 C 
ATOM      7  C   LIG    1       25.581 -12.846   4.801  0.00  0.00    +0.038 C 
ATOM      8  C   LIG    1       27.074 -13.204   4.838  0.00  0.00    -0.007 C 
ATOM      9  C   LIG    1       27.708 -12.877   3.478  0.00  0.00    +0.007 C 
ATOM     10  C   LIG    1       25.032 -15.160   4.000  0.00  0.00    +0.043 C 
ATOM     11  C   LIG    1       27.229 -14.708   5.125  0.00  0.00    +0.012 C 
BRANCH   6  12
ATOM     12  O   LIG    1       23.501 -13.304   3.679  0.00  0.00    -0.389 OA
ATOM     13  H   LIG    1       22.982 -14.126   3.686  0.00  0.00    +0.210 HD
ENDBRANCH   6  12
ENDBRANCH   1   2
BRANCH   1  16
ATOM     14  C   LIG    1       24.413 -20.182   3.779  0.00  0.00    +0.179 C 
ATOM     15  N   LIG    1       25.401 -19.232   4.337  0.00  0.00    -0.281 N 
ATOM     16  C   LIG    1       25.597 -17.999   3.749  0.00  0.00    +0.234 C 
ATOM     17  O   LIG    1       24.925 -17.647   2.773  0.00  0.00    -0.274 OA
ATOM     18  C   LIG    1       26.136 -19.841   5.412  0.00  0.00    +0.081 C 
ATOM     19  C   LIG    1       25.783 -21.300   5.468  0.00  0.00    +0.014 C 
ATOM     20  C   LIG    1       25.430 -20.399   6.618  0.00  0.00    +0.028 C 
ATOM     21  C   LIG    1       24.859 -21.568   4.305  0.00  0.00    +0.043 C 
BRANCH  14  23
ATOM     22  N   LIG    1       21.975 -19.601   4.609  0.00  0.00    -0.195 NA
ATOM     23  C   LIG    1       23.038 -19.875   4.228  0.00  0.00    +0.085 C 
ENDBRANCH  14  23
ENDBRANCH   1  16
BRANCH   1  24
ATOM     24  N   LIG    1       28.014 -17.577   3.699  0.00  0.00    -0.320 NA
ATOM     25  H   LIG    1       28.588 -17.971   4.446  0.00  0.00    +0.119 HD
ATOM     26  H   LIG    1       27.785 -18.392   3.119  0.00  0.00    +0.119 HD
ENDBRANCH   1  24
TORSDOF 5
ENDMDL
MODEL 7
REMARK VINA RESULT:      -2.3      2.047      6.912
REMARK  Name = *****
REMARK                            x       y       z     vdW  Elec       q    Type
REMARK                         _______ _______ _______ _____ _____    ______ ____
ROOT
ATOM      1  C   LIG    1       23.327 -16.129   3.845  0.00  0.00    +0.144 C 
ENDROOT
BRANCH   1   2
ATOM      2  C   LIG    1       24.118 -14.786   3.844  0.00  0.00    -0.003 C 
ATOM      3  C   LIG    1       25.620 -15.077   3.540  0.00  0.00    +0.012 C 
ATOM      4  C   LIG    1       26.458 -13.789   3.552  0.00  0.00    -0.007 C 
ATOM      5  C   LIG    1       25.912 -12.829   2.485  0.00  0.00    +0.038 C 
ATOM      6  C   LIG    1       24.444 -12.490   2.789  0.00  0.00    +0.067 C 
ATOM      7  C   LIG    1       24.351 -11.832   4.173  0.00  0.00    +0.038 C 
ATOM      8  C   LIG    1       24.887 -12.792   5.244  0.00  0.00    -0.007 C 
ATOM      9  C   LIG    1       26.353 -13.129   4.936  0.00  0.00    +0.007 C 
ATOM     10  C   LIG    1       23.601 -13.780   2.780  0.00  0.00    +0.043 C 
ATOM     11  C   LIG    1       24.053 -14.086   5.230  0.00  0.00    +0.012 C 
BRANCH   6  12
ATOM     12  O   LIG    1       23.951 -11.583   1.812  0.00  0.00    -0.389 OA
ATOM     13  H   LIG    1       24.431 -11.747   0.983  0.00  0.00    +0.210 HD
ENDBRANCH   6  12
ENDBRANCH   1   2
BRANCH   1  16
ATOM     14  C   LIG    1       24.576 -19.762   4.525  0.00  0.00    +0.179 C 
ATOM     15  N   LIG    1       23.721 -18.560   4.401  0.00  0.00    -0.281 N 
ATOM     16  C   LIG    1       24.216 -17.405   3.831  0.00  0.00    +0.234 C 
ATOM     17  O   LIG    1       25.364 -17.363   3.376  0.00  0.00    -0.274 OA
ATOM     18  C   LIG    1       22.457 -18.771   5.052  0.00  0.00    +0.081 C 
ATOM     19  C   LIG    1       22.515 -20.069   5.804  0.00  0.00    +0.014 C 
ATOM     20  C   LIG    1       21.559 -19.911   4.654  0.00  0.00    +0.028 C 
ATOM     21  C   LIG    1       23.920 -20.596   5.653  0.00  0.00    +0.043 C 
BRANCH  14  23
ATOM     22  N   LIG    1       24.615 -21.155   2.283  0.00  0.00    -0.195 NA
ATOM     23  C   LIG    1       24.623 -20.537   3.267  0.00  0.00    +0.085 C 
ENDBRANCH  14  23
ENDBRANCH   1  16
BRANCH   1  24
ATOM     24  N   LIG    1       22.416 -16.231   5.016  0.00  0.00    -0.320 NA
ATOM     25  H   LIG    1       21.706 -16.938   4.815  0.00  0.00    +0.119 HD
ATOM     26  H   LIG    1       22.957 -16.646   5.781  0.00  0.00    +0.119 HD
ENDBRANCH   1  24
TORSDOF 5
ENDMDL
