MODEL 1
REMARK VINA RESULT:      -5.5      0.000      0.000
REMARK  Name = *****
REMARK                            x       y       z     vdW  Elec       q    Type
REMARK                         _______ _______ _______ _____ _____    ______ ____
ROOT
ATOM      1  C   LIG    1       22.690 -19.041   4.825  0.00  0.00    +0.086 C 
ENDROOT
BRANCH   1   2
ATOM      2  N   LIG    1       22.514 -20.467   5.180  0.00  0.00    -0.299 NA
ATOM      3  C   LIG    1       23.371 -21.373   4.386  0.00  0.00    +0.103 C 
ATOM      4  C   LIG    1       24.883 -21.126   4.536  0.00  0.00    +0.120 C 
ATOM      5  N   LIG    1       25.343 -21.063   5.945  0.00  0.00    -0.327 N 
ATOM      6  C   LIG    1       24.404 -20.427   6.909  0.00  0.00    +0.120 C 
ATOM      7  C   LIG    1       22.910 -20.689   6.592  0.00  0.00    +0.103 C 
BRANCH   5   8
ATOM      8  C   LIG    1       26.711 -20.747   6.132  0.00  0.00    +0.031 A 
ATOM      9  C   LIG    1       27.276 -19.568   5.610  0.00  0.00    +0.043 A 
ATOM     10  C   LIG    1       28.629 -19.262   5.785  0.00  0.00    +0.043 A 
ATOM     11 CL   LIG    1       29.270 -17.817   5.099  0.00  0.00    -0.084 Cl
ATOM     12  C   LIG    1       29.465 -20.109   6.498  0.00  0.00    +0.020 A 
ATOM     13  C   LIG    1       28.938 -21.268   7.049  0.00  0.00    +0.003 A 
ATOM     14  C   LIG    1       27.581 -21.570   6.877  0.00  0.00    +0.023 A 
ENDBRANCH   5   8
ENDBRANCH   1   2
BRANCH   1  15
ATOM     15  C   LIG    1       23.222 -18.807   3.406  0.00  0.00    +0.039 C 
BRANCH  15  16
ATOM     16  C   LIG    1       24.675 -18.323   3.397  0.00  0.00    +0.150 C 
BRANCH  16  19
ATOM     17  O   LIG    1       27.105 -16.535   3.201  0.00  0.00    -0.244 OA
ATOM     18  C   LIG    1       25.992 -16.136   3.495  0.00  0.00    +0.351 C 
ATOM     19  N   LIG    1       24.814 -16.898   3.609  0.00  0.00    -0.212 N 
ATOM     20  N   LIG    1       23.747 -16.095   3.974  0.00  0.00    -0.149 NA
ATOM     21  C   LIG    1       24.271 -14.911   4.063  0.00  0.00    +0.162 C 
ATOM     22  C   LIG    1       23.590 -13.650   4.422  0.00  0.00    +0.049 C 
ATOM     23  C   LIG    1       24.326 -12.525   4.441  0.00  0.00    +0.005 C 
ATOM     24  C   LIG    1       25.743 -12.542   4.123  0.00  0.00    +0.018 C 
ATOM     25  C   LIG    1       26.343 -13.702   3.809  0.00  0.00    +0.098 C 
ATOM     26  N   LIG    1       25.600 -14.848   3.790  0.00  0.00    -0.251 N 
ENDBRANCH  16  19
ENDBRANCH  15  16
ENDBRANCH   1  15
TORSDOF 5
ENDMDL
