MODEL 1
REMARK VINA RESULT:      -8.6      0.000      0.000
REMARK  Name = *****
REMARK                            x       y       z     vdW  Elec       q    Type
REMARK                         _______ _______ _______ _____ _____    ______ ____
ROOT
ATOM      1  C   LIG    1       26.579 -21.023   6.986  0.00  0.00    -0.017 C 
ATOM      2  C   LIG    1       25.615 -21.582   6.218  0.00  0.00    -0.013 C 
ATOM      3  C   LIG    1       25.251 -23.016   6.319  0.00  0.00    -0.004 A 
ATOM      4  C   LIG    1       23.957 -23.484   6.631  0.00  0.00    +0.016 A 
ATOM      5  C   LIG    1       23.749 -24.879   6.688  0.00  0.00    +0.015 A 
ATOM      6  C   LIG    1       24.774 -25.788   6.419  0.00  0.00    +0.001 A 
ATOM      7  C   LIG    1       26.032 -25.322   6.073  0.00  0.00    +0.001 A 
ATOM      8  S   LIG    1       22.455 -22.535   6.935  0.00  0.00    -0.120 S 
ATOM      9  C   LIG    1       22.987 -20.801   7.038  0.00  0.00    +0.110 C 
ATOM     10  C   LIG    1       23.563 -20.272   5.751  0.00  0.00    -0.029 A 
ATOM     11  C   LIG    1       22.831 -19.403   4.929  0.00  0.00    +0.005 A 
ATOM     12  C   LIG    1       23.388 -18.911   3.748  0.00  0.00    +0.000 A 
ATOM     13  C   LIG    1       24.676 -19.286   3.369  0.00  0.00    +0.001 A 
ATOM     14  C   LIG    1       25.410 -20.158   4.171  0.00  0.00    +0.009 A 
ATOM     15  C   LIG    1       26.265 -23.951   6.015  0.00  0.00    +0.009 A 
ATOM     16  C   LIG    1       24.859 -20.651   5.360  0.00  0.00    -0.014 A 
ENDROOT
BRANCH   1  17
ATOM     17  C   LIG    1       27.402 -21.673   8.070  0.00  0.00    +0.043 C 
BRANCH  17  18
ATOM     18  C   LIG    1       28.908 -21.619   7.757  0.00  0.00    +0.088 C 
BRANCH  18  20
ATOM     19  C   LIG    1       30.994 -21.065   8.823  0.00  0.00    +0.104 C 
ATOM     20  N   LIG    1       29.638 -20.591   8.526  0.00  0.00    -0.308 NA
ATOM     21  C   LIG    1       29.710 -19.313   7.814  0.00  0.00    +0.104 C 
ENDBRANCH  18  20
ENDBRANCH  17  18
ENDBRANCH   1  17
TORSDOF 3
ENDMDL
MODEL 2
REMARK VINA RESULT:      -7.2      2.507      4.834
REMARK  Name = *****
REMARK                            x       y       z     vdW  Elec       q    Type
REMARK                         _______ _______ _______ _____ _____    ______ ____
ROOT
ATOM      1  C   LIG    1       24.361 -22.873   5.030  0.00  0.00    -0.017 C 
ATOM      2  C   LIG    1       24.661 -21.661   5.551  0.00  0.00    -0.013 C 
ATOM      3  C   LIG    1       25.786 -21.460   6.496  0.00  0.00    -0.004 A 
ATOM      4  C   LIG    1       26.865 -20.581   6.267  0.00  0.00    +0.016 A 
ATOM      5  C   LIG    1       27.867 -20.482   7.256  0.00  0.00    +0.015 A 
ATOM      6  C   LIG    1       27.797 -21.204   8.450  0.00  0.00    +0.001 A 
ATOM      7  C   LIG    1       26.713 -22.035   8.687  0.00  0.00    +0.001 A 
ATOM      8  S   LIG    1       27.150 -19.484   4.865  0.00  0.00    -0.120 S 
ATOM      9  C   LIG    1       25.891 -19.929   3.634  0.00  0.00    +0.110 C 
ATOM     10  C   LIG    1       24.482 -19.665   4.093  0.00  0.00    -0.029 A 
ATOM     11  C   LIG    1       23.751 -18.572   3.606  0.00  0.00    +0.005 A 
ATOM     12  C   LIG    1       22.441 -18.352   4.031  0.00  0.00    +0.000 A 
ATOM     13  C   LIG    1       21.847 -19.213   4.953  0.00  0.00    +0.001 A 
ATOM     14  C   LIG    1       22.567 -20.297   5.454  0.00  0.00    +0.009 A 
ATOM     15  C   LIG    1       25.715 -22.154   7.724  0.00  0.00    +0.009 A 
ATOM     16  C   LIG    1       23.880 -20.526   5.027  0.00  0.00    -0.014 A 
ENDROOT
BRANCH   1  17
ATOM     17  C   LIG    1       25.080 -24.182   5.237  0.00  0.00    +0.043 C 
BRANCH  17  18
ATOM     18  C   LIG    1       24.229 -25.183   6.040  0.00  0.00    +0.088 C 
BRANCH  18  20
ATOM     19  C   LIG    1       24.372 -27.573   5.789  0.00  0.00    +0.104 C 
ATOM     20  N   LIG    1       24.963 -26.400   6.441  0.00  0.00    -0.308 NA
ATOM     21  C   LIG    1       26.388 -26.322   6.111  0.00  0.00    +0.104 C 
ENDBRANCH  18  20
ENDBRANCH  17  18
ENDBRANCH   1  17
TORSDOF 3
ENDMDL
MODEL 3
REMARK VINA RESULT:      -6.5      2.300      5.570
REMARK  Name = *****
REMARK                            x       y       z     vdW  Elec       q    Type
REMARK                         _______ _______ _______ _____ _____    ______ ____
ROOT
ATOM      1  C   LIG    1       24.843 -20.953   4.199  0.00  0.00    -0.017 C 
ATOM      2  C   LIG    1       25.376 -21.596   5.264  0.00  0.00    -0.013 C 
ATOM      3  C   LIG    1       26.356 -20.951   6.171  0.00  0.00    -0.004 A 
ATOM      4  C   LIG    1       26.161 -20.789   7.559  0.00  0.00    +0.016 A 
ATOM      5  C   LIG    1       27.181 -20.161   8.306  0.00  0.00    +0.015 A 
ATOM      6  C   LIG    1       28.370 -19.731   7.713  0.00  0.00    +0.001 A 
ATOM      7  C   LIG    1       28.572 -19.930   6.357  0.00  0.00    +0.001 A 
ATOM      8  S   LIG    1       24.771 -21.323   8.575  0.00  0.00    -0.120 S 
ATOM      9  C   LIG    1       23.501 -21.888   7.406  0.00  0.00    +0.110 C 
ATOM     10  C   LIG    1       23.918 -23.090   6.600  0.00  0.00    -0.029 A 
ATOM     11  C   LIG    1       23.411 -24.366   6.883  0.00  0.00    +0.005 A 
ATOM     12  C   LIG    1       23.798 -25.465   6.116  0.00  0.00    +0.000 A 
ATOM     13  C   LIG    1       24.699 -25.307   5.064  0.00  0.00    +0.001 A 
ATOM     14  C   LIG    1       25.218 -24.045   4.779  0.00  0.00    +0.009 A 
ATOM     15  C   LIG    1       27.579 -20.542   5.597  0.00  0.00    +0.009 A 
ATOM     16  C   LIG    1       24.831 -22.937   5.543  0.00  0.00    -0.014 A 
ENDROOT
BRANCH   1  17
ATOM     17  C   LIG    1       25.069 -19.528   3.760  0.00  0.00    +0.043 C 
BRANCH  17  18
ATOM     18  C   LIG    1       23.742 -18.798   3.480  0.00  0.00    +0.088 C 
BRANCH  18  20
ATOM     19  C   LIG    1       22.108 -17.464   4.640  0.00  0.00    +0.104 C 
ATOM     20  N   LIG    1       22.841 -18.734   4.648  0.00  0.00    -0.308 NA
ATOM     21  C   LIG    1       21.891 -19.849   4.678  0.00  0.00    +0.104 C 
ENDBRANCH  18  20
ENDBRANCH  17  18
ENDBRANCH   1  17
TORSDOF 3
ENDMDL
MODEL 4
REMARK VINA RESULT:      -6.3      2.658      5.997
REMARK  Name = *****
REMARK                            x       y       z     vdW  Elec       q    Type
REMARK                         _______ _______ _______ _____ _____    ______ ____
ROOT
ATOM      1  C   LIG    1       23.618 -21.485   5.849  0.00  0.00    -0.017 C 
ATOM      2  C   LIG    1       24.906 -21.896   5.787  0.00  0.00    -0.013 C 
ATOM      3  C   LIG    1       26.042 -20.944   5.749  0.00  0.00    -0.004 A 
ATOM      4  C   LIG    1       27.084 -20.917   6.701  0.00  0.00    +0.016 A 
ATOM      5  C   LIG    1       28.109 -19.960   6.540  0.00  0.00    +0.015 A 
ATOM      6  C   LIG    1       28.127 -19.075   5.460  0.00  0.00    +0.001 A 
ATOM      7  C   LIG    1       27.123 -19.135   4.506  0.00  0.00    +0.001 A 
ATOM      8  S   LIG    1       27.341 -21.991   8.126  0.00  0.00    -0.120 S 
ATOM      9  C   LIG    1       25.821 -22.976   8.274  0.00  0.00    +0.110 C 
ATOM     10  C   LIG    1       25.580 -23.887   7.100  0.00  0.00    -0.029 A 
ATOM     11  C   LIG    1       25.804 -25.269   7.194  0.00  0.00    +0.005 A 
ATOM     12  C   LIG    1       25.559 -26.099   6.100  0.00  0.00    +0.000 A 
ATOM     13  C   LIG    1       25.097 -25.564   4.899  0.00  0.00    +0.001 A 
ATOM     14  C   LIG    1       24.880 -24.190   4.790  0.00  0.00    +0.009 A 
ATOM     15  C   LIG    1       26.098 -20.066   4.645  0.00  0.00    +0.009 A 
ATOM     16  C   LIG    1       25.119 -23.352   5.886  0.00  0.00    -0.014 A 
ENDROOT
BRANCH   1  17
ATOM     17  C   LIG    1       23.093 -20.074   5.939  0.00  0.00    +0.043 C 
BRANCH  17  18
ATOM     18  C   LIG    1       22.001 -19.801   4.889  0.00  0.00    +0.088 C 
BRANCH  18  20
ATOM     19  C   LIG    1       22.135 -17.402   4.743  0.00  0.00    +0.104 C 
ATOM     20  N   LIG    1       22.300 -18.658   4.004  0.00  0.00    -0.308 NA
ATOM     21  C   LIG    1       23.654 -18.725   3.449  0.00  0.00    +0.104 C 
ENDBRANCH  18  20
ENDBRANCH  17  18
ENDBRANCH   1  17
TORSDOF 3
ENDMDL
MODEL 5
REMARK VINA RESULT:      -5.7      6.256      9.953
REMARK  Name = *****
REMARK                            x       y       z     vdW  Elec       q    Type
REMARK                         _______ _______ _______ _____ _____    ______ ____
ROOT
ATOM      1  C   LIG    1       24.419 -29.070   7.323  0.00  0.00    -0.017 C 
ATOM      2  C   LIG    1       24.455 -30.301   7.885  0.00  0.00    -0.013 C 
ATOM      3  C   LIG    1       24.711 -31.528   7.092  0.00  0.00    -0.004 A 
ATOM      4  C   LIG    1       25.779 -32.418   7.334  0.00  0.00    +0.016 A 
ATOM      5  C   LIG    1       25.901 -33.554   6.505  0.00  0.00    +0.015 A 
ATOM      6  C   LIG    1       24.985 -33.823   5.486  0.00  0.00    +0.001 A 
ATOM      7  C   LIG    1       23.915 -32.967   5.280  0.00  0.00    +0.001 A 
ATOM      8  S   LIG    1       27.038 -32.349   8.623  0.00  0.00    -0.120 S 
ATOM      9  C   LIG    1       26.837 -30.726   9.414  0.00  0.00    +0.110 C 
ATOM     10  C   LIG    1       25.513 -30.558  10.112  0.00  0.00    -0.029 A 
ATOM     11  C   LIG    1       25.415 -30.614  11.510  0.00  0.00    +0.005 A 
ATOM     12  C   LIG    1       24.182 -30.441  12.139  0.00  0.00    +0.000 A 
ATOM     13  C   LIG    1       23.032 -30.217  11.383  0.00  0.00    +0.001 A 
ATOM     14  C   LIG    1       23.114 -30.170   9.992  0.00  0.00    +0.009 A 
ATOM     15  C   LIG    1       23.776 -31.837   6.081  0.00  0.00    +0.009 A 
ATOM     16  C   LIG    1       24.349 -30.338   9.355  0.00  0.00    -0.014 A 
ENDROOT
BRANCH   1  17
ATOM     17  C   LIG    1       24.664 -28.695   5.883  0.00  0.00    +0.043 C 
BRANCH  17  18
ATOM     18  C   LIG    1       24.328 -27.217   5.612  0.00  0.00    +0.088 C 
BRANCH  18  20
ATOM     19  C   LIG    1       25.079 -25.029   4.944  0.00  0.00    +0.104 C 
ATOM     20  N   LIG    1       25.462 -26.439   5.074  0.00  0.00    -0.308 NA
ATOM     21  C   LIG    1       26.657 -26.547   5.914  0.00  0.00    +0.104 C 
ENDBRANCH  18  20
ENDBRANCH  17  18
ENDBRANCH   1  17
TORSDOF 3
ENDMDL
MODEL 6
REMARK VINA RESULT:      -5.7      6.521      9.872
REMARK  Name = *****
REMARK                            x       y       z     vdW  Elec       q    Type
REMARK                         _______ _______ _______ _____ _____    ______ ____
ROOT
ATOM      1  C   LIG    1       24.139 -29.747   9.024  0.00  0.00    -0.017 C 
ATOM      2  C   LIG    1       25.129 -29.839   8.106  0.00  0.00    -0.013 C 
ATOM      3  C   LIG    1       25.911 -31.083   7.903  0.00  0.00    -0.004 A 
ATOM      4  C   LIG    1       25.992 -31.776   6.677  0.00  0.00    +0.016 A 
ATOM      5  C   LIG    1       26.780 -32.946   6.624  0.00  0.00    +0.015 A 
ATOM      6  C   LIG    1       27.490 -33.406   7.734  0.00  0.00    +0.001 A 
ATOM      7  C   LIG    1       27.440 -32.698   8.924  0.00  0.00    +0.001 A 
ATOM      8  S   LIG    1       25.249 -31.355   5.090  0.00  0.00    -0.120 S 
ATOM      9  C   LIG    1       24.119 -29.974   5.431  0.00  0.00    +0.110 C 
ATOM     10  C   LIG    1       24.818 -28.730   5.911  0.00  0.00    -0.029 A 
ATOM     11  C   LIG    1       24.997 -27.625   5.066  0.00  0.00    +0.005 A 
ATOM     12  C   LIG    1       25.633 -26.475   5.533  0.00  0.00    +0.000 A 
ATOM     13  C   LIG    1       26.105 -26.415   6.843  0.00  0.00    +0.001 A 
ATOM     14  C   LIG    1       25.943 -27.511   7.690  0.00  0.00    +0.009 A 
ATOM     15  C   LIG    1       26.665 -31.544   9.004  0.00  0.00    +0.009 A 
ATOM     16  C   LIG    1       25.301 -28.666   7.229  0.00  0.00    -0.014 A 
ENDROOT
BRANCH   1  17
ATOM     17  C   LIG    1       23.615 -30.823   9.942  0.00  0.00    +0.043 C 
BRANCH  17  18
ATOM     18  C   LIG    1       22.245 -30.451  10.537  0.00  0.00    +0.088 C 
BRANCH  18  20
ATOM     19  C   LIG    1       21.403 -32.659  10.079  0.00  0.00    +0.104 C 
ATOM     20  N   LIG    1       21.121 -31.224   9.971  0.00  0.00    -0.308 NA
ATOM     21  C   LIG    1       19.850 -30.923  10.635  0.00  0.00    +0.104 C 
ENDBRANCH  18  20
ENDBRANCH  17  18
ENDBRANCH   1  17
TORSDOF 3
ENDMDL
MODEL 7
REMARK VINA RESULT:      -5.7      9.071     10.137
REMARK  Name = *****
REMARK                            x       y       z     vdW  Elec       q    Type
REMARK                         _______ _______ _______ _____ _____    ______ ____
ROOT
ATOM      1  C   LIG    1       25.129 -29.660  13.621  0.00  0.00    -0.017 C 
ATOM      2  C   LIG    1       24.502 -29.175  12.525  0.00  0.00    -0.013 C 
ATOM      3  C   LIG    1       24.922 -29.529  11.148  0.00  0.00    -0.004 A 
ATOM      4  C   LIG    1       24.081 -30.146  10.198  0.00  0.00    +0.016 A 
ATOM      5  C   LIG    1       24.610 -30.422   8.918  0.00  0.00    +0.015 A 
ATOM      6  C   LIG    1       25.918 -30.077   8.573  0.00  0.00    +0.001 A 
ATOM      7  C   LIG    1       26.726 -29.434   9.497  0.00  0.00    +0.001 A 
ATOM      8  S   LIG    1       22.348 -30.614  10.358  0.00  0.00    -0.120 S 
ATOM      9  C   LIG    1       21.942 -30.386  12.114  0.00  0.00    +0.110 C 
ATOM     10  C   LIG    1       22.034 -28.954  12.571  0.00  0.00    -0.029 A 
ATOM     11  C   LIG    1       20.881 -28.187  12.794  0.00  0.00    +0.005 A 
ATOM     12  C   LIG    1       20.986 -26.866  13.232  0.00  0.00    +0.000 A 
ATOM     13  C   LIG    1       22.239 -26.293  13.445  0.00  0.00    +0.001 A 
ATOM     14  C   LIG    1       23.393 -27.042  13.216  0.00  0.00    +0.009 A 
ATOM     15  C   LIG    1       26.229 -29.156  10.767  0.00  0.00    +0.009 A 
ATOM     16  C   LIG    1       23.294 -28.370  12.781  0.00  0.00    -0.014 A 
ENDROOT
BRANCH   1  17
ATOM     17  C   LIG    1       26.276 -30.637  13.684  0.00  0.00    +0.043 C 
BRANCH  17  18
ATOM     18  C   LIG    1       27.298 -30.252  14.769  0.00  0.00    +0.088 C 
BRANCH  18  20
ATOM     19  C   LIG    1       29.056 -29.568  13.273  0.00  0.00    +0.104 C 
ATOM     20  N   LIG    1       28.702 -30.476  14.370  0.00  0.00    -0.308 NA
ATOM     21  C   LIG    1       29.633 -30.285  15.484  0.00  0.00    +0.104 C 
ENDBRANCH  18  20
ENDBRANCH  17  18
ENDBRANCH   1  17
TORSDOF 3
ENDMDL
