MODEL 1
REMARK VINA RESULT:      -6.5      0.000      0.000
REMARK  Name = *****
REMARK                            x       y       z     vdW  Elec       q    Type
REMARK                         _______ _______ _______ _____ _____    ______ ____
ROOT
ATOM      1  C   LIG    1       28.950 -19.651   7.283  0.00  0.00    +0.036 C 
ATOM      2  C   LIG    1       28.835 -19.200   5.812  0.00  0.00    +0.018 C 
ENDROOT
BRANCH   1   3
ATOM      3  C   LIG    1       27.520 -20.050   7.819  0.00  0.00    +0.013 C 
BRANCH   3   5
ATOM      4  C   LIG    1       25.128 -20.783   7.158  0.00  0.00    +0.004 C 
ATOM      5  C   LIG    1       26.615 -20.802   6.809  0.00  0.00    -0.003 C 
ENDBRANCH   3   5
ENDBRANCH   1   3
BRANCH   1   6
ATOM      6  C   LIG    1       29.911 -20.864   7.385  0.00  0.00    +0.243 C 
BRANCH   6   7
ATOM      7  O   LIG    1       29.710 -21.600   8.608  0.00  0.00    -0.450 OA
BRANCH   7   8
ATOM      8  C   LIG    1       30.827 -21.958   9.285  0.00  0.00    +0.398 C 
ATOM      9  O   LIG    1       30.893 -22.357  10.426  0.00  0.00    -0.227 OA
ATOM     10  N   LIG    1       31.912 -21.817   8.479  0.00  0.00    -0.295 N 
ATOM     11  H   LIG    1       32.765 -22.253   8.798  0.00  0.00    +0.148 HD
ATOM     12  H   LIG    1       31.750 -21.674   7.504  0.00  0.00    +0.148 HD
ENDBRANCH   7   8
ENDBRANCH   6   7
ENDBRANCH   1   6
BRANCH   1  13
ATOM     13  C   LIG    1       29.603 -18.524   8.149  0.00  0.00    +0.243 C 
BRANCH  13  14
ATOM     14  O   LIG    1       30.930 -18.162   7.739  0.00  0.00    -0.450 OA
BRANCH  14  15
ATOM     15  C   LIG    1       31.843 -18.106   8.748  0.00  0.00    +0.398 C 
ATOM     16  O   LIG    1       32.248 -19.020   9.425  0.00  0.00    -0.227 OA
ATOM     17  N   LIG    1       32.304 -16.835   8.867  0.00  0.00    -0.295 N 
ATOM     18  H   LIG    1       33.119 -16.701   9.449  0.00  0.00    +0.148 HD
ATOM     19  H   LIG    1       32.065 -16.166   8.159  0.00  0.00    +0.148 HD
ENDBRANCH  14  15
ENDBRANCH  13  14
ENDBRANCH   1  13
TORSDOF 8
ENDMDL
MODEL 2
REMARK VINA RESULT:      -6.3      4.248      6.614
REMARK  Name = *****
REMARK                            x       y       z     vdW  Elec       q    Type
REMARK                         _______ _______ _______ _____ _____    ______ ____
ROOT
ATOM      1  C   LIG    1       25.041 -21.073   6.189  0.00  0.00    +0.036 C 
ATOM      2  C   LIG    1       24.436 -20.683   7.554  0.00  0.00    +0.018 C 
ENDROOT
BRANCH   1   3
ATOM      3  C   LIG    1       24.154 -20.467   5.033  0.00  0.00    +0.013 C 
BRANCH   3   5
ATOM      4  C   LIG    1       22.252 -18.760   4.626  0.00  0.00    +0.004 C 
ATOM      5  C   LIG    1       22.769 -19.923   5.470  0.00  0.00    -0.003 C 
ENDBRANCH   3   5
ENDBRANCH   1   3
BRANCH   1   6
ATOM      6  C   LIG    1       26.490 -20.530   6.084  0.00  0.00    +0.243 C 
BRANCH   6   7
ATOM      7  O   LIG    1       27.042 -20.235   7.383  0.00  0.00    -0.450 OA
BRANCH   7   8
ATOM      8  C   LIG    1       28.386 -20.345   7.504  0.00  0.00    +0.398 C 
ATOM      9  O   LIG    1       29.089 -19.822   8.338  0.00  0.00    -0.227 OA
ATOM     10  N   LIG    1       28.864 -21.167   6.533  0.00  0.00    -0.295 N 
ATOM     11  H   LIG    1       29.812 -21.494   6.651  0.00  0.00    +0.148 HD
ATOM     12  H   LIG    1       28.202 -21.708   6.015  0.00  0.00    +0.148 HD
ENDBRANCH   7   8
ENDBRANCH   6   7
ENDBRANCH   1   6
BRANCH   1  13
ATOM     13  C   LIG    1       25.166 -22.628   6.073  0.00  0.00    +0.243 C 
BRANCH  13  14
ATOM     14  O   LIG    1       24.474 -23.351   7.102  0.00  0.00    -0.450 OA
BRANCH  14  15
ATOM     15  C   LIG    1       23.511 -24.201   6.652  0.00  0.00    +0.398 C 
ATOM     16  O   LIG    1       23.626 -25.378   6.404  0.00  0.00    -0.227 OA
ATOM     17  N   LIG    1       22.331 -23.539   6.563  0.00  0.00    -0.295 N 
ATOM     18  H   LIG    1       21.503 -24.101   6.423  0.00  0.00    +0.148 HD
ATOM     19  H   LIG    1       22.264 -22.618   6.955  0.00  0.00    +0.148 HD
ENDBRANCH  14  15
ENDBRANCH  13  14
ENDBRANCH   1  13
TORSDOF 8
ENDMDL
MODEL 3
REMARK VINA RESULT:      -6.2      4.337      5.921
REMARK  Name = *****
REMARK                            x       y       z     vdW  Elec       q    Type
REMARK                         _______ _______ _______ _____ _____    ______ ____
ROOT
ATOM      1  C   LIG    1       24.828 -20.907   5.754  0.00  0.00    +0.036 C 
ATOM      2  C   LIG    1       25.360 -20.212   4.482  0.00  0.00    +0.018 C 
ENDROOT
BRANCH   1   3
ATOM      3  C   LIG    1       23.416 -20.306   6.124  0.00  0.00    +0.013 C 
BRANCH   3   5
ATOM      4  C   LIG    1       22.205 -18.613   4.587  0.00  0.00    +0.004 C 
ATOM      5  C   LIG    1       22.453 -20.081   4.930  0.00  0.00    -0.003 C 
ENDBRANCH   3   5
ENDBRANCH   1   3
BRANCH   1   6
ATOM      6  C   LIG    1       24.706 -22.432   5.504  0.00  0.00    +0.243 C 
BRANCH   6   7
ATOM      7  O   LIG    1       24.385 -23.145   6.715  0.00  0.00    -0.450 OA
BRANCH   7   8
ATOM      8  C   LIG    1       23.460 -24.128   6.608  0.00  0.00    +0.398 C 
ATOM      9  O   LIG    1       23.666 -25.315   6.493  0.00  0.00    -0.227 OA
ATOM     10  N   LIG    1       22.215 -23.588   6.661  0.00  0.00    -0.295 N 
ATOM     11  H   LIG    1       21.453 -24.234   6.807  0.00  0.00    +0.148 HD
ATOM     12  H   LIG    1       22.134 -22.635   6.953  0.00  0.00    +0.148 HD
ENDBRANCH   7   8
ENDBRANCH   6   7
ENDBRANCH   1   6
BRANCH   1  13
ATOM     13  C   LIG    1       25.852 -20.754   6.926  0.00  0.00    +0.243 C 
BRANCH  13  14
ATOM     14  O   LIG    1       27.184 -21.178   6.602  0.00  0.00    -0.450 OA
BRANCH  14  15
ATOM     15  C   LIG    1       28.148 -20.729   7.451  0.00  0.00    +0.398 C 
ATOM     16  O   LIG    1       28.003 -20.029   8.425  0.00  0.00    -0.227 OA
ATOM     17  N   LIG    1       29.350 -21.236   7.078  0.00  0.00    -0.295 N 
ATOM     18  H   LIG    1       30.111 -21.131   7.734  0.00  0.00    +0.148 HD
ATOM     19  H   LIG    1       29.375 -21.951   6.375  0.00  0.00    +0.148 HD
ENDBRANCH  14  15
ENDBRANCH  13  14
ENDBRANCH   1  13
TORSDOF 8
ENDMDL
MODEL 4
REMARK VINA RESULT:      -6.2      2.239      3.916
REMARK  Name = *****
REMARK                            x       y       z     vdW  Elec       q    Type
REMARK                         _______ _______ _______ _____ _____    ______ ____
ROOT
ATOM      1  C   LIG    1       27.255 -21.084   7.123  0.00  0.00    +0.036 C 
ATOM      2  C   LIG    1       26.698 -20.354   8.363  0.00  0.00    +0.018 C 
ENDROOT
BRANCH   1   3
ATOM      3  C   LIG    1       26.169 -22.093   6.580  0.00  0.00    +0.013 C 
BRANCH   3   5
ATOM      4  C   LIG    1       25.797 -24.649   6.731  0.00  0.00    +0.004 C 
ATOM      5  C   LIG    1       25.891 -23.323   7.483  0.00  0.00    -0.003 C 
ENDBRANCH   3   5
ENDBRANCH   1   3
BRANCH   1   6
ATOM      6  C   LIG    1       27.614 -20.051   6.024  0.00  0.00    +0.243 C 
BRANCH   6   7
ATOM      7  O   LIG    1       29.040 -19.923   5.859  0.00  0.00    -0.450 OA
BRANCH   7   8
ATOM      8  C   LIG    1       29.538 -18.664   5.882  0.00  0.00    +0.398 C 
ATOM      9  O   LIG    1       30.340 -18.210   6.667  0.00  0.00    -0.227 OA
ATOM     10  N   LIG    1       29.008 -17.946   4.857  0.00  0.00    -0.295 N 
ATOM     11  H   LIG    1       29.462 -17.070   4.645  0.00  0.00    +0.148 HD
ATOM     12  H   LIG    1       28.514 -18.447   4.147  0.00  0.00    +0.148 HD
ENDBRANCH   7   8
ENDBRANCH   6   7
ENDBRANCH   1   6
BRANCH   1  13
ATOM     13  C   LIG    1       28.597 -21.808   7.473  0.00  0.00    +0.243 C 
BRANCH  13  14
ATOM     14  O   LIG    1       29.206 -21.357   8.692  0.00  0.00    -0.450 OA
BRANCH  14  15
ATOM     15  C   LIG    1       30.536 -21.628   8.800  0.00  0.00    +0.398 C 
ATOM     16  O   LIG    1       31.057 -22.516   9.431  0.00  0.00    -0.227 OA
ATOM     17  N   LIG    1       31.236 -20.763   8.024  0.00  0.00    -0.295 N 
ATOM     18  H   LIG    1       32.211 -20.977   7.870  0.00  0.00    +0.148 HD
ATOM     19  H   LIG    1       30.735 -20.172   7.387  0.00  0.00    +0.148 HD
ENDBRANCH  14  15
ENDBRANCH  13  14
ENDBRANCH   1  13
TORSDOF 8
ENDMDL
MODEL 5
REMARK VINA RESULT:      -6.2      4.570      6.151
REMARK  Name = *****
REMARK                            x       y       z     vdW  Elec       q    Type
REMARK                         _______ _______ _______ _____ _____    ______ ____
ROOT
ATOM      1  C   LIG    1       24.372 -21.441   5.574  0.00  0.00    +0.036 C 
ATOM      2  C   LIG    1       24.344 -21.548   4.034  0.00  0.00    +0.018 C 
ENDROOT
BRANCH   1   3
ATOM      3  C   LIG    1       23.286 -20.397   6.044  0.00  0.00    +0.013 C 
BRANCH   3   5
ATOM      4  C   LIG    1       22.296 -18.489   4.603  0.00  0.00    +0.004 C 
ATOM      5  C   LIG    1       22.257 -19.973   4.963  0.00  0.00    -0.003 C 
ENDBRANCH   3   5
ENDBRANCH   1   3
BRANCH   1   6
ATOM      6  C   LIG    1       24.079 -22.829   6.200  0.00  0.00    +0.243 C 
BRANCH   6   7
ATOM      7  O   LIG    1       25.280 -23.614   6.339  0.00  0.00    -0.450 OA
BRANCH   7   8
ATOM      8  C   LIG    1       25.260 -24.848   5.782  0.00  0.00    +0.398 C 
ATOM      9  O   LIG    1       26.209 -25.567   5.564  0.00  0.00    -0.227 OA
ATOM     10  N   LIG    1       23.977 -25.198   5.499  0.00  0.00    -0.295 N 
ATOM     11  H   LIG    1       23.817 -26.171   5.283  0.00  0.00    +0.148 HD
ATOM     12  H   LIG    1       23.247 -24.638   5.888  0.00  0.00    +0.148 HD
ENDBRANCH   7   8
ENDBRANCH   6   7
ENDBRANCH   1   6
BRANCH   1  13
ATOM     13  C   LIG    1       25.805 -21.052   6.066  0.00  0.00    +0.243 C 
BRANCH  13  14
ATOM     14  O   LIG    1       25.818 -20.196   7.218  0.00  0.00    -0.450 OA
BRANCH  14  15
ATOM     15  C   LIG    1       26.259 -20.786   8.363  0.00  0.00    +0.398 C 
ATOM     16  O   LIG    1       25.940 -20.521   9.497  0.00  0.00    -0.227 OA
ATOM     17  N   LIG    1       27.105 -21.799   8.050  0.00  0.00    -0.295 N 
ATOM     18  H   LIG    1       27.352 -22.433   8.798  0.00  0.00    +0.148 HD
ATOM     19  H   LIG    1       27.185 -22.083   7.091  0.00  0.00    +0.148 HD
ENDBRANCH  14  15
ENDBRANCH  13  14
ENDBRANCH   1  13
TORSDOF 8
ENDMDL
MODEL 6
REMARK VINA RESULT:      -6.1      4.169      6.733
REMARK  Name = *****
REMARK                            x       y       z     vdW  Elec       q    Type
REMARK                         _______ _______ _______ _____ _____    ______ ____
ROOT
ATOM      1  C   LIG    1       24.560 -21.356   6.622  0.00  0.00    +0.036 C 
ATOM      2  C   LIG    1       23.340 -21.608   7.534  0.00  0.00    +0.018 C 
ENDROOT
BRANCH   1   3
ATOM      3  C   LIG    1       24.112 -20.492   5.379  0.00  0.00    +0.013 C 
BRANCH   3   5
ATOM      4  C   LIG    1       22.407 -18.743   4.525  0.00  0.00    +0.004 C 
ATOM      5  C   LIG    1       22.663 -19.942   5.436  0.00  0.00    -0.003 C 
ENDBRANCH   3   5
ENDBRANCH   1   3
BRANCH   1   6
ATOM      6  C   LIG    1       25.661 -20.609   7.417  0.00  0.00    +0.243 C 
BRANCH   6   7
ATOM      7  O   LIG    1       26.812 -20.326   6.595  0.00  0.00    -0.450 OA
BRANCH   7   8
ATOM      8  C   LIG    1       28.018 -20.391   7.205  0.00  0.00    +0.398 C 
ATOM      9  O   LIG    1       28.306 -19.965   8.301  0.00  0.00    -0.227 OA
ATOM     10  N   LIG    1       28.902 -21.036   6.400  0.00  0.00    -0.295 N 
ATOM     11  H   LIG    1       29.765 -21.333   6.830  0.00  0.00    +0.148 HD
ATOM     12  H   LIG    1       28.537 -21.524   5.607  0.00  0.00    +0.148 HD
ENDBRANCH   7   8
ENDBRANCH   6   7
ENDBRANCH   1   6
BRANCH   1  13
ATOM     13  C   LIG    1       25.204 -22.713   6.186  0.00  0.00    +0.243 C 
BRANCH  13  14
ATOM     14  O   LIG    1       24.636 -23.865   6.827  0.00  0.00    -0.450 OA
BRANCH  14  15
ATOM     15  C   LIG    1       24.379 -24.912   5.996  0.00  0.00    +0.398 C 
ATOM     16  O   LIG    1       23.844 -25.959   6.274  0.00  0.00    -0.227 OA
ATOM     17  N   LIG    1       24.770 -24.593   4.736  0.00  0.00    -0.295 N 
ATOM     18  H   LIG    1       24.463 -25.208   3.996  0.00  0.00    +0.148 HD
ATOM     19  H   LIG    1       25.036 -23.647   4.538  0.00  0.00    +0.148 HD
ENDBRANCH  14  15
ENDBRANCH  13  14
ENDBRANCH   1  13
TORSDOF 8
ENDMDL
MODEL 7
REMARK VINA RESULT:      -6.0      4.837      6.994
REMARK  Name = *****
REMARK                            x       y       z     vdW  Elec       q    Type
REMARK                         _______ _______ _______ _____ _____    ______ ____
ROOT
ATOM      1  C   LIG    1       23.397 -21.931   6.149  0.00  0.00    +0.036 C 
ATOM      2  C   LIG    1       22.589 -23.054   6.833  0.00  0.00    +0.018 C 
ENDROOT
BRANCH   1   3
ATOM      3  C   LIG    1       22.443 -21.110   5.196  0.00  0.00    +0.013 C 
BRANCH   3   5
ATOM      4  C   LIG    1       23.290 -18.979   3.996  0.00  0.00    +0.004 C 
ATOM      5  C   LIG    1       22.624 -19.570   5.237  0.00  0.00    -0.003 C 
ENDBRANCH   3   5
ENDBRANCH   1   3
BRANCH   1   6
ATOM      6  C   LIG    1       24.005 -20.994   7.224  0.00  0.00    +0.243 C 
BRANCH   6   7
ATOM      7  O   LIG    1       24.716 -21.736   8.235  0.00  0.00    -0.450 OA
BRANCH   7   8
ATOM      8  C   LIG    1       25.882 -21.199   8.667  0.00  0.00    +0.398 C 
ATOM      9  O   LIG    1       26.024 -20.344   9.511  0.00  0.00    -0.227 OA
ATOM     10  N   LIG    1       26.921 -21.779   8.010  0.00  0.00    -0.295 N 
ATOM     11  H   LIG    1       27.839 -21.617   8.395  0.00  0.00    +0.148 HD
ATOM     12  H   LIG    1       26.731 -22.605   7.480  0.00  0.00    +0.148 HD
ENDBRANCH   7   8
ENDBRANCH   6   7
ENDBRANCH   1   6
BRANCH   1  13
ATOM     13  C   LIG    1       24.617 -22.530   5.376  0.00  0.00    +0.243 C 
BRANCH  13  14
ATOM     14  O   LIG    1       24.550 -23.951   5.183  0.00  0.00    -0.450 OA
BRANCH  14  15
ATOM     15  C   LIG    1       25.519 -24.660   5.824  0.00  0.00    +0.398 C 
ATOM     16  O   LIG    1       26.135 -24.338   6.812  0.00  0.00    -0.227 OA
ATOM     17  N   LIG    1       25.678 -25.861   5.213  0.00  0.00    -0.295 N 
ATOM     18  H   LIG    1       26.230 -26.550   5.703  0.00  0.00    +0.148 HD
ATOM     19  H   LIG    1       25.014 -26.138   4.515  0.00  0.00    +0.148 HD
ENDBRANCH  14  15
ENDBRANCH  13  14
ENDBRANCH   1  13
TORSDOF 8
ENDMDL
MODEL 8
REMARK VINA RESULT:      -6.0      4.497      6.481
REMARK  Name = *****
REMARK                            x       y       z     vdW  Elec       q    Type
REMARK                         _______ _______ _______ _____ _____    ______ ____
ROOT
ATOM      1  C   LIG    1       24.336 -22.922   6.727  0.00  0.00    +0.036 C 
ATOM      2  C   LIG    1       23.223 -22.037   7.328  0.00  0.00    +0.018 C 
ENDROOT
BRANCH   1   3
ATOM      3  C   LIG    1       23.795 -24.394   6.554  0.00  0.00    +0.013 C 
BRANCH   3   5
ATOM      4  C   LIG    1       24.313 -26.872   6.018  0.00  0.00    +0.004 C 
ATOM      5  C   LIG    1       24.852 -25.448   6.133  0.00  0.00    -0.003 C 
ENDBRANCH   3   5
ENDBRANCH   1   3
BRANCH   1   6
ATOM      6  C   LIG    1       24.772 -22.352   5.352  0.00  0.00    +0.243 C 
BRANCH   6   7
ATOM      7  O   LIG    1       24.284 -21.010   5.154  0.00  0.00    -0.450 OA
BRANCH   7   8
ATOM      8  C   LIG    1       25.017 -20.219   4.334  0.00  0.00    +0.398 C 
ATOM      9  O   LIG    1       24.602 -19.476   3.474  0.00  0.00    -0.227 OA
ATOM     10  N   LIG    1       26.337 -20.364   4.624  0.00  0.00    -0.295 N 
ATOM     11  H   LIG    1       26.958 -19.672   4.231  0.00  0.00    +0.148 HD
ATOM     12  H   LIG    1       26.577 -20.840   5.468  0.00  0.00    +0.148 HD
ENDBRANCH   7   8
ENDBRANCH   6   7
ENDBRANCH   1   6
BRANCH   1  13
ATOM     13  C   LIG    1       25.615 -22.873   7.626  0.00  0.00    +0.243 C 
BRANCH  13  14
ATOM     14  O   LIG    1       26.527 -21.816   7.294  0.00  0.00    -0.450 OA
BRANCH  14  15
ATOM     15  C   LIG    1       26.646 -20.847   8.242  0.00  0.00    +0.398 C 
ATOM     16  O   LIG    1       25.990 -20.716   9.248  0.00  0.00    -0.227 OA
ATOM     17  N   LIG    1       27.686 -20.033   7.928  0.00  0.00    -0.295 N 
ATOM     18  H   LIG    1       27.995 -19.393   8.645  0.00  0.00    +0.148 HD
ATOM     19  H   LIG    1       28.300 -20.303   7.182  0.00  0.00    +0.148 HD
ENDBRANCH  14  15
ENDBRANCH  13  14
ENDBRANCH   1  13
TORSDOF 8
ENDMDL
MODEL 9
REMARK VINA RESULT:      -5.9      5.514      7.021
REMARK  Name = *****
REMARK                            x       y       z     vdW  Elec       q    Type
REMARK                         _______ _______ _______ _____ _____    ______ ____
ROOT
ATOM      1  C   LIG    1       24.535 -22.860   6.622  0.00  0.00    +0.036 C 
ATOM      2  C   LIG    1       23.280 -22.260   7.293  0.00  0.00    +0.018 C 
ENDROOT
BRANCH   1   3
ATOM      3  C   LIG    1       25.763 -22.731   7.604  0.00  0.00    +0.013 C 
BRANCH   3   5
ATOM      4  C   LIG    1       26.814 -20.407   8.044  0.00  0.00    +0.004 C 
ATOM      5  C   LIG    1       25.787 -21.450   8.479  0.00  0.00    -0.003 C 
ENDBRANCH   3   5
ENDBRANCH   1   3
BRANCH   1   6
ATOM      6  C   LIG    1       24.284 -24.351   6.281  0.00  0.00    +0.243 C 
BRANCH   6   7
ATOM      7  O   LIG    1       25.132 -24.801   5.206  0.00  0.00    -0.450 OA
BRANCH   7   8
ATOM      8  C   LIG    1       25.272 -26.141   5.070  0.00  0.00    +0.398 C 
ATOM      9  O   LIG    1       26.233 -26.735   4.636  0.00  0.00    -0.227 OA
ATOM     10  N   LIG    1       24.149 -26.763   5.517  0.00  0.00    -0.295 N 
ATOM     11  H   LIG    1       24.219 -27.759   5.665  0.00  0.00    +0.148 HD
ATOM     12  H   LIG    1       23.492 -26.218   6.036  0.00  0.00    +0.148 HD
ENDBRANCH   7   8
ENDBRANCH   6   7
ENDBRANCH   1   6
BRANCH   1  13
ATOM     13  C   LIG    1       24.808 -22.156   5.252  0.00  0.00    +0.243 C 
BRANCH  13  14
ATOM     14  O   LIG    1       24.362 -20.793   5.192  0.00  0.00    -0.450 OA
BRANCH  14  15
ATOM     15  C   LIG    1       25.079 -19.994   4.355  0.00  0.00    +0.398 C 
ATOM     16  O   LIG    1       24.662 -19.112   3.643  0.00  0.00    -0.227 OA
ATOM     17  N   LIG    1       26.398 -20.294   4.465  0.00  0.00    -0.295 N 
ATOM     18  H   LIG    1       27.048 -19.648   4.039  0.00  0.00    +0.148 HD
ATOM     19  H   LIG    1       26.693 -20.906   5.203  0.00  0.00    +0.148 HD
ENDBRANCH  14  15
ENDBRANCH  13  14
ENDBRANCH   1  13
TORSDOF 8
ENDMDL
