MODEL 1
REMARK VINA RESULT:      -9.9      0.000      0.000
REMARK  Name = *****
REMARK                            x       y       z     vdW  Elec       q    Type
REMARK                         _______ _______ _______ _____ _____    ______ ____
ROOT
ATOM      1  O   LIG    1       25.999 -20.824   9.365  0.00  0.00    -0.291 OA
ATOM      2  C   LIG    1       26.224 -20.632   8.183  0.00  0.00    +0.179 C 
ATOM      3  C   LIG    1       25.282 -20.831   7.003  0.00  0.00    +0.161 C 
ATOM      4  C   LIG    1       26.134 -20.392   5.818  0.00  0.00    +0.179 C 
ATOM      5  O   LIG    1       25.808 -20.321   4.644  0.00  0.00    -0.291 OA
ATOM      6  C   LIG    1       27.456 -20.005   6.305  0.00  0.00    +0.029 A 
ATOM      7  C   LIG    1       28.543 -19.556   5.578  0.00  0.00    +0.012 A 
ATOM      8  C   LIG    1       29.707 -19.241   6.285  0.00  0.00    +0.001 A 
ATOM      9  C   LIG    1       29.759 -19.379   7.686  0.00  0.00    +0.001 A 
ATOM     10  C   LIG    1       28.648 -19.834   8.402  0.00  0.00    +0.012 A 
ATOM     11  C   LIG    1       27.507 -20.141   7.684  0.00  0.00    +0.029 A 
ENDROOT
BRANCH   3  12
ATOM     12  C   LIG    1       24.718 -22.226   6.832  0.00  0.00    -0.029 A 
ATOM     13  C   LIG    1       25.610 -23.298   6.654  0.00  0.00    +0.005 A 
ATOM     14  C   LIG    1       25.143 -24.605   6.508  0.00  0.00    +0.000 A 
ATOM     15  C   LIG    1       23.777 -24.864   6.540  0.00  0.00    +0.000 A 
ATOM     16  C   LIG    1       22.878 -23.815   6.719  0.00  0.00    +0.000 A 
ATOM     17  C   LIG    1       23.343 -22.507   6.867  0.00  0.00    +0.005 A 
ENDBRANCH   3  12
TORSDOF 1
ENDMDL
MODEL 2
REMARK VINA RESULT:      -9.2      3.057      5.346
REMARK  Name = *****
REMARK                            x       y       z     vdW  Elec       q    Type
REMARK                         _______ _______ _______ _____ _____    ______ ____
ROOT
ATOM      1  O   LIG    1       22.074 -23.681   6.655  0.00  0.00    -0.291 OA
ATOM      2  C   LIG    1       23.287 -23.575   6.647  0.00  0.00    +0.179 C 
ATOM      3  C   LIG    1       24.121 -22.314   6.827  0.00  0.00    +0.161 C 
ATOM      4  C   LIG    1       25.549 -22.841   6.749  0.00  0.00    +0.179 C 
ATOM      5  O   LIG    1       26.588 -22.218   6.887  0.00  0.00    -0.291 OA
ATOM      6  C   LIG    1       25.505 -24.283   6.515  0.00  0.00    +0.029 A 
ATOM      7  C   LIG    1       26.562 -25.163   6.367  0.00  0.00    +0.012 A 
ATOM      8  C   LIG    1       26.256 -26.511   6.157  0.00  0.00    +0.001 A 
ATOM      9  C   LIG    1       24.917 -26.945   6.101  0.00  0.00    +0.001 A 
ATOM     10  C   LIG    1       23.863 -26.039   6.254  0.00  0.00    +0.012 A 
ATOM     11  C   LIG    1       24.187 -24.711   6.460  0.00  0.00    +0.029 A 
ENDROOT
BRANCH   3  12
ATOM     12  C   LIG    1       23.857 -21.196   5.840  0.00  0.00    -0.029 A 
ATOM     13  C   LIG    1       24.660 -21.109   4.689  0.00  0.00    +0.005 A 
ATOM     14  C   LIG    1       24.448 -20.108   3.739  0.00  0.00    +0.000 A 
ATOM     15  C   LIG    1       23.430 -19.179   3.922  0.00  0.00    +0.000 A 
ATOM     16  C   LIG    1       22.622 -19.251   5.053  0.00  0.00    +0.000 A 
ATOM     17  C   LIG    1       22.831 -20.253   6.004  0.00  0.00    +0.005 A 
ENDBRANCH   3  12
TORSDOF 1
ENDMDL
MODEL 3
REMARK VINA RESULT:      -9.0      2.591      6.594
REMARK  Name = *****
REMARK                            x       y       z     vdW  Elec       q    Type
REMARK                         _______ _______ _______ _____ _____    ______ ____
ROOT
ATOM      1  O   LIG    1       30.129 -21.508   8.966  0.00  0.00    -0.291 OA
ATOM      2  C   LIG    1       29.766 -20.751   8.082  0.00  0.00    +0.179 C 
ATOM      3  C   LIG    1       30.513 -19.559   7.500  0.00  0.00    +0.161 C 
ATOM      4  C   LIG    1       29.558 -19.058   6.423  0.00  0.00    +0.179 C 
ATOM      5  O   LIG    1       29.727 -18.140   5.638  0.00  0.00    -0.291 OA
ATOM      6  C   LIG    1       28.361 -19.895   6.430  0.00  0.00    +0.029 A 
ATOM      7  C   LIG    1       27.236 -19.794   5.632  0.00  0.00    +0.012 A 
ATOM      8  C   LIG    1       26.217 -20.730   5.830  0.00  0.00    +0.001 A 
ATOM      9  C   LIG    1       26.342 -21.736   6.808  0.00  0.00    +0.001 A 
ATOM     10  C   LIG    1       27.488 -21.821   7.604  0.00  0.00    +0.012 A 
ATOM     11  C   LIG    1       28.484 -20.884   7.393  0.00  0.00    +0.029 A 
ENDROOT
BRANCH   3  12
ATOM     12  C   LIG    1       30.904 -18.476   8.483  0.00  0.00    -0.029 A 
ATOM     13  C   LIG    1       29.962 -18.061   9.441  0.00  0.00    +0.005 A 
ATOM     14  C   LIG    1       30.277 -17.078  10.381  0.00  0.00    +0.000 A 
ATOM     15  C   LIG    1       31.539 -16.495  10.382  0.00  0.00    +0.000 A 
ATOM     16  C   LIG    1       32.487 -16.896   9.445  0.00  0.00    +0.000 A 
ATOM     17  C   LIG    1       32.175 -17.881   8.504  0.00  0.00    +0.005 A 
ENDBRANCH   3  12
TORSDOF 1
ENDMDL
MODEL 4
REMARK VINA RESULT:      -8.7      0.803      1.476
REMARK  Name = *****
REMARK                            x       y       z     vdW  Elec       q    Type
REMARK                         _______ _______ _______ _____ _____    ______ ____
ROOT
ATOM      1  O   LIG    1       27.183 -21.682   8.993  0.00  0.00    -0.291 OA
ATOM      2  C   LIG    1       26.839 -21.204   7.926  0.00  0.00    +0.179 C 
ATOM      3  C   LIG    1       25.493 -21.340   7.227  0.00  0.00    +0.161 C 
ATOM      4  C   LIG    1       25.682 -20.497   5.971  0.00  0.00    +0.179 C 
ATOM      5  O   LIG    1       24.862 -20.250   5.102  0.00  0.00    -0.291 OA
ATOM      6  C   LIG    1       27.040 -19.959   5.965  0.00  0.00    +0.029 A 
ATOM      7  C   LIG    1       27.643 -19.154   5.015  0.00  0.00    +0.012 A 
ATOM      8  C   LIG    1       28.965 -18.763   5.245  0.00  0.00    +0.001 A 
ATOM      9  C   LIG    1       29.648 -19.177   6.405  0.00  0.00    +0.001 A 
ATOM     10  C   LIG    1       29.020 -19.991   7.353  0.00  0.00    +0.012 A 
ATOM     11  C   LIG    1       27.713 -20.368   7.106  0.00  0.00    +0.029 A 
ENDROOT
BRANCH   3  12
ATOM     12  C   LIG    1       25.044 -22.753   6.919  0.00  0.00    -0.029 A 
ATOM     13  C   LIG    1       23.665 -23.027   6.867  0.00  0.00    +0.005 A 
ATOM     14  C   LIG    1       23.197 -24.308   6.570  0.00  0.00    +0.000 A 
ATOM     15  C   LIG    1       24.098 -25.337   6.318  0.00  0.00    +0.000 A 
ATOM     16  C   LIG    1       25.467 -25.084   6.361  0.00  0.00    +0.000 A 
ATOM     17  C   LIG    1       25.937 -23.802   6.655  0.00  0.00    +0.005 A 
ENDBRANCH   3  12
TORSDOF 1
ENDMDL
MODEL 5
REMARK VINA RESULT:      -8.6      2.856      4.492
REMARK  Name = *****
REMARK                            x       y       z     vdW  Elec       q    Type
REMARK                         _______ _______ _______ _____ _____    ______ ____
ROOT
ATOM      1  O   LIG    1       26.668 -21.903   6.474  0.00  0.00    -0.291 OA
ATOM      2  C   LIG    1       25.476 -22.146   6.396  0.00  0.00    +0.179 C 
ATOM      3  C   LIG    1       24.730 -23.366   6.918  0.00  0.00    +0.161 C 
ATOM      4  C   LIG    1       23.285 -23.062   6.542  0.00  0.00    +0.179 C 
ATOM      5  O   LIG    1       22.289 -23.721   6.790  0.00  0.00    -0.291 OA
ATOM      6  C   LIG    1       23.242 -21.781   5.840  0.00  0.00    +0.029 A 
ATOM      7  C   LIG    1       22.143 -21.127   5.312  0.00  0.00    +0.012 A 
ATOM      8  C   LIG    1       22.364 -19.896   4.687  0.00  0.00    +0.001 A 
ATOM      9  C   LIG    1       23.661 -19.351   4.604  0.00  0.00    +0.001 A 
ATOM     10  C   LIG    1       24.757 -20.029   5.146  0.00  0.00    +0.012 A 
ATOM     11  C   LIG    1       24.518 -21.246   5.759  0.00  0.00    +0.029 A 
ENDROOT
BRANCH   3  12
ATOM     12  C   LIG    1       25.199 -24.707   6.393  0.00  0.00    -0.029 A 
ATOM     13  C   LIG    1       25.055 -24.983   5.022  0.00  0.00    +0.005 A 
ATOM     14  C   LIG    1       25.486 -26.197   4.484  0.00  0.00    +0.000 A 
ATOM     15  C   LIG    1       26.071 -27.154   5.306  0.00  0.00    +0.000 A 
ATOM     16  C   LIG    1       26.227 -26.897   6.665  0.00  0.00    +0.000 A 
ATOM     17  C   LIG    1       25.798 -25.682   7.206  0.00  0.00    +0.005 A 
ENDBRANCH   3  12
TORSDOF 1
ENDMDL
MODEL 6
REMARK VINA RESULT:      -7.5      1.355      5.582
REMARK  Name = *****
REMARK                            x       y       z     vdW  Elec       q    Type
REMARK                         _______ _______ _______ _____ _____    ______ ____
ROOT
ATOM      1  O   LIG    1       27.337 -19.851   4.970  0.00  0.00    -0.291 OA
ATOM      2  C   LIG    1       26.803 -20.197   6.009  0.00  0.00    +0.179 C 
ATOM      3  C   LIG    1       27.185 -19.817   7.433  0.00  0.00    +0.161 C 
ATOM      4  C   LIG    1       26.128 -20.532   8.266  0.00  0.00    +0.179 C 
ATOM      5  O   LIG    1       25.975 -20.499   9.475  0.00  0.00    -0.291 OA
ATOM      6  C   LIG    1       25.245 -21.274   7.368  0.00  0.00    +0.029 A 
ATOM      7  C   LIG    1       24.161 -22.070   7.692  0.00  0.00    +0.012 A 
ATOM      8  C   LIG    1       23.466 -22.674   6.640  0.00  0.00    +0.001 A 
ATOM      9  C   LIG    1       23.863 -22.472   5.303  0.00  0.00    +0.001 A 
ATOM     10  C   LIG    1       24.961 -21.662   4.998  0.00  0.00    +0.012 A 
ATOM     11  C   LIG    1       25.636 -21.075   6.053  0.00  0.00    +0.029 A 
ENDROOT
BRANCH   3  12
ATOM     12  C   LIG    1       28.596 -20.164   7.858  0.00  0.00    -0.029 A 
ATOM     13  C   LIG    1       29.499 -19.119   8.119  0.00  0.00    +0.005 A 
ATOM     14  C   LIG    1       30.807 -19.384   8.530  0.00  0.00    +0.000 A 
ATOM     15  C   LIG    1       31.233 -20.698   8.690  0.00  0.00    +0.000 A 
ATOM     16  C   LIG    1       30.352 -21.747   8.441  0.00  0.00    +0.000 A 
ATOM     17  C   LIG    1       29.042 -21.484   8.031  0.00  0.00    +0.005 A 
ENDBRANCH   3  12
TORSDOF 1
ENDMDL
MODEL 7
REMARK VINA RESULT:      -7.5      1.974      5.302
REMARK  Name = *****
REMARK                            x       y       z     vdW  Elec       q    Type
REMARK                         _______ _______ _______ _____ _____    ______ ____
ROOT
ATOM      1  O   LIG    1       26.699 -22.199   9.035  0.00  0.00    -0.291 OA
ATOM      2  C   LIG    1       26.755 -21.614   7.967  0.00  0.00    +0.179 C 
ATOM      3  C   LIG    1       27.992 -21.267   7.150  0.00  0.00    +0.161 C 
ATOM      4  C   LIG    1       27.402 -20.579   5.925  0.00  0.00    +0.179 C 
ATOM      5  O   LIG    1       27.992 -20.156   4.944  0.00  0.00    -0.291 OA
ATOM      6  C   LIG    1       25.949 -20.527   6.069  0.00  0.00    +0.029 A 
ATOM      7  C   LIG    1       25.018 -19.984   5.202  0.00  0.00    +0.012 A 
ATOM      8  C   LIG    1       23.671 -20.067   5.567  0.00  0.00    +0.001 A 
ATOM      9  C   LIG    1       23.288 -20.684   6.774  0.00  0.00    +0.001 A 
ATOM     10  C   LIG    1       24.245 -21.227   7.635  0.00  0.00    +0.012 A 
ATOM     11  C   LIG    1       25.572 -21.134   7.257  0.00  0.00    +0.029 A 
ENDROOT
BRANCH   3  12
ATOM     12  C   LIG    1       29.034 -20.419   7.850  0.00  0.00    -0.029 A 
ATOM     13  C   LIG    1       30.219 -21.034   8.292  0.00  0.00    +0.005 A 
ATOM     14  C   LIG    1       31.219 -20.295   8.927  0.00  0.00    +0.000 A 
ATOM     15  C   LIG    1       31.053 -18.929   9.129  0.00  0.00    +0.000 A 
ATOM     16  C   LIG    1       29.888 -18.302   8.694  0.00  0.00    +0.000 A 
ATOM     17  C   LIG    1       28.887 -19.039   8.057  0.00  0.00    +0.005 A 
ENDBRANCH   3  12
TORSDOF 1
ENDMDL
MODEL 8
REMARK VINA RESULT:      -7.4      1.309      5.650
REMARK  Name = *****
REMARK                            x       y       z     vdW  Elec       q    Type
REMARK                         _______ _______ _______ _____ _____    ______ ____
ROOT
ATOM      1  O   LIG    1       25.007 -21.040   4.605  0.00  0.00    -0.291 OA
ATOM      2  C   LIG    1       25.334 -21.658   5.603  0.00  0.00    +0.179 C 
ATOM      3  C   LIG    1       25.903 -21.110   6.904  0.00  0.00    +0.161 C 
ATOM      4  C   LIG    1       26.067 -22.364   7.754  0.00  0.00    +0.179 C 
ATOM      5  O   LIG    1       26.448 -22.443   8.910  0.00  0.00    -0.291 OA
ATOM      6  C   LIG    1       25.645 -23.522   6.969  0.00  0.00    +0.029 A 
ATOM      7  C   LIG    1       25.636 -24.855   7.340  0.00  0.00    +0.012 A 
ATOM      8  C   LIG    1       25.174 -25.782   6.401  0.00  0.00    +0.001 A 
ATOM      9  C   LIG    1       24.735 -25.364   5.130  0.00  0.00    +0.001 A 
ATOM     10  C   LIG    1       24.752 -24.012   4.776  0.00  0.00    +0.012 A 
ATOM     11  C   LIG    1       25.214 -23.110   5.718  0.00  0.00    +0.029 A 
ENDROOT
BRANCH   3  12
ATOM     12  C   LIG    1       27.187 -20.314   6.784  0.00  0.00    -0.029 A 
ATOM     13  C   LIG    1       27.991 -20.153   7.927  0.00  0.00    +0.005 A 
ATOM     14  C   LIG    1       29.192 -19.444   7.867  0.00  0.00    +0.000 A 
ATOM     15  C   LIG    1       29.611 -18.886   6.665  0.00  0.00    +0.000 A 
ATOM     16  C   LIG    1       28.831 -19.038   5.522  0.00  0.00    +0.000 A 
ATOM     17  C   LIG    1       27.630 -19.749   5.578  0.00  0.00    +0.005 A 
ENDBRANCH   3  12
TORSDOF 1
ENDMDL
MODEL 9
REMARK VINA RESULT:      -7.4      2.487      5.541
REMARK  Name = *****
REMARK                            x       y       z     vdW  Elec       q    Type
REMARK                         _______ _______ _______ _____ _____    ______ ____
ROOT
ATOM      1  O   LIG    1       24.793 -22.445   5.562  0.00  0.00    -0.291 OA
ATOM      2  C   LIG    1       24.822 -21.331   5.068  0.00  0.00    +0.179 C 
ATOM      3  C   LIG    1       26.041 -20.514   4.663  0.00  0.00    +0.161 C 
ATOM      4  C   LIG    1       25.419 -19.247   4.087  0.00  0.00    +0.179 C 
ATOM      5  O   LIG    1       25.988 -18.295   3.580  0.00  0.00    -0.291 OA
ATOM      6  C   LIG    1       23.965 -19.348   4.192  0.00  0.00    +0.029 A 
ATOM      7  C   LIG    1       23.009 -18.426   3.804  0.00  0.00    +0.012 A 
ATOM      8  C   LIG    1       21.668 -18.763   4.006  0.00  0.00    +0.001 A 
ATOM      9  C   LIG    1       21.314 -19.999   4.582  0.00  0.00    +0.001 A 
ATOM     10  C   LIG    1       22.296 -20.917   4.966  0.00  0.00    +0.012 A 
ATOM     11  C   LIG    1       23.617 -20.563   4.759  0.00  0.00    +0.029 A 
ENDROOT
BRANCH   3  12
ATOM     12  C   LIG    1       27.042 -20.224   5.763  0.00  0.00    -0.029 A 
ATOM     13  C   LIG    1       26.665 -20.459   7.097  0.00  0.00    +0.005 A 
ATOM     14  C   LIG    1       27.555 -20.225   8.147  0.00  0.00    +0.000 A 
ATOM     15  C   LIG    1       28.837 -19.755   7.881  0.00  0.00    +0.000 A 
ATOM     16  C   LIG    1       29.229 -19.521   6.566  0.00  0.00    +0.000 A 
ATOM     17  C   LIG    1       28.341 -19.756   5.514  0.00  0.00    +0.005 A 
ENDBRANCH   3  12
TORSDOF 1
ENDMDL
