MODEL 1
REMARK VINA RESULT:      17.2      0.000      0.000
REMARK  Name = *****
REMARK                            x       y       z     vdW  Elec       q    Type
REMARK                         _______ _______ _______ _____ _____    ______ ____
ROOT
ATOM      1  C   LIG    1       27.407 -12.568   4.603  0.00  0.00    +0.132 C 
ATOM      2  C   LIG    1       26.530 -13.651   3.893  0.00  0.00    +0.011 C 
ATOM      3  C   LIG    1       25.581 -13.006   2.862  0.00  0.00    +0.015 C 
ATOM      4  C   LIG    1       25.752 -14.245   5.099  0.00  0.00    +0.002 C 
ATOM      5  C   LIG    1       25.108 -15.636   4.916  0.00  0.00    +0.001 C 
ATOM      6  C   LIG    1       26.007 -16.635   4.152  0.00  0.00    +0.023 C 
ATOM      7  C   LIG    1       26.612 -16.015   2.883  0.00  0.00    +0.009 C 
ATOM      8  C   LIG    1       25.287 -17.934   3.820  0.00  0.00    -0.041 A 
ATOM      9  C   LIG    1       23.891 -18.061   3.914  0.00  0.00    -0.041 A 
ATOM     10  C   LIG    1       23.289 -19.301   3.635  0.00  0.00    +0.049 A 
ATOM     11  C   LIG    1       24.045 -20.392   3.205  0.00  0.00    +0.121 A 
ATOM     12  C   LIG    1       25.424 -20.254   3.084  0.00  0.00    +0.046 A 
ATOM     13  C   LIG    1       23.021 -16.913   4.357  0.00  0.00    +0.036 C 
ATOM     14  C   LIG    1       26.040 -19.042   3.400  0.00  0.00    +0.008 A 
ATOM     15  C   LIG    1       23.723 -15.559   4.256  0.00  0.00    +0.009 C 
ATOM     16  C   LIG    1       26.779 -14.253   6.253  0.00  0.00    +0.008 C 
ATOM     17  C   LIG    1       27.386 -14.738   3.197  0.00  0.00    +0.011 C 
ATOM     18  C   LIG    1       27.874 -13.247   5.893  0.00  0.00    +0.049 C 
ENDROOT
BRANCH   1  20
ATOM     19  C   LIG    1       29.473 -11.692   3.152  0.00  0.00    +0.007 C 
ATOM     20  C   LIG    1       28.543 -12.083   3.800  0.00  0.00    -0.070 C 
ENDBRANCH   1  20
BRANCH   1  21
ATOM     21  O   LIG    1       26.608 -11.447   4.989  0.00  0.00    -0.376 OA
ATOM     22  H   LIG    1       27.169 -10.657   4.913  0.00  0.00    +0.211 HD
ENDBRANCH   1  21
BRANCH  11  23
ATOM     23  O   LIG    1       23.339 -21.541   2.961  0.00  0.00    -0.489 OA
BRANCH  23  24
ATOM     24  C   LIG    1       22.005 -21.572   3.450  0.00  0.00    +0.173 C 
ATOM     25  C   LIG    1       21.926 -21.547   4.973  0.00  0.00    +0.044 C 
ATOM     26  C   LIG    1       20.475 -21.163   5.220  0.00  0.00    +0.004 C 
ATOM     27  C   LIG    1       20.126 -20.191   4.091  0.00  0.00    +0.004 C 
ATOM     28  C   LIG    1       21.279 -20.275   3.091  0.00  0.00    +0.044 C 
ENDBRANCH  23  24
ENDBRANCH  11  23
TORSDOF 4
ENDMDL
