MODEL 1
REMARK VINA RESULT:      -4.5      0.000      0.000
REMARK  Name = *****
REMARK                            x       y       z     vdW  Elec       q    Type
REMARK                         _______ _______ _______ _____ _____    ______ ____
ROOT
ATOM      1  C   LIG    1       23.958 -19.621   4.204  0.00  0.00    -0.017 C 
ATOM      2  C   LIG    1       24.070 -18.214   3.989  0.00  0.00    +0.042 C 
ATOM      3  C   LIG    1       25.175 -17.390   3.505  0.00  0.00    +0.169 C 
ATOM      4  C   LIG    1       24.901 -15.876   3.383  0.00  0.00    +0.075 C 
ATOM      5  C   LIG    1       23.805 -15.386   4.361  0.00  0.00    +0.019 C 
ATOM      6  C   LIG    1       22.512 -16.208   4.264  0.00  0.00    +0.055 C 
ATOM      7  O   LIG    1       26.239 -17.883   3.139  0.00  0.00    -0.292 OA
ATOM      8  C   LIG    1       22.861 -17.649   4.336  0.00  0.00    +0.027 C 
ATOM      9  N   LIG    1       22.023 -18.638   4.763  0.00  0.00    -0.361 NA
ATOM     10  H   LIG    1       21.072 -18.507   5.086  0.00  0.00    +0.165 HD
ATOM     11  C   LIG    1       22.672 -19.848   4.684  0.00  0.00    +0.017 C 
ATOM     12  C   LIG    1       21.993 -21.107   5.086  0.00  0.00    +0.063 C 
ENDROOT
BRANCH   1  14
ATOM     13  C   LIG    1       25.954 -20.808   5.151  0.00  0.00    +0.009 C 
ATOM     14  C   LIG    1       25.020 -20.649   3.960  0.00  0.00    +0.034 C 
ENDBRANCH   1  14
BRANCH   4  15
ATOM     15  C   LIG    1       26.233 -15.129   3.596  0.00  0.00    +0.096 C 
BRANCH  15  16
ATOM     16  N   LIG    1       26.150 -13.654   3.592  0.00  0.00    -0.297 NA
ATOM     17  C   LIG    1       26.085 -13.134   4.982  0.00  0.00    +0.112 C 
ATOM     18  C   LIG    1       27.423 -13.204   5.744  0.00  0.00    +0.175 C 
ATOM     19  O   LIG    1       28.474 -12.546   5.025  0.00  0.00    -0.377 OA
ATOM     20  C   LIG    1       28.614 -13.098   3.710  0.00  0.00    +0.175 C 
ATOM     21  C   LIG    1       27.296 -12.997   2.926  0.00  0.00    +0.112 C 
ENDBRANCH  15  16
ENDBRANCH   4  15
TORSDOF 3
ENDMDL
MODEL 2
REMARK VINA RESULT:      -4.3      2.088      6.155
REMARK  Name = *****
REMARK                            x       y       z     vdW  Elec       q    Type
REMARK                         _______ _______ _______ _____ _____    ______ ____
ROOT
ATOM      1  C   LIG    1       25.178 -15.091   3.544  0.00  0.00    -0.017 C 
ATOM      2  C   LIG    1       24.427 -16.262   3.867  0.00  0.00    +0.042 C 
ATOM      3  C   LIG    1       24.748 -17.683   3.759  0.00  0.00    +0.169 C 
ATOM      4  C   LIG    1       23.666 -18.671   4.241  0.00  0.00    +0.075 C 
ATOM      5  C   LIG    1       22.236 -18.086   4.141  0.00  0.00    +0.019 C 
ATOM      6  C   LIG    1       22.105 -16.719   4.827  0.00  0.00    +0.055 C 
ATOM      7  O   LIG    1       25.851 -18.072   3.380  0.00  0.00    -0.292 OA
ATOM      8  C   LIG    1       23.207 -15.844   4.354  0.00  0.00    +0.027 C 
ATOM      9  N   LIG    1       23.172 -14.480   4.333  0.00  0.00    -0.361 NA
ATOM     10  H   LIG    1       22.392 -13.906   4.628  0.00  0.00    +0.165 HD
ATOM     11  C   LIG    1       24.367 -14.003   3.848  0.00  0.00    +0.017 C 
ATOM     12  C   LIG    1       24.609 -12.543   3.716  0.00  0.00    +0.063 C 
ENDROOT
BRANCH   1  14
ATOM     13  C   LIG    1       27.603 -14.686   4.041  0.00  0.00    +0.009 C 
ATOM     14  C   LIG    1       26.568 -15.048   2.986  0.00  0.00    +0.034 C 
ENDBRANCH   1  14
BRANCH   4  15
ATOM     15  C   LIG    1       23.809 -19.973   3.427  0.00  0.00    +0.096 C 
BRANCH  15  16
ATOM     16  N   LIG    1       23.733 -21.228   4.205  0.00  0.00    -0.297 NA
ATOM     17  C   LIG    1       25.064 -21.572   4.766  0.00  0.00    +0.112 C 
ATOM     18  C   LIG    1       25.496 -20.689   5.953  0.00  0.00    +0.175 C 
ATOM     19  O   LIG    1       24.512 -20.689   6.996  0.00  0.00    -0.377 OA
ATOM     20  C   LIG    1       23.237 -20.269   6.493  0.00  0.00    +0.175 C 
ATOM     21  C   LIG    1       22.778 -21.169   5.334  0.00  0.00    +0.112 C 
ENDBRANCH  15  16
ENDBRANCH   4  15
TORSDOF 3
ENDMDL
MODEL 3
REMARK VINA RESULT:      -3.4      1.825      6.382
REMARK  Name = *****
REMARK                            x       y       z     vdW  Elec       q    Type
REMARK                         _______ _______ _______ _____ _____    ______ ____
ROOT
ATOM      1  C   LIG    1       25.521 -14.170   3.054  0.00  0.00    -0.017 C 
ATOM      2  C   LIG    1       24.851 -15.339   3.526  0.00  0.00    +0.042 C 
ATOM      3  C   LIG    1       25.251 -16.744   3.554  0.00  0.00    +0.169 C 
ATOM      4  C   LIG    1       24.245 -17.733   4.179  0.00  0.00    +0.075 C 
ATOM      5  C   LIG    1       22.781 -17.241   4.075  0.00  0.00    +0.019 C 
ATOM      6  C   LIG    1       22.593 -15.817   4.620  0.00  0.00    +0.055 C 
ATOM      7  O   LIG    1       26.361 -17.110   3.174  0.00  0.00    -0.292 OA
ATOM      8  C   LIG    1       23.626 -14.939   4.015  0.00  0.00    +0.027 C 
ATOM      9  N   LIG    1       23.511 -13.589   3.854  0.00  0.00    -0.361 NA
ATOM     10  H   LIG    1       22.709 -13.030   4.119  0.00  0.00    +0.165 HD
ATOM     11  C   LIG    1       24.659 -13.102   3.275  0.00  0.00    +0.017 C 
ATOM     12  C   LIG    1       24.811 -11.653   2.983  0.00  0.00    +0.063 C 
ENDROOT
BRANCH   1  14
ATOM     13  C   LIG    1       27.961 -13.749   3.454  0.00  0.00    +0.009 C 
ATOM     14  C   LIG    1       26.887 -14.110   2.440  0.00  0.00    +0.034 C 
ENDBRANCH   1  14
BRANCH   4  15
ATOM     15  C   LIG    1       24.437 -19.104   3.500  0.00  0.00    +0.096 C 
BRANCH  15  16
ATOM     16  N   LIG    1       23.464 -20.150   3.880  0.00  0.00    -0.297 NA
ATOM     17  C   LIG    1       24.149 -21.456   4.057  0.00  0.00    +0.112 C 
ATOM     18  C   LIG    1       24.986 -21.559   5.347  0.00  0.00    +0.175 C 
ATOM     19  O   LIG    1       24.204 -21.256   6.509  0.00  0.00    -0.377 OA
ATOM     20  C   LIG    1       23.609 -19.958   6.398  0.00  0.00    +0.175 C 
ATOM     21  C   LIG    1       22.737 -19.857   5.136  0.00  0.00    +0.112 C 
ENDBRANCH  15  16
ENDBRANCH   4  15
TORSDOF 3
ENDMDL
MODEL 4
REMARK VINA RESULT:      -2.9      2.207      6.838
REMARK  Name = *****
REMARK                            x       y       z     vdW  Elec       q    Type
REMARK                         _______ _______ _______ _____ _____    ______ ____
ROOT
ATOM      1  C   LIG    1       25.086 -14.441   3.931  0.00  0.00    -0.017 C 
ATOM      2  C   LIG    1       24.892 -15.847   3.777  0.00  0.00    +0.042 C 
ATOM      3  C   LIG    1       23.742 -16.705   4.053  0.00  0.00    +0.169 C 
ATOM      4  C   LIG    1       23.910 -18.204   3.728  0.00  0.00    +0.075 C 
ATOM      5  C   LIG    1       25.386 -18.668   3.793  0.00  0.00    +0.019 C 
ATOM      6  C   LIG    1       26.321 -17.794   2.946  0.00  0.00    +0.055 C 
ATOM      7  O   LIG    1       22.672 -16.248   4.447  0.00  0.00    -0.292 OA
ATOM      8  C   LIG    1       26.065 -16.369   3.276  0.00  0.00    +0.027 C 
ATOM      9  N   LIG    1       26.967 -15.356   3.128  0.00  0.00    -0.361 NA
ATOM     10  H   LIG    1       27.914 -15.455   2.785  0.00  0.00    +0.165 HD
ATOM     11  C   LIG    1       26.386 -14.172   3.517  0.00  0.00    +0.017 C 
ATOM     12  C   LIG    1       27.143 -12.895   3.458  0.00  0.00    +0.063 C 
ENDROOT
BRANCH   1  14
ATOM     13  C   LIG    1       23.840 -12.316   3.458  0.00  0.00    +0.009 C 
ATOM     14  C   LIG    1       24.083 -13.452   4.441  0.00  0.00    +0.034 C 
ENDBRANCH   1  14
BRANCH   4  15
ATOM     15  C   LIG    1       23.014 -19.007   4.693  0.00  0.00    +0.096 C 
BRANCH  15  16
ATOM     16  N   LIG    1       23.096 -20.478   4.571  0.00  0.00    -0.297 NA
ATOM     17  C   LIG    1       24.515 -20.918   4.557  0.00  0.00    +0.112 C 
ATOM     18  C   LIG    1       25.212 -20.846   5.929  0.00  0.00    +0.175 C 
ATOM     19  O   LIG    1       24.485 -21.572   6.929  0.00  0.00    -0.377 OA
ATOM     20  C   LIG    1       23.136 -21.097   7.023  0.00  0.00    +0.175 C 
ATOM     21  C   LIG    1       22.418 -21.203   5.668  0.00  0.00    +0.112 C 
ENDBRANCH  15  16
ENDBRANCH   4  15
TORSDOF 3
ENDMDL
MODEL 5
REMARK VINA RESULT:      -2.9      2.234      3.220
REMARK  Name = *****
REMARK                            x       y       z     vdW  Elec       q    Type
REMARK                         _______ _______ _______ _____ _____    ______ ____
ROOT
ATOM      1  C   LIG    1       23.300 -19.136   4.130  0.00  0.00    -0.017 C 
ATOM      2  C   LIG    1       23.950 -17.869   4.028  0.00  0.00    +0.042 C 
ATOM      3  C   LIG    1       23.480 -16.511   4.291  0.00  0.00    +0.169 C 
ATOM      4  C   LIG    1       24.505 -15.377   4.085  0.00  0.00    +0.075 C 
ATOM      5  C   LIG    1       25.598 -15.740   3.051  0.00  0.00    +0.019 C 
ATOM      6  C   LIG    1       26.285 -17.078   3.359  0.00  0.00    +0.055 C 
ATOM      7  O   LIG    1       22.353 -16.289   4.730  0.00  0.00    -0.292 OA
ATOM      8  C   LIG    1       25.238 -18.104   3.596  0.00  0.00    +0.027 C 
ATOM      9  N   LIG    1       25.402 -19.447   3.418  0.00  0.00    -0.361 NA
ATOM     10  H   LIG    1       26.248 -19.901   3.098  0.00  0.00    +0.165 HD
ATOM     11  C   LIG    1       24.232 -20.093   3.744  0.00  0.00    +0.017 C 
ATOM     12  C   LIG    1       24.124 -21.572   3.645  0.00  0.00    +0.063 C 
ENDROOT
BRANCH   1  14
ATOM     13  C   LIG    1       20.874 -18.916   3.532  0.00  0.00    +0.009 C 
ATOM     14  C   LIG    1       21.888 -19.382   4.566  0.00  0.00    +0.034 C 
ENDBRANCH   1  14
BRANCH   4  15
ATOM     15  C   LIG    1       23.735 -14.103   3.680  0.00  0.00    +0.096 C 
BRANCH  15  16
ATOM     16  N   LIG    1       24.320 -12.826   4.141  0.00  0.00    -0.297 NA
ATOM     17  C   LIG    1       25.784 -12.807   3.893  0.00  0.00    +0.112 C 
ATOM     18  C   LIG    1       26.170 -12.620   2.413  0.00  0.00    +0.175 C 
ATOM     19  O   LIG    1       25.565 -11.447   1.854  0.00  0.00    -0.377 OA
ATOM     20  C   LIG    1       24.140 -11.490   2.001  0.00  0.00    +0.175 C 
ATOM     21  C   LIG    1       23.742 -11.636   3.478  0.00  0.00    +0.112 C 
ENDBRANCH  15  16
ENDBRANCH   4  15
TORSDOF 3
ENDMDL
MODEL 6
REMARK VINA RESULT:      -2.8      0.827      1.347
REMARK  Name = *****
REMARK                            x       y       z     vdW  Elec       q    Type
REMARK                         _______ _______ _______ _____ _____    ______ ____
ROOT
ATOM      1  C   LIG    1       24.236 -19.184   4.122  0.00  0.00    -0.017 C 
ATOM      2  C   LIG    1       24.032 -17.776   3.996  0.00  0.00    +0.042 C 
ATOM      3  C   LIG    1       24.889 -16.713   3.479  0.00  0.00    +0.169 C 
ATOM      4  C   LIG    1       24.295 -15.288   3.485  0.00  0.00    +0.075 C 
ATOM      5  C   LIG    1       23.223 -15.093   4.584  0.00  0.00    +0.019 C 
ATOM      6  C   LIG    1       22.126 -16.166   4.540  0.00  0.00    +0.055 C 
ATOM      7  O   LIG    1       25.991 -16.948   2.990  0.00  0.00    -0.292 OA
ATOM      8  C   LIG    1       22.772 -17.501   4.483  0.00  0.00    +0.027 C 
ATOM      9  N   LIG    1       22.203 -18.666   4.909  0.00  0.00    -0.361 NA
ATOM     10  H   LIG    1       21.283 -18.757   5.320  0.00  0.00    +0.165 HD
ATOM     11  C   LIG    1       23.079 -19.704   4.692  0.00  0.00    +0.017 C 
ATOM     12  C   LIG    1       22.719 -21.097   5.061  0.00  0.00    +0.063 C 
ENDROOT
BRANCH   1  14
ATOM     13  C   LIG    1       26.406 -20.183   4.886  0.00  0.00    +0.009 C 
ATOM     14  C   LIG    1       25.460 -19.948   3.718  0.00  0.00    +0.034 C 
ENDBRANCH   1  14
BRANCH   4  15
ATOM     15  C   LIG    1       25.458 -14.286   3.635  0.00  0.00    +0.096 C 
BRANCH  15  16
ATOM     16  N   LIG    1       26.590 -14.737   4.471  0.00  0.00    -0.297 NA
ATOM     17  C   LIG    1       27.855 -14.701   3.693  0.00  0.00    +0.112 C 
ATOM     18  C   LIG    1       28.407 -13.283   3.451  0.00  0.00    +0.175 C 
ATOM     19  O   LIG    1       28.569 -12.563   4.680  0.00  0.00    -0.377 OA
ATOM     20  C   LIG    1       27.334 -12.506   5.403  0.00  0.00    +0.175 C 
ATOM     21  C   LIG    1       26.795 -13.917   5.686  0.00  0.00    +0.112 C 
ENDBRANCH  15  16
ENDBRANCH   4  15
TORSDOF 3
ENDMDL
MODEL 7
REMARK VINA RESULT:      -2.7      2.494      3.777
REMARK  Name = *****
REMARK                            x       y       z     vdW  Elec       q    Type
REMARK                         _______ _______ _______ _____ _____    ______ ____
ROOT
ATOM      1  C   LIG    1       28.002 -19.436   5.552  0.00  0.00    -0.017 C 
ATOM      2  C   LIG    1       26.974 -18.907   4.715  0.00  0.00    +0.042 C 
ATOM      3  C   LIG    1       26.920 -17.708   3.882  0.00  0.00    +0.169 C 
ATOM      4  C   LIG    1       25.617 -17.482   3.087  0.00  0.00    +0.075 C 
ATOM      5  C   LIG    1       24.386 -18.139   3.758  0.00  0.00    +0.019 C 
ATOM      6  C   LIG    1       24.607 -19.624   4.077  0.00  0.00    +0.055 C 
ATOM      7  O   LIG    1       27.888 -16.961   3.758  0.00  0.00    -0.292 OA
ATOM      8  C   LIG    1       25.899 -19.767   4.793  0.00  0.00    +0.027 C 
ATOM      9  N   LIG    1       26.216 -20.786   5.644  0.00  0.00    -0.361 NA
ATOM     10  H   LIG    1       25.608 -21.557   5.893  0.00  0.00    +0.165 HD
ATOM     11  C   LIG    1       27.496 -20.604   6.112  0.00  0.00    +0.017 C 
ATOM     12  C   LIG    1       28.106 -21.571   7.061  0.00  0.00    +0.063 C 
ENDROOT
BRANCH   1  14
ATOM     13  C   LIG    1       29.424 -18.026   7.062  0.00  0.00    +0.009 C 
ATOM     14  C   LIG    1       29.359 -18.845   5.781  0.00  0.00    +0.034 C 
ENDBRANCH   1  14
BRANCH   4  15
ATOM     15  C   LIG    1       25.425 -15.962   2.904  0.00  0.00    +0.096 C 
BRANCH  15  16
ATOM     16  N   LIG    1       25.214 -15.187   4.145  0.00  0.00    -0.297 NA
ATOM     17  C   LIG    1       26.263 -14.145   4.290  0.00  0.00    +0.112 C 
ATOM     18  C   LIG    1       26.095 -12.945   3.337  0.00  0.00    +0.175 C 
ATOM     19  O   LIG    1       24.796 -12.352   3.460  0.00  0.00    -0.377 OA
ATOM     20  C   LIG    1       23.769 -13.324   3.231  0.00  0.00    +0.175 C 
ATOM     21  C   LIG    1       23.902 -14.507   4.204  0.00  0.00    +0.112 C 
ENDBRANCH  15  16
ENDBRANCH   4  15
TORSDOF 3
ENDMDL
MODEL 8
REMARK VINA RESULT:      -2.6      1.381      1.805
REMARK  Name = *****
REMARK                            x       y       z     vdW  Elec       q    Type
REMARK                         _______ _______ _______ _____ _____    ______ ____
ROOT
ATOM      1  C   LIG    1       23.999 -19.952   4.510  0.00  0.00    -0.017 C 
ATOM      2  C   LIG    1       23.969 -18.562   4.184  0.00  0.00    +0.042 C 
ATOM      3  C   LIG    1       24.997 -17.663   3.668  0.00  0.00    +0.169 C 
ATOM      4  C   LIG    1       24.568 -16.202   3.414  0.00  0.00    +0.075 C 
ATOM      5  C   LIG    1       23.390 -15.760   4.317  0.00  0.00    +0.019 C 
ATOM      6  C   LIG    1       22.197 -16.724   4.249  0.00  0.00    +0.055 C 
ATOM      7  O   LIG    1       26.122 -18.063   3.374  0.00  0.00    -0.292 OA
ATOM      8  C   LIG    1       22.694 -18.108   4.448  0.00  0.00    +0.027 C 
ATOM      9  N   LIG    1       21.951 -19.147   4.929  0.00  0.00    -0.361 NA
ATOM     10  H   LIG    1       20.980 -19.096   5.212  0.00  0.00    +0.165 HD
ATOM     11  C   LIG    1       22.728 -20.281   4.968  0.00  0.00    +0.017 C 
ATOM     12  C   LIG    1       22.172 -21.571   5.451  0.00  0.00    +0.063 C 
ENDROOT
BRANCH   1  14
ATOM     13  C   LIG    1       26.062 -20.853   5.617  0.00  0.00    +0.009 C 
ATOM     14  C   LIG    1       25.174 -20.874   4.382  0.00  0.00    +0.034 C 
ENDBRANCH   1  14
BRANCH   4  15
ATOM     15  C   LIG    1       25.805 -15.300   3.605  0.00  0.00    +0.096 C 
BRANCH  15  16
ATOM     16  N   LIG    1       25.546 -13.977   4.212  0.00  0.00    -0.297 NA
ATOM     17  C   LIG    1       26.669 -13.048   3.926  0.00  0.00    +0.112 C 
ATOM     18  C   LIG    1       26.711 -12.537   2.473  0.00  0.00    +0.175 C 
ATOM     19  O   LIG    1       25.469 -11.934   2.090  0.00  0.00    -0.377 OA
ATOM     20  C   LIG    1       24.382 -12.849   2.271  0.00  0.00    +0.175 C 
ATOM     21  C   LIG    1       24.305 -13.334   3.727  0.00  0.00    +0.112 C 
ENDBRANCH  15  16
ENDBRANCH   4  15
TORSDOF 3
ENDMDL
MODEL 9
REMARK VINA RESULT:      -2.0      2.109      3.096
REMARK  Name = *****
REMARK                            x       y       z     vdW  Elec       q    Type
REMARK                         _______ _______ _______ _____ _____    ______ ____
ROOT
ATOM      1  C   LIG    1       23.401 -19.025   4.276  0.00  0.00    -0.017 C 
ATOM      2  C   LIG    1       24.066 -17.779   4.063  0.00  0.00    +0.042 C 
ATOM      3  C   LIG    1       23.608 -16.399   4.199  0.00  0.00    +0.169 C 
ATOM      4  C   LIG    1       24.646 -15.298   3.898  0.00  0.00    +0.075 C 
ATOM      5  C   LIG    1       25.742 -15.764   2.909  0.00  0.00    +0.019 C 
ATOM      6  C   LIG    1       26.412 -17.076   3.342  0.00  0.00    +0.055 C 
ATOM      7  O   LIG    1       22.481 -16.126   4.608  0.00  0.00    -0.292 OA
ATOM      8  C   LIG    1       25.354 -18.065   3.664  0.00  0.00    +0.027 C 
ATOM      9  N   LIG    1       25.504 -19.420   3.610  0.00  0.00    -0.361 NA
ATOM     10  H   LIG    1       26.348 -19.909   3.339  0.00  0.00    +0.165 HD
ATOM     11  C   LIG    1       24.326 -20.022   3.986  0.00  0.00    +0.017 C 
ATOM     12  C   LIG    1       24.203 -21.503   4.021  0.00  0.00    +0.063 C 
ENDROOT
BRANCH   1  14
ATOM     13  C   LIG    1       20.983 -18.893   3.624  0.00  0.00    +0.009 C 
ATOM     14  C   LIG    1       21.985 -19.217   4.723  0.00  0.00    +0.034 C 
ENDBRANCH   1  14
BRANCH   4  15
ATOM     15  C   LIG    1       23.892 -14.059   3.373  0.00  0.00    +0.096 C 
BRANCH  15  16
ATOM     16  N   LIG    1       24.690 -12.819   3.266  0.00  0.00    -0.297 NA
ATOM     17  C   LIG    1       23.850 -11.633   3.575  0.00  0.00    +0.112 C 
ATOM     18  C   LIG    1       23.519 -11.467   5.071  0.00  0.00    +0.175 C 
ATOM     19  O   LIG    1       24.706 -11.447   5.874  0.00  0.00    -0.377 OA
ATOM     20  C   LIG    1       25.486 -12.630   5.659  0.00  0.00    +0.175 C 
ATOM     21  C   LIG    1       25.857 -12.784   4.176  0.00  0.00    +0.112 C 
ENDBRANCH  15  16
ENDBRANCH   4  15
TORSDOF 3
ENDMDL
