MODEL 1
REMARK VINA RESULT:      -5.5      0.000      0.000
REMARK  Name = *****
REMARK                            x       y       z     vdW  Elec       q    Type
REMARK                         _______ _______ _______ _____ _____    ______ ____
ROOT
ATOM      1  CA  ASP A  1       30.699 -17.222   9.213  0.00  0.00    +0.171 C 
ENDROOT
BRANCH   1   2
ATOM      2  N   ASP A  1       32.132 -16.920   8.907  0.00  0.00    -0.318 NA
ATOM      3  H1  ASP A  1       32.730 -17.545   9.464  0.00  0.00    +0.119 HD
ATOM      4  H2  ASP A  1       32.331 -17.189   7.938  0.00  0.00    +0.119 HD
ENDBRANCH   1   2
BRANCH   1   5
ATOM      5  C   ASP A  1       30.578 -17.201  10.749  0.00  0.00    +0.322 C 
ATOM      6  O   ASP A  1       30.391 -16.206  11.418  0.00  0.00    -0.249 OA
BRANCH   5   7
ATOM      7  OXT ASP A  1       30.705 -18.443  11.273  0.00  0.00    -0.479 OA
ATOM      8  HXT ASP A  1       31.602 -18.781  11.028  0.00  0.00    +0.295 HD
ENDBRANCH   5   7
ENDBRANCH   1   5
BRANCH   1   9
ATOM      9  CB  ASP A  1       30.264 -18.554   8.605  0.00  0.00    +0.150 C 
BRANCH   9  10
ATOM     10  CG  ASP A  1       31.371 -19.506   8.196  0.00  0.00    +0.307 C 
ATOM     11  OD1 ASP A  1       31.717 -19.626   7.025  0.00  0.00    -0.251 OA
BRANCH  10  12
ATOM     12  OD2 ASP A  1       32.028 -20.146   9.174  0.00  0.00    -0.481 OA
ATOM     13  HD2 ASP A  1       32.622 -20.897   8.921  0.00  0.00    +0.295 HD
ENDBRANCH  10  12
ENDBRANCH   9  10
ENDBRANCH   1   9
TORSDOF 6
ENDMDL
MODEL 2
REMARK VINA RESULT:      -5.3      2.171      2.954
REMARK  Name = *****
REMARK                            x       y       z     vdW  Elec       q    Type
REMARK                         _______ _______ _______ _____ _____    ______ ____
ROOT
ATOM      1  CA  ASP A  1       30.526 -19.729   7.973  0.00  0.00    +0.171 C 
ENDROOT
BRANCH   1   2
ATOM      2  N   ASP A  1       31.708 -19.713   7.055  0.00  0.00    -0.318 NA
ATOM      3  H1  ASP A  1       32.466 -19.178   7.498  0.00  0.00    +0.119 HD
ATOM      4  H2  ASP A  1       32.087 -20.663   6.983  0.00  0.00    +0.119 HD
ENDBRANCH   1   2
BRANCH   1   5
ATOM      5  C   ASP A  1       30.944 -18.925   9.218  0.00  0.00    +0.322 C 
ATOM      6  O   ASP A  1       32.086 -18.786   9.606  0.00  0.00    -0.249 OA
BRANCH   5   7
ATOM      7  OXT ASP A  1       29.871 -18.379   9.840  0.00  0.00    -0.479 OA
ATOM      8  HXT ASP A  1       30.210 -17.778  10.548  0.00  0.00    +0.295 HD
ENDBRANCH   5   7
ENDBRANCH   1   5
BRANCH   1   9
ATOM      9  CB  ASP A  1       30.095 -21.155   8.309  0.00  0.00    +0.150 C 
BRANCH   9  10
ATOM     10  CG  ASP A  1       31.051 -21.969   9.160  0.00  0.00    +0.307 C 
ATOM     11  OD1 ASP A  1       30.766 -22.308  10.304  0.00  0.00    -0.251 OA
BRANCH  10  12
ATOM     12  OD2 ASP A  1       32.187 -22.389   8.584  0.00  0.00    -0.481 OA
ATOM     13  HD2 ASP A  1       32.611 -21.800   7.910  0.00  0.00    +0.295 HD
ENDBRANCH  10  12
ENDBRANCH   9  10
ENDBRANCH   1   9
TORSDOF 6
ENDMDL
MODEL 3
REMARK VINA RESULT:      -5.2      2.023      3.709
REMARK  Name = *****
REMARK                            x       y       z     vdW  Elec       q    Type
REMARK                         _______ _______ _______ _____ _____    ______ ____
ROOT
ATOM      1  CA  ASP A  1       30.780 -18.895   8.917  0.00  0.00    +0.171 C 
ENDROOT
BRANCH   1   2
ATOM      2  N   ASP A  1       31.948 -19.715   9.365  0.00  0.00    -0.318 NA
ATOM      3  H1  ASP A  1       31.828 -19.950  10.359  0.00  0.00    +0.119 HD
ATOM      4  H2  ASP A  1       31.919 -20.624   8.893  0.00  0.00    +0.119 HD
ENDBRANCH   1   2
BRANCH   1   5
ATOM      5  C   ASP A  1       30.798 -18.936   7.377  0.00  0.00    +0.322 C 
ATOM      6  O   ASP A  1       30.100 -18.254   6.655  0.00  0.00    -0.249 OA
BRANCH   5   7
ATOM      7  OXT ASP A  1       31.700 -19.835   6.915  0.00  0.00    -0.479 OA
ATOM      8  HXT ASP A  1       31.282 -20.730   6.966  0.00  0.00    +0.295 HD
ENDBRANCH   5   7
ENDBRANCH   1   5
BRANCH   1   9
ATOM      9  CB  ASP A  1       30.848 -17.472   9.470  0.00  0.00    +0.150 C 
BRANCH   9  10
ATOM     10  CG  ASP A  1       32.234 -16.891   9.676  0.00  0.00    +0.307 C 
ATOM     11  OD1 ASP A  1       32.941 -17.232  10.619  0.00  0.00    -0.251 OA
BRANCH  10  12
ATOM     12  OD2 ASP A  1       32.701 -16.057   8.736  0.00  0.00    -0.481 OA
ATOM     13  HD2 ASP A  1       33.530 -15.553   8.932  0.00  0.00    +0.295 HD
ENDBRANCH  10  12
ENDBRANCH   9  10
ENDBRANCH   1   9
TORSDOF 6
ENDMDL
MODEL 4
REMARK VINA RESULT:      -5.1      1.172      3.752
REMARK  Name = *****
REMARK                            x       y       z     vdW  Elec       q    Type
REMARK                         _______ _______ _______ _____ _____    ______ ____
ROOT
ATOM      1  CA  ASP A  1       30.579 -18.305   8.407  0.00  0.00    +0.171 C 
ENDROOT
BRANCH   1   2
ATOM      2  N   ASP A  1       29.297 -18.858   8.945  0.00  0.00    -0.318 NA
ATOM      3  H1  ASP A  1       29.310 -19.882   8.851  0.00  0.00    +0.119 HD
ATOM      4  H2  ASP A  1       29.267 -18.705   9.958  0.00  0.00    +0.119 HD
ENDBRANCH   1   2
BRANCH   1   5
ATOM      5  C   ASP A  1       31.536 -19.505   8.272  0.00  0.00    +0.322 C 
ATOM      6  O   ASP A  1       32.083 -20.067   9.198  0.00  0.00    -0.249 OA
BRANCH   5   7
ATOM      7  OXT ASP A  1       31.696 -19.868   6.977  0.00  0.00    -0.479 OA
ATOM      8  HXT ASP A  1       31.301 -20.768   6.868  0.00  0.00    +0.295 HD
ENDBRANCH   5   7
ENDBRANCH   1   5
BRANCH   1   9
ATOM      9  CB  ASP A  1       31.137 -17.204   9.306  0.00  0.00    +0.150 C 
BRANCH   9  10
ATOM     10  CG  ASP A  1       30.735 -17.254  10.767  0.00  0.00    +0.307 C 
ATOM     11  OD1 ASP A  1       30.325 -16.260  11.357  0.00  0.00    -0.251 OA
BRANCH  10  12
ATOM     12  OD2 ASP A  1       30.754 -18.451  11.373  0.00  0.00    -0.481 OA
ATOM     13  HD2 ASP A  1       30.008 -19.075  11.191  0.00  0.00    +0.295 HD
ENDBRANCH  10  12
ENDBRANCH   9  10
ENDBRANCH   1   9
TORSDOF 6
ENDMDL
MODEL 5
REMARK VINA RESULT:      -5.1      2.063      3.614
REMARK  Name = *****
REMARK                            x       y       z     vdW  Elec       q    Type
REMARK                         _______ _______ _______ _____ _____    ______ ____
ROOT
ATOM      1  CA  ASP A  1       30.648 -19.421   8.290  0.00  0.00    +0.171 C 
ENDROOT
BRANCH   1   2
ATOM      2  N   ASP A  1       29.690 -18.821   9.269  0.00  0.00    -0.318 NA
ATOM      3  H1  ASP A  1       29.693 -19.386  10.128  0.00  0.00    +0.119 HD
ATOM      4  H2  ASP A  1       30.049 -17.910   9.574  0.00  0.00    +0.119 HD
ENDBRANCH   1   2
BRANCH   1   5
ATOM      5  C   ASP A  1       31.067 -20.780   8.883  0.00  0.00    +0.322 C 
ATOM      6  O   ASP A  1       32.188 -21.062   9.253  0.00  0.00    -0.249 OA
BRANCH   5   7
ATOM      7  OXT ASP A  1       30.020 -21.636   8.948  0.00  0.00    -0.479 OA
ATOM      8  HXT ASP A  1       30.322 -22.441   9.437  0.00  0.00    +0.295 HD
ENDBRANCH   5   7
ENDBRANCH   1   5
BRANCH   1   9
ATOM      9  CB  ASP A  1       31.838 -18.498   8.032  0.00  0.00    +0.150 C 
BRANCH   9  10
ATOM     10  CG  ASP A  1       32.179 -17.509   9.130  0.00  0.00    +0.307 C 
ATOM     11  OD1 ASP A  1       32.266 -17.855  10.303  0.00  0.00    -0.251 OA
BRANCH  10  12
ATOM     12  OD2 ASP A  1       32.478 -16.255   8.761  0.00  0.00    -0.481 OA
ATOM     13  HD2 ASP A  1       31.800 -15.748   8.248  0.00  0.00    +0.295 HD
ENDBRANCH  10  12
ENDBRANCH   9  10
ENDBRANCH   1   9
TORSDOF 6
ENDMDL
MODEL 6
REMARK VINA RESULT:      -5.0      2.318      2.697
REMARK  Name = *****
REMARK                            x       y       z     vdW  Elec       q    Type
REMARK                         _______ _______ _______ _____ _____    ______ ____
ROOT
ATOM      1  CA  ASP A  1       31.680 -18.578   8.407  0.00  0.00    +0.171 C 
ENDROOT
BRANCH   1   2
ATOM      2  N   ASP A  1       31.955 -19.888   9.075  0.00  0.00    -0.318 NA
ATOM      3  H1  ASP A  1       32.242 -20.572   8.363  0.00  0.00    +0.119 HD
ATOM      4  H2  ASP A  1       32.783 -19.792   9.671  0.00  0.00    +0.119 HD
ENDBRANCH   1   2
BRANCH   1   5
ATOM      5  C   ASP A  1       32.215 -17.493   9.361  0.00  0.00    +0.322 C 
ATOM      6  O   ASP A  1       32.372 -17.634  10.556  0.00  0.00    -0.249 OA
BRANCH   5   7
ATOM      7  OXT ASP A  1       32.497 -16.345   8.699  0.00  0.00    -0.479 OA
ATOM      8  HXT ASP A  1       32.209 -16.464   7.760  0.00  0.00    +0.295 HD
ENDBRANCH   5   7
ENDBRANCH   1   5
BRANCH   1   9
ATOM      9  CB  ASP A  1       30.195 -18.407   8.094  0.00  0.00    +0.150 C 
BRANCH   9  10
ATOM     10  CG  ASP A  1       29.412 -19.676   7.813  0.00  0.00    +0.307 C 
ATOM     11  OD1 ASP A  1       28.330 -19.896   8.347  0.00  0.00    -0.251 OA
BRANCH  10  12
ATOM     12  OD2 ASP A  1       29.901 -20.511   6.884  0.00  0.00    -0.481 OA
ATOM     13  HD2 ASP A  1       29.490 -20.496   5.984  0.00  0.00    +0.295 HD
ENDBRANCH  10  12
ENDBRANCH   9  10
ENDBRANCH   1   9
TORSDOF 6
ENDMDL
MODEL 7
REMARK VINA RESULT:      -5.0      1.764      3.700
REMARK  Name = *****
REMARK                            x       y       z     vdW  Elec       q    Type
REMARK                         _______ _______ _______ _____ _____    ______ ____
ROOT
ATOM      1  CA  ASP A  1       31.331 -19.550   8.430  0.00  0.00    +0.171 C 
ENDROOT
BRANCH   1   2
ATOM      2  N   ASP A  1       31.537 -19.684   6.955  0.00  0.00    -0.318 NA
ATOM      3  H1  ASP A  1       32.051 -20.555   6.768  0.00  0.00    +0.119 HD
ATOM      4  H2  ASP A  1       30.630 -19.833   6.503  0.00  0.00    +0.119 HD
ENDBRANCH   1   2
BRANCH   1   5
ATOM      5  C   ASP A  1       31.078 -20.976   8.956  0.00  0.00    +0.322 C 
ATOM      6  O   ASP A  1       30.020 -21.566   8.883  0.00  0.00    -0.249 OA
BRANCH   5   7
ATOM      7  OXT ASP A  1       32.192 -21.504   9.516  0.00  0.00    -0.479 OA
ATOM      8  HXT ASP A  1       32.255 -21.156  10.440  0.00  0.00    +0.295 HD
ENDBRANCH   5   7
ENDBRANCH   1   5
BRANCH   1   9
ATOM      9  CB  ASP A  1       30.187 -18.590   8.753  0.00  0.00    +0.150 C 
BRANCH   9  10
ATOM     10  CG  ASP A  1       30.340 -17.753  10.008  0.00  0.00    +0.307 C 
ATOM     11  OD1 ASP A  1       30.150 -16.541  10.001  0.00  0.00    -0.251 OA
BRANCH  10  12
ATOM     12  OD2 ASP A  1       30.598 -18.399  11.155  0.00  0.00    -0.481 OA
ATOM     13  HD2 ASP A  1       31.370 -19.019  11.175  0.00  0.00    +0.295 HD
ENDBRANCH  10  12
ENDBRANCH   9  10
ENDBRANCH   1   9
TORSDOF 6
ENDMDL
MODEL 8
REMARK VINA RESULT:      -5.0      2.447      4.088
REMARK  Name = *****
REMARK                            x       y       z     vdW  Elec       q    Type
REMARK                         _______ _______ _______ _____ _____    ______ ____
ROOT
ATOM      1  CA  ASP A  1       30.153 -19.470   7.556  0.00  0.00    +0.171 C 
ENDROOT
BRANCH   1   2
ATOM      2  N   ASP A  1       31.513 -19.953   7.163  0.00  0.00    -0.318 NA
ATOM      3  H1  ASP A  1       31.544 -20.065   6.141  0.00  0.00    +0.119 HD
ATOM      4  H2  ASP A  1       32.197 -19.213   7.349  0.00  0.00    +0.119 HD
ENDBRANCH   1   2
BRANCH   1   5
ATOM      5  C   ASP A  1       29.427 -19.126   6.242  0.00  0.00    +0.322 C 
ATOM      6  O   ASP A  1       28.436 -19.689   5.826  0.00  0.00    -0.249 OA
BRANCH   5   7
ATOM      7  OXT ASP A  1       30.033 -18.101   5.594  0.00  0.00    -0.479 OA
ATOM      8  HXT ASP A  1       30.190 -17.382   6.254  0.00  0.00    +0.295 HD
ENDBRANCH   5   7
ENDBRANCH   1   5
BRANCH   1   9
ATOM      9  CB  ASP A  1       30.234 -18.282   8.514  0.00  0.00    +0.150 C 
BRANCH   9  10
ATOM     10  CG  ASP A  1       31.613 -17.921   9.029  0.00  0.00    +0.307 C 
ATOM     11  OD1 ASP A  1       32.079 -18.439  10.039  0.00  0.00    -0.251 OA
BRANCH  10  12
ATOM     12  OD2 ASP A  1       32.350 -17.082   8.287  0.00  0.00    -0.481 OA
ATOM     13  HD2 ASP A  1       32.240 -17.111   7.304  0.00  0.00    +0.295 HD
ENDBRANCH  10  12
ENDBRANCH   9  10
ENDBRANCH   1   9
TORSDOF 6
ENDMDL
MODEL 9
REMARK VINA RESULT:      -4.9      3.004      3.636
REMARK  Name = *****
REMARK                            x       y       z     vdW  Elec       q    Type
REMARK                         _______ _______ _______ _____ _____    ______ ____
ROOT
ATOM      1  CA  ASP A  1       31.004 -19.493   8.706  0.00  0.00    +0.171 C 
ENDROOT
BRANCH   1   2
ATOM      2  N   ASP A  1       32.024 -18.783   9.539  0.00  0.00    -0.318 NA
ATOM      3  H1  ASP A  1       31.628 -18.604  10.471  0.00  0.00    +0.119 HD
ATOM      4  H2  ASP A  1       32.806 -19.419   9.723  0.00  0.00    +0.119 HD
ENDBRANCH   1   2
BRANCH   1   5
ATOM      5  C   ASP A  1       31.163 -20.992   9.025  0.00  0.00    +0.322 C 
ATOM      6  O   ASP A  1       32.182 -21.513   9.428  0.00  0.00    -0.249 OA
BRANCH   5   7
ATOM      7  OXT ASP A  1       30.013 -21.671   8.801  0.00  0.00    -0.479 OA
ATOM      8  HXT ASP A  1       29.533 -21.213   8.067  0.00  0.00    +0.295 HD
ENDBRANCH   5   7
ENDBRANCH   1   5
BRANCH   1   9
ATOM      9  CB  ASP A  1       31.178 -19.184   7.220  0.00  0.00    +0.150 C 
BRANCH   9  10
ATOM     10  CG  ASP A  1       29.907 -19.031   6.407  0.00  0.00    +0.307 C 
ATOM     11  OD1 ASP A  1       28.882 -19.639   6.694  0.00  0.00    -0.251 OA
BRANCH  10  12
ATOM     12  OD2 ASP A  1       29.914 -18.131   5.413  0.00  0.00    -0.481 OA
ATOM     13  HD2 ASP A  1       30.383 -17.272   5.566  0.00  0.00    +0.295 HD
ENDBRANCH  10  12
ENDBRANCH   9  10
ENDBRANCH   1   9
TORSDOF 6
ENDMDL
