MODEL 1
REMARK VINA RESULT:       6.6      0.000      0.000
REMARK  Name = *****
REMARK                            x       y       z     vdW  Elec       q    Type
REMARK                         _______ _______ _______ _____ _____    ______ ____
ROOT
ATOM      1  C   LIG    1       23.428 -21.247   3.033  0.00  0.00    +0.042 C 
ATOM      2  C   LIG    1       23.161 -20.542   4.368  0.00  0.00    +0.069 C 
ATOM      3  C   LIG    1       24.161 -19.380   4.719  0.00  0.00    -0.000 C 
ATOM      4  C   LIG    1       24.242 -19.230   6.282  0.00  0.00    +0.014 C 
ATOM      5  C   LIG    1       23.434 -18.089   4.162  0.00  0.00    +0.001 C 
ATOM      6  C   LIG    1       24.188 -17.007   3.316  0.00  0.00    -0.004 C 
ATOM      7  C   LIG    1       25.945 -17.477   2.921  0.00  0.00    +0.002 C 
ATOM      8  C   LIG    1       26.046 -19.007   2.931  0.00  0.00    +0.005 C 
ATOM      9  C   LIG    1       27.165 -16.595   3.973  0.00  0.00    +0.009 C 
ATOM     10  C   LIG    1       28.394 -17.338   4.408  0.00  0.00    +0.015 C 
ATOM     11  C   LIG    1       27.041 -14.887   4.694  0.00  0.00    +0.009 C 
ATOM     12  C   LIG    1       27.510 -14.026   3.570  0.00  0.00    +0.124 C 
ATOM     13  C   LIG    1       26.339 -14.322   2.746  0.00  0.00    +0.307 C 
ATOM     14  O   LIG    1       25.912 -13.647   1.812  0.00  0.00    -0.251 OA
ATOM     15  O   LIG    1       25.719 -15.443   3.265  0.00  0.00    -0.464 OA
ATOM     16  C   LIG    1       25.200 -14.454   5.082  0.00  0.00    +0.005 C 
ATOM     17  C   LIG    1       26.032 -16.511   4.753  0.00  0.00    +0.239 C 
ATOM     18  C   LIG    1       23.876 -15.398   4.187  0.00  0.00    +0.004 C 
ATOM     19  C   LIG    1       22.109 -18.560   3.543  0.00  0.00    +0.007 C 
ATOM     20  C   LIG    1       25.619 -19.648   4.247  0.00  0.00    +0.010 C 
ATOM     21  C   LIG    1       21.801 -19.831   4.320  0.00  0.00    +0.035 C 
ENDROOT
BRANCH   2  22
ATOM     22  O   LIG    1       23.156 -21.572   5.354  0.00  0.00    -0.388 OA
ATOM     23  H   LIG    1       23.656 -21.268   6.130  0.00  0.00    +0.210 HD
ENDBRANCH   2  22
TORSDOF 1
ENDMDL
MODEL 2
REMARK VINA RESULT:       8.5      1.515      5.822
REMARK  Name = *****
REMARK                            x       y       z     vdW  Elec       q    Type
REMARK                         _______ _______ _______ _____ _____    ______ ____
ROOT
ATOM      1  C   LIG    1       26.833 -13.257   4.481  0.00  0.00    +0.042 C 
ATOM      2  C   LIG    1       25.578 -13.224   3.602  0.00  0.00    +0.069 C 
ATOM      3  C   LIG    1       25.026 -14.634   3.175  0.00  0.00    -0.000 C 
ATOM      4  C   LIG    1       24.255 -14.489   1.812  0.00  0.00    +0.014 C 
ATOM      5  C   LIG    1       23.950 -14.960   4.289  0.00  0.00    +0.001 C 
ATOM      6  C   LIG    1       23.875 -16.360   4.990  0.00  0.00    -0.004 C 
ATOM      7  C   LIG    1       25.252 -17.507   4.489  0.00  0.00    +0.002 C 
ATOM      8  C   LIG    1       26.450 -16.656   4.053  0.00  0.00    +0.005 C 
ATOM      9  C   LIG    1       24.705 -18.783   3.287  0.00  0.00    +0.009 C 
ATOM     10  C   LIG    1       25.663 -19.199   2.211  0.00  0.00    +0.015 C 
ATOM     11  C   LIG    1       23.035 -19.585   3.140  0.00  0.00    +0.009 C 
ATOM     12  C   LIG    1       23.112 -20.683   4.146  0.00  0.00    +0.124 C 
ATOM     13  C   LIG    1       23.139 -19.756   5.277  0.00  0.00    +0.307 C 
ATOM     14  O   LIG    1       22.841 -20.013   6.441  0.00  0.00    -0.251 OA
ATOM     15  O   LIG    1       23.455 -18.499   4.796  0.00  0.00    -0.464 OA
ATOM     16  C   LIG    1       21.649 -18.352   3.672  0.00  0.00    +0.005 C 
ATOM     17  C   LIG    1       23.748 -17.810   3.095  0.00  0.00    +0.239 C 
ATOM     18  C   LIG    1       22.122 -16.927   4.764  0.00  0.00    +0.004 C 
ATOM     19  C   LIG    1       23.943 -13.770   5.260  0.00  0.00    +0.007 C 
ATOM     20  C   LIG    1       26.141 -15.687   2.916  0.00  0.00    +0.010 C 
ATOM     21  C   LIG    1       24.408 -12.614   4.386  0.00  0.00    +0.035 C 
ENDROOT
BRANCH   2  22
ATOM     22  O   LIG    1       25.913 -12.409   2.482  0.00  0.00    -0.388 OA
ATOM     23  H   LIG    1       26.373 -11.613   2.797  0.00  0.00    +0.210 HD
ENDBRANCH   2  22
TORSDOF 1
ENDMDL
MODEL 3
REMARK VINA RESULT:       8.8      1.761      5.829
REMARK  Name = *****
REMARK                            x       y       z     vdW  Elec       q    Type
REMARK                         _______ _______ _______ _____ _____    ______ ____
ROOT
ATOM      1  C   LIG    1       24.181 -12.805   2.616  0.00  0.00    +0.042 C 
ATOM      2  C   LIG    1       25.159 -13.199   3.728  0.00  0.00    +0.069 C 
ATOM      3  C   LIG    1       24.907 -14.616   4.366  0.00  0.00    -0.000 C 
ATOM      4  C   LIG    1       25.447 -14.614   5.843  0.00  0.00    +0.014 C 
ATOM      5  C   LIG    1       25.849 -15.569   3.524  0.00  0.00    +0.001 C 
ATOM      6  C   LIG    1       25.352 -16.946   2.962  0.00  0.00    -0.004 C 
ATOM      7  C   LIG    1       23.540 -17.248   3.255  0.00  0.00    +0.002 C 
ATOM      8  C   LIG    1       22.839 -15.889   3.370  0.00  0.00    +0.005 C 
ATOM      9  C   LIG    1       23.234 -18.418   4.637  0.00  0.00    +0.009 C 
ATOM     10  C   LIG    1       22.048 -18.174   5.522  0.00  0.00    +0.015 C 
ATOM     11  C   LIG    1       24.282 -19.852   5.184  0.00  0.00    +0.009 C 
ATOM     12  C   LIG    1       23.840 -20.944   4.270  0.00  0.00    +0.124 C 
ATOM     13  C   LIG    1       24.421 -20.304   3.091  0.00  0.00    +0.307 C 
ATOM     14  O   LIG    1       24.728 -20.854   2.036  0.00  0.00    -0.251 OA
ATOM     15  O   LIG    1       24.674 -18.980   3.400  0.00  0.00    -0.464 OA
ATOM     16  C   LIG    1       26.148 -19.483   4.856  0.00  0.00    +0.005 C 
ATOM     17  C   LIG    1       24.498 -17.966   4.947  0.00  0.00    +0.239 C 
ATOM     18  C   LIG    1       26.572 -18.198   3.586  0.00  0.00    +0.004 C 
ATOM     19  C   LIG    1       26.561 -14.687   2.488  0.00  0.00    +0.007 C 
ATOM     20  C   LIG    1       23.401 -14.993   4.469  0.00  0.00    +0.010 C 
ATOM     21  C   LIG    1       26.579 -13.321   3.157  0.00  0.00    +0.035 C 
ENDROOT
BRANCH   2  22
ATOM     22  O   LIG    1       25.092 -12.150   4.691  0.00  0.00    -0.388 OA
ATOM     23  H   LIG    1       25.471 -11.343   4.305  0.00  0.00    +0.210 HD
ENDBRANCH   2  22
TORSDOF 1
ENDMDL
