MODEL 1
REMARK VINA RESULT:      -6.7      0.000      0.000
REMARK  Name = *****
REMARK                            x       y       z     vdW  Elec       q    Type
REMARK                         _______ _______ _______ _____ _____    ______ ____
ROOT
ATOM      1  C   LIG    1       20.769 -25.924  15.500  0.00  0.00    +0.010 C 
ATOM      2  C   LIG    1       21.096 -27.426  15.377  0.00  0.00    +0.021 C 
ATOM      3  C   LIG    1       20.370 -28.133  14.184  0.00  0.00    +0.097 C 
ATOM      4  C   LIG    1       21.038 -27.637  12.881  0.00  0.00    +0.038 C 
ATOM      5  C   LIG    1       22.554 -27.809  12.855  0.00  0.00    +0.086 C 
ATOM      6  N   LIG    1       23.261 -27.261  14.016  0.00  0.00    -0.299 NA
ATOM      7  C   LIG    1       22.632 -27.612  15.301  0.00  0.00    +0.089 C 
ENDROOT
BRANCH   3   8
ATOM      8  C   LIG    1       18.845 -27.854  14.214  0.00  0.00    -0.030 A 
ATOM      9  C   LIG    1       18.309 -26.562  14.059  0.00  0.00    +0.005 A 
ATOM     10  C   LIG    1       16.930 -26.337  14.071  0.00  0.00    +0.000 A 
ATOM     11  C   LIG    1       16.050 -27.400  14.231  0.00  0.00    +0.000 A 
ATOM     12  C   LIG    1       16.552 -28.685  14.411  0.00  0.00    +0.000 A 
ATOM     13  C   LIG    1       17.933 -28.911  14.411  0.00  0.00    +0.005 A 
ENDBRANCH   3   8
BRANCH   6  14
ATOM     14  C   LIG    1       24.718 -27.628  13.987  0.00  0.00    +0.057 C 
ATOM     15  C   LIG    1       25.489 -26.813  12.924  0.00  0.00    +0.021 C 
ATOM     16  C   LIG    1       26.861 -27.373  12.555  0.00  0.00    +0.028 C 
ATOM     17  C   LIG    1       26.803 -28.859  12.122  0.00  0.00    +0.082 C 
ATOM     18  C   LIG    1       26.299 -29.610  13.384  0.00  0.00    +0.028 C 
ATOM     19  C   LIG    1       24.908 -29.158  13.833  0.00  0.00    +0.021 C 
BRANCH  17  20
ATOM     20  C   LIG    1       25.959 -29.120  10.852  0.00  0.00    -0.027 A 
ATOM     21  C   LIG    1       26.356 -28.632   9.588  0.00  0.00    +0.008 A 
ATOM     22  C   LIG    1       25.603 -28.881   8.436  0.00  0.00    +0.039 A 
ATOM     23  C   LIG    1       24.454 -29.649   8.523  0.00  0.00    +0.123 A 
ATOM     24  F   LIG    1       23.739 -29.901   7.418  0.00  0.00    -0.205 F 
ATOM     25  C   LIG    1       24.044 -30.170   9.740  0.00  0.00    +0.039 A 
ATOM     26  C   LIG    1       24.793 -29.913  10.895  0.00  0.00    +0.008 A 
ENDBRANCH  17  20
BRANCH  17  27
ATOM     27  C   LIG    1       28.192 -29.304  11.857  0.00  0.00    +0.074 C 
ATOM     28  N   LIG    1       29.294 -29.665  11.670  0.00  0.00    -0.196 NA
ENDBRANCH  17  27
ENDBRANCH   6  14
BRANCH   3  29
ATOM     29  C   LIG    1       20.592 -29.672  14.280  0.00  0.00    +0.316 C 
ATOM     30  O   LIG    1       20.888 -30.277  15.302  0.00  0.00    -0.250 OA
BRANCH  29  31
ATOM     31  O   LIG    1       20.425 -30.345  13.114  0.00  0.00    -0.480 OA
ATOM     32  H   LIG    1       19.851 -29.894  12.467  0.00  0.00    +0.295 HD
ENDBRANCH  29  31
ENDBRANCH   3  29
TORSDOF 6
ENDMDL
MODEL 2
REMARK VINA RESULT:      -6.4      3.321      7.710
REMARK  Name = *****
REMARK                            x       y       z     vdW  Elec       q    Type
REMARK                         _______ _______ _______ _____ _____    ______ ____
ROOT
ATOM      1  C   LIG    1       25.227 -29.643   6.411  0.00  0.00    +0.010 C 
ATOM      2  C   LIG    1       24.743 -30.366   7.684  0.00  0.00    +0.021 C 
ATOM      3  C   LIG    1       25.058 -31.900   7.695  0.00  0.00    +0.097 C 
ATOM      4  C   LIG    1       26.582 -32.054   7.899  0.00  0.00    +0.038 C 
ATOM      5  C   LIG    1       27.124 -31.317   9.120  0.00  0.00    +0.086 C 
ATOM      6  N   LIG    1       26.752 -29.901   9.205  0.00  0.00    -0.299 NA
ATOM      7  C   LIG    1       25.326 -29.656   8.931  0.00  0.00    +0.089 C 
ENDROOT
BRANCH   3   8
ATOM      8  C   LIG    1       24.559 -32.581   6.395  0.00  0.00    -0.030 A 
ATOM      9  C   LIG    1       23.220 -32.976   6.214  0.00  0.00    +0.005 A 
ATOM     10  C   LIG    1       22.788 -33.572   5.026  0.00  0.00    +0.000 A 
ATOM     11  C   LIG    1       23.683 -33.782   3.985  0.00  0.00    +0.000 A 
ATOM     12  C   LIG    1       25.018 -33.425   4.144  0.00  0.00    +0.000 A 
ATOM     13  C   LIG    1       25.455 -32.838   5.338  0.00  0.00    +0.005 A 
ENDBRANCH   3   8
BRANCH   6  14
ATOM     14  C   LIG    1       27.180 -29.305  10.517  0.00  0.00    +0.057 C 
ATOM     15  C   LIG    1       26.763 -30.195  11.709  0.00  0.00    +0.021 C 
ATOM     16  C   LIG    1       26.805 -29.507  13.072  0.00  0.00    +0.028 C 
ATOM     17  C   LIG    1       25.988 -28.192  13.102  0.00  0.00    +0.082 C 
ATOM     18  C   LIG    1       26.700 -27.271  12.073  0.00  0.00    +0.028 C 
ATOM     19  C   LIG    1       26.691 -27.841  10.654  0.00  0.00    +0.021 C 
BRANCH  17  20
ATOM     20  C   LIG    1       24.474 -28.376  12.843  0.00  0.00    -0.027 A 
ATOM     21  C   LIG    1       23.956 -29.578  12.317  0.00  0.00    +0.008 A 
ATOM     22  C   LIG    1       22.585 -29.752  12.098  0.00  0.00    +0.039 A 
ATOM     23  C   LIG    1       21.705 -28.736  12.429  0.00  0.00    +0.123 A 
ATOM     24  F   LIG    1       20.390 -28.907  12.233  0.00  0.00    -0.205 F 
ATOM     25  C   LIG    1       22.170 -27.549  12.973  0.00  0.00    +0.039 A 
ATOM     26  C   LIG    1       23.543 -27.372  13.184  0.00  0.00    +0.008 A 
ENDBRANCH  17  20
BRANCH  17  27
ATOM     27  C   LIG    1       26.160 -27.587  14.444  0.00  0.00    +0.074 C 
ATOM     28  N   LIG    1       26.312 -27.091  15.498  0.00  0.00    -0.196 NA
ENDBRANCH  17  27
ENDBRANCH   6  14
BRANCH   3  29
ATOM     29  C   LIG    1       24.342 -32.568   8.908  0.00  0.00    +0.316 C 
ATOM     30  O   LIG    1       24.708 -33.597   9.460  0.00  0.00    -0.250 OA
BRANCH  29  31
ATOM     31  O   LIG    1       23.238 -31.914   9.347  0.00  0.00    -0.480 OA
ATOM     32  H   LIG    1       22.656 -31.583   8.638  0.00  0.00    +0.295 HD
ENDBRANCH  29  31
ENDBRANCH   3  29
TORSDOF 6
ENDMDL
MODEL 3
REMARK VINA RESULT:      -6.2      2.997      4.744
REMARK  Name = *****
REMARK                            x       y       z     vdW  Elec       q    Type
REMARK                         _______ _______ _______ _____ _____    ______ ____
ROOT
ATOM      1  C   LIG    1       20.323 -30.450  10.647  0.00  0.00    +0.010 C 
ATOM      2  C   LIG    1       21.728 -29.942  11.024  0.00  0.00    +0.021 C 
ATOM      3  C   LIG    1       22.009 -29.947  12.564  0.00  0.00    +0.097 C 
ATOM      4  C   LIG    1       22.166 -31.423  12.996  0.00  0.00    +0.038 C 
ATOM      5  C   LIG    1       23.202 -32.200  12.190  0.00  0.00    +0.086 C 
ATOM      6  N   LIG    1       23.042 -32.123  10.734  0.00  0.00    -0.299 NA
ATOM      7  C   LIG    1       22.794 -30.755  10.247  0.00  0.00    +0.089 C 
ENDROOT
BRANCH   3   8
ATOM      8  C   LIG    1       20.881 -29.217  13.339  0.00  0.00    -0.030 A 
ATOM      9  C   LIG    1       19.973 -29.897  14.171  0.00  0.00    +0.005 A 
ATOM     10  C   LIG    1       18.976 -29.216  14.875  0.00  0.00    +0.000 A 
ATOM     11  C   LIG    1       18.867 -27.836  14.771  0.00  0.00    +0.000 A 
ATOM     12  C   LIG    1       19.736 -27.139  13.938  0.00  0.00    +0.000 A 
ATOM     13  C   LIG    1       20.728 -27.821  13.222  0.00  0.00    +0.005 A 
ENDBRANCH   3   8
BRANCH   6  14
ATOM     14  C   LIG    1       24.199 -32.768  10.025  0.00  0.00    +0.057 C 
ATOM     15  C   LIG    1       25.480 -31.910  10.128  0.00  0.00    +0.021 C 
ATOM     16  C   LIG    1       26.582 -32.277   9.136  0.00  0.00    +0.028 C 
ATOM     17  C   LIG    1       26.085 -32.287   7.669  0.00  0.00    +0.082 C 
ATOM     18  C   LIG    1       25.010 -33.407   7.632  0.00  0.00    +0.028 C 
ATOM     19  C   LIG    1       23.829 -33.132   8.565  0.00  0.00    +0.021 C 
BRANCH  17  20
ATOM     20  C   LIG    1       25.587 -30.916   7.155  0.00  0.00    -0.027 A 
ATOM     21  C   LIG    1       25.115 -30.749   5.835  0.00  0.00    +0.008 A 
ATOM     22  C   LIG    1       24.648 -29.514   5.374  0.00  0.00    +0.039 A 
ATOM     23  C   LIG    1       24.619 -28.429   6.234  0.00  0.00    +0.123 A 
ATOM     24  F   LIG    1       24.160 -27.248   5.797  0.00  0.00    -0.205 F 
ATOM     25  C   LIG    1       25.049 -28.557   7.545  0.00  0.00    +0.039 A 
ATOM     26  C   LIG    1       25.525 -29.791   8.004  0.00  0.00    +0.008 A 
ENDBRANCH  17  20
BRANCH  17  27
ATOM     27  C   LIG    1       27.217 -32.720   6.815  0.00  0.00    +0.074 C 
ATOM     28  N   LIG    1       28.099 -33.075   6.124  0.00  0.00    -0.196 NA
ENDBRANCH  17  27
ENDBRANCH   6  14
BRANCH   3  29
ATOM     29  C   LIG    1       23.356 -29.218  12.849  0.00  0.00    +0.316 C 
ATOM     30  O   LIG    1       23.995 -28.575  12.027  0.00  0.00    -0.250 OA
BRANCH  29  31
ATOM     31  O   LIG    1       23.805 -29.331  14.124  0.00  0.00    -0.480 OA
ATOM     32  H   LIG    1       24.385 -30.100  14.280  0.00  0.00    +0.295 HD
ENDBRANCH  29  31
ENDBRANCH   3  29
TORSDOF 6
ENDMDL
MODEL 4
REMARK VINA RESULT:      -6.0      4.244      6.905
REMARK  Name = *****
REMARK                            x       y       z     vdW  Elec       q    Type
REMARK                         _______ _______ _______ _____ _____    ______ ____
ROOT
ATOM      1  C   LIG    1       23.332 -29.081  12.458  0.00  0.00    +0.010 C 
ATOM      2  C   LIG    1       24.435 -28.981  11.386  0.00  0.00    +0.021 C 
ATOM      3  C   LIG    1       25.887 -29.009  11.971  0.00  0.00    +0.097 C 
ATOM      4  C   LIG    1       26.158 -30.451  12.457  0.00  0.00    +0.038 C 
ATOM      5  C   LIG    1       25.912 -31.520  11.398  0.00  0.00    +0.086 C 
ATOM      6  N   LIG    1       24.603 -31.455  10.742  0.00  0.00    -0.299 NA
ATOM      7  C   LIG    1       24.225 -30.093  10.328  0.00  0.00    +0.089 C 
ENDROOT
BRANCH   3   8
ATOM      8  C   LIG    1       26.054 -27.959  13.100  0.00  0.00    -0.030 A 
ATOM      9  C   LIG    1       25.791 -26.590  12.904  0.00  0.00    +0.005 A 
ATOM     10  C   LIG    1       25.931 -25.664  13.941  0.00  0.00    +0.000 A 
ATOM     11  C   LIG    1       26.330 -26.084  15.203  0.00  0.00    +0.000 A 
ATOM     12  C   LIG    1       26.621 -27.427  15.420  0.00  0.00    +0.000 A 
ATOM     13  C   LIG    1       26.493 -28.355  14.380  0.00  0.00    +0.005 A 
ENDBRANCH   3   8
BRANCH   6  14
ATOM     14  C   LIG    1       24.517 -32.430   9.601  0.00  0.00    +0.057 C 
ATOM     15  C   LIG    1       25.814 -32.438   8.761  0.00  0.00    +0.021 C 
ATOM     16  C   LIG    1       25.686 -33.090   7.386  0.00  0.00    +0.028 C 
ATOM     17  C   LIG    1       24.532 -32.490   6.545  0.00  0.00    +0.082 C 
ATOM     18  C   LIG    1       23.250 -32.820   7.357  0.00  0.00    +0.028 C 
ATOM     19  C   LIG    1       23.245 -32.187   8.749  0.00  0.00    +0.021 C 
BRANCH  17  20
ATOM     20  C   LIG    1       24.700 -30.989   6.212  0.00  0.00    -0.027 A 
ATOM     21  C   LIG    1       23.929 -29.999   6.857  0.00  0.00    +0.008 A 
ATOM     22  C   LIG    1       24.091 -28.640   6.568  0.00  0.00    +0.039 A 
ATOM     23  C   LIG    1       25.049 -28.245   5.649  0.00  0.00    +0.123 A 
ATOM     24  F   LIG    1       25.215 -26.942   5.382  0.00  0.00    -0.205 F 
ATOM     25  C   LIG    1       25.846 -29.184   5.014  0.00  0.00    +0.039 A 
ATOM     26  C   LIG    1       25.677 -30.545   5.296  0.00  0.00    +0.008 A 
ENDBRANCH  17  20
BRANCH  17  27
ATOM     27  C   LIG    1       24.466 -33.245   5.271  0.00  0.00    +0.074 C 
ATOM     28  N   LIG    1       24.403 -33.825   4.251  0.00  0.00    -0.196 NA
ENDBRANCH  17  27
ENDBRANCH   6  14
BRANCH   3  29
ATOM     29  C   LIG    1       26.909 -28.684  10.840  0.00  0.00    +0.316 C 
ATOM     30  O   LIG    1       26.633 -28.140   9.779  0.00  0.00    -0.250 OA
BRANCH  29  31
ATOM     31  O   LIG    1       28.188 -29.047  11.108  0.00  0.00    -0.480 OA
ATOM     32  H   LIG    1       28.396 -29.118  12.058  0.00  0.00    +0.295 HD
ENDBRANCH  29  31
ENDBRANCH   3  29
TORSDOF 6
ENDMDL
MODEL 5
REMARK VINA RESULT:      -6.0      2.370      3.523
REMARK  Name = *****
REMARK                            x       y       z     vdW  Elec       q    Type
REMARK                         _______ _______ _______ _____ _____    ______ ____
ROOT
ATOM      1  C   LIG    1       22.146 -27.257  12.915  0.00  0.00    +0.010 C 
ATOM      2  C   LIG    1       22.123 -28.712  13.426  0.00  0.00    +0.021 C 
ATOM      3  C   LIG    1       20.714 -29.387  13.340  0.00  0.00    +0.097 C 
ATOM      4  C   LIG    1       20.424 -29.656  11.846  0.00  0.00    +0.038 C 
ATOM      5  C   LIG    1       21.516 -30.444  11.132  0.00  0.00    +0.086 C 
ATOM      6  N   LIG    1       22.872 -29.907  11.286  0.00  0.00    -0.299 NA
ATOM      7  C   LIG    1       23.197 -29.537  12.674  0.00  0.00    +0.089 C 
ENDROOT
BRANCH   3   8
ATOM      8  C   LIG    1       19.629 -28.502  14.008  0.00  0.00    -0.030 A 
ATOM      9  C   LIG    1       19.552 -27.113  13.798  0.00  0.00    +0.005 A 
ATOM     10  C   LIG    1       18.555 -26.338  14.395  0.00  0.00    +0.000 A 
ATOM     11  C   LIG    1       17.603 -26.934  15.213  0.00  0.00    +0.000 A 
ATOM     12  C   LIG    1       17.668 -28.301  15.458  0.00  0.00    +0.000 A 
ATOM     13  C   LIG    1       18.674 -29.078  14.870  0.00  0.00    +0.005 A 
ENDBRANCH   3   8
BRANCH   6  14
ATOM     14  C   LIG    1       23.895 -30.837  10.700  0.00  0.00    +0.057 C 
ATOM     15  C   LIG    1       25.260 -30.137  10.513  0.00  0.00    +0.021 C 
ATOM     16  C   LIG    1       26.234 -30.862   9.586  0.00  0.00    +0.028 C 
ATOM     17  C   LIG    1       25.620 -31.171   8.199  0.00  0.00    +0.082 C 
ATOM     18  C   LIG    1       24.438 -32.131   8.504  0.00  0.00    +0.028 C 
ATOM     19  C   LIG    1       23.372 -31.500   9.400  0.00  0.00    +0.021 C 
BRANCH  17  20
ATOM     20  C   LIG    1       25.222 -29.918   7.384  0.00  0.00    -0.027 A 
ATOM     21  C   LIG    1       25.682 -28.631   7.737  0.00  0.00    +0.008 A 
ATOM     22  C   LIG    1       25.337 -27.499   6.992  0.00  0.00    +0.039 A 
ATOM     23  C   LIG    1       24.548 -27.637   5.863  0.00  0.00    +0.123 A 
ATOM     24  F   LIG    1       24.227 -26.555   5.140  0.00  0.00    -0.205 F 
ATOM     25  C   LIG    1       24.097 -28.887   5.466  0.00  0.00    +0.039 A 
ATOM     26  C   LIG    1       24.435 -30.019   6.218  0.00  0.00    +0.008 A 
ENDBRANCH  17  20
BRANCH  17  27
ATOM     27  C   LIG    1       26.628 -31.930   7.421  0.00  0.00    +0.074 C 
ATOM     28  N   LIG    1       27.428 -32.549   6.821  0.00  0.00    -0.196 NA
ENDBRANCH  17  27
ENDBRANCH   6  14
BRANCH   3  29
ATOM     29  C   LIG    1       20.750 -30.761  14.075  0.00  0.00    +0.316 C 
ATOM     30  O   LIG    1       20.166 -31.771  13.706  0.00  0.00    -0.250 OA
BRANCH  29  31
ATOM     31  O   LIG    1       21.507 -30.784  15.200  0.00  0.00    -0.480 OA
ATOM     32  H   LIG    1       21.271 -30.104  15.859  0.00  0.00    +0.295 HD
ENDBRANCH  29  31
ENDBRANCH   3  29
TORSDOF 6
ENDMDL
MODEL 6
REMARK VINA RESULT:      -5.8      3.130      4.293
REMARK  Name = *****
REMARK                            x       y       z     vdW  Elec       q    Type
REMARK                         _______ _______ _______ _____ _____    ______ ____
ROOT
ATOM      1  C   LIG    1       21.022 -28.856  12.506  0.00  0.00    +0.010 C 
ATOM      2  C   LIG    1       21.132 -30.351  12.867  0.00  0.00    +0.021 C 
ATOM      3  C   LIG    1       19.829 -31.167  12.576  0.00  0.00    +0.097 C 
ATOM      4  C   LIG    1       19.705 -31.302  11.041  0.00  0.00    +0.038 C 
ATOM      5  C   LIG    1       20.945 -31.880  10.366  0.00  0.00    +0.086 C 
ATOM      6  N   LIG    1       22.205 -31.214  10.707  0.00  0.00    -0.299 NA
ATOM      7  C   LIG    1       22.361 -30.963  12.150  0.00  0.00    +0.089 C 
ENDROOT
BRANCH   3   8
ATOM      8  C   LIG    1       18.590 -30.487  13.215  0.00  0.00    -0.030 A 
ATOM      9  C   LIG    1       18.698 -29.531  14.243  0.00  0.00    +0.005 A 
ATOM     10  C   LIG    1       17.569 -28.918  14.792  0.00  0.00    +0.000 A 
ATOM     11  C   LIG    1       16.302 -29.239  14.322  0.00  0.00    +0.000 A 
ATOM     12  C   LIG    1       16.162 -30.198  13.324  0.00  0.00    +0.000 A 
ATOM     13  C   LIG    1       17.292 -30.822  12.781  0.00  0.00    +0.005 A 
ENDBRANCH   3   8
BRANCH   6  14
ATOM     14  C   LIG    1       23.382 -31.955  10.137  0.00  0.00    +0.057 C 
ATOM     15  C   LIG    1       24.693 -31.155  10.305  0.00  0.00    +0.021 C 
ATOM     16  C   LIG    1       25.855 -31.632   9.435  0.00  0.00    +0.028 C 
ATOM     17  C   LIG    1       25.485 -31.703   7.933  0.00  0.00    +0.082 C 
ATOM     18  C   LIG    1       24.358 -32.770   7.862  0.00  0.00    +0.028 C 
ATOM     19  C   LIG    1       23.119 -32.385   8.671  0.00  0.00    +0.021 C 
BRANCH  17  20
ATOM     20  C   LIG    1       25.106 -30.341   7.305  0.00  0.00    -0.027 A 
ATOM     21  C   LIG    1       25.570 -29.123   7.846  0.00  0.00    +0.008 A 
ATOM     22  C   LIG    1       25.242 -27.892   7.269  0.00  0.00    +0.039 A 
ATOM     23  C   LIG    1       24.467 -27.858   6.122  0.00  0.00    +0.123 A 
ATOM     24  F   LIG    1       24.163 -26.680   5.560  0.00  0.00    -0.205 F 
ATOM     25  C   LIG    1       24.014 -29.033   5.543  0.00  0.00    +0.039 A 
ATOM     26  C   LIG    1       24.334 -30.265   6.126  0.00  0.00    +0.008 A 
ENDBRANCH  17  20
BRANCH  17  27
ATOM     27  C   LIG    1       26.660 -32.239   7.206  0.00  0.00    +0.074 C 
ATOM     28  N   LIG    1       27.595 -32.643   6.620  0.00  0.00    -0.196 NA
ENDBRANCH  17  27
ENDBRANCH   6  14
BRANCH   3  29
ATOM     29  C   LIG    1       19.968 -32.599  13.173  0.00  0.00    +0.316 C 
ATOM     30  O   LIG    1       19.598 -33.629  12.624  0.00  0.00    -0.250 OA
BRANCH  29  31
ATOM     31  O   LIG    1       20.556 -32.652  14.394  0.00  0.00    -0.480 OA
ATOM     32  H   LIG    1       20.415 -31.858  14.944  0.00  0.00    +0.295 HD
ENDBRANCH  29  31
ENDBRANCH   3  29
TORSDOF 6
ENDMDL
MODEL 7
REMARK VINA RESULT:      -5.6      2.792      3.892
REMARK  Name = *****
REMARK                            x       y       z     vdW  Elec       q    Type
REMARK                         _______ _______ _______ _____ _____    ______ ____
ROOT
ATOM      1  C   LIG    1       18.645 -29.676  13.999  0.00  0.00    +0.010 C 
ATOM      2  C   LIG    1       20.037 -30.331  14.093  0.00  0.00    +0.021 C 
ATOM      3  C   LIG    1       20.555 -30.910  12.735  0.00  0.00    +0.097 C 
ATOM      4  C   LIG    1       20.917 -29.710  11.832  0.00  0.00    +0.038 C 
ATOM      5  C   LIG    1       21.883 -28.719  12.474  0.00  0.00    +0.086 C 
ATOM      6  N   LIG    1       21.490 -28.240  13.802  0.00  0.00    -0.299 NA
ATOM      7  C   LIG    1       21.040 -29.318  14.700  0.00  0.00    +0.089 C 
ENDROOT
BRANCH   3   8
ATOM      8  C   LIG    1       19.499 -31.844  12.088  0.00  0.00    -0.030 A 
ATOM      9  C   LIG    1       19.019 -33.001  12.730  0.00  0.00    +0.005 A 
ATOM     10  C   LIG    1       18.053 -33.818  12.136  0.00  0.00    +0.000 A 
ATOM     11  C   LIG    1       17.537 -33.496  10.888  0.00  0.00    +0.000 A 
ATOM     12  C   LIG    1       18.010 -32.371  10.219  0.00  0.00    +0.000 A 
ATOM     13  C   LIG    1       18.986 -31.558  10.807  0.00  0.00    +0.005 A 
ENDBRANCH   3   8
BRANCH   6  14
ATOM     14  C   LIG    1       22.578 -27.411  14.425  0.00  0.00    +0.057 C 
ATOM     15  C   LIG    1       23.189 -26.419  13.410  0.00  0.00    +0.021 C 
ATOM     16  C   LIG    1       24.531 -25.819  13.823  0.00  0.00    +0.028 C 
ATOM     17  C   LIG    1       25.582 -26.898  14.184  0.00  0.00    +0.082 C 
ATOM     18  C   LIG    1       24.979 -27.628  15.415  0.00  0.00    +0.028 C 
ATOM     19  C   LIG    1       23.641 -28.305  15.113  0.00  0.00    +0.021 C 
BRANCH  17  20
ATOM     20  C   LIG    1       25.959 -27.837  13.015  0.00  0.00    -0.027 A 
ATOM     21  C   LIG    1       26.648 -27.361  11.878  0.00  0.00    +0.008 A 
ATOM     22  C   LIG    1       27.004 -28.213  10.827  0.00  0.00    +0.039 A 
ATOM     23  C   LIG    1       26.703 -29.562  10.907  0.00  0.00    +0.123 A 
ATOM     24  F   LIG    1       27.056 -30.381   9.907  0.00  0.00    -0.205 F 
ATOM     25  C   LIG    1       26.051 -30.074  12.018  0.00  0.00    +0.039 A 
ATOM     26  C   LIG    1       25.686 -29.220  13.066  0.00  0.00    +0.008 A 
ENDBRANCH  17  20
BRANCH  17  27
ATOM     27  C   LIG    1       26.809 -26.197  14.632  0.00  0.00    +0.074 C 
ATOM     28  N   LIG    1       27.773 -25.643  15.010  0.00  0.00    -0.196 NA
ENDBRANCH  17  27
ENDBRANCH   6  14
BRANCH   3  29
ATOM     29  C   LIG    1       21.855 -31.734  12.983  0.00  0.00    +0.316 C 
ATOM     30  O   LIG    1       22.193 -32.206  14.060  0.00  0.00    -0.250 OA
BRANCH  29  31
ATOM     31  O   LIG    1       22.630 -31.916  11.885  0.00  0.00    -0.480 OA
ATOM     32  H   LIG    1       23.441 -32.434  12.046  0.00  0.00    +0.295 HD
ENDBRANCH  29  31
ENDBRANCH   3  29
TORSDOF 6
ENDMDL
MODEL 8
REMARK VINA RESULT:      -5.3      4.105      6.803
REMARK  Name = *****
REMARK                            x       y       z     vdW  Elec       q    Type
REMARK                         _______ _______ _______ _____ _____    ______ ____
ROOT
ATOM      1  C   LIG    1       22.214 -31.121  11.052  0.00  0.00    +0.010 C 
ATOM      2  C   LIG    1       23.556 -30.520  10.590  0.00  0.00    +0.021 C 
ATOM      3  C   LIG    1       24.678 -30.572  11.680  0.00  0.00    +0.097 C 
ATOM      4  C   LIG    1       25.115 -32.048  11.819  0.00  0.00    +0.038 C 
ATOM      5  C   LIG    1       25.519 -32.704  10.503  0.00  0.00    +0.086 C 
ATOM      6  N   LIG    1       24.541 -32.575   9.418  0.00  0.00    -0.299 NA
ATOM      7  C   LIG    1       24.003 -31.211   9.278  0.00  0.00    +0.089 C 
ENDROOT
BRANCH   3   8
ATOM      8  C   LIG    1       24.183 -29.968  13.020  0.00  0.00    -0.030 A 
ATOM      9  C   LIG    1       23.969 -30.753  14.169  0.00  0.00    +0.005 A 
ATOM     10  C   LIG    1       23.540 -30.185  15.371  0.00  0.00    +0.000 A 
ATOM     11  C   LIG    1       23.322 -28.816  15.459  0.00  0.00    +0.000 A 
ATOM     12  C   LIG    1       23.503 -28.019  14.333  0.00  0.00    +0.000 A 
ATOM     13  C   LIG    1       23.921 -28.588  13.124  0.00  0.00    +0.005 A 
ENDBRANCH   3   8
BRANCH   6  14
ATOM     14  C   LIG    1       25.095 -33.094   8.122  0.00  0.00    +0.057 C 
ATOM     15  C   LIG    1       26.402 -32.368   7.730  0.00  0.00    +0.021 C 
ATOM     16  C   LIG    1       26.825 -32.545   6.273  0.00  0.00    +0.028 C 
ATOM     17  C   LIG    1       25.704 -32.161   5.275  0.00  0.00    +0.082 C 
ATOM     18  C   LIG    1       24.560 -33.169   5.572  0.00  0.00    +0.028 C 
ATOM     19  C   LIG    1       24.025 -33.062   7.001  0.00  0.00    +0.021 C 
BRANCH  17  20
ATOM     20  C   LIG    1       25.272 -30.677   5.342  0.00  0.00    -0.027 A 
ATOM     21  C   LIG    1       24.001 -30.299   5.827  0.00  0.00    +0.008 A 
ATOM     22  C   LIG    1       23.614 -28.957   5.904  0.00  0.00    +0.039 A 
ATOM     23  C   LIG    1       24.504 -27.966   5.524  0.00  0.00    +0.123 A 
ATOM     24  F   LIG    1       24.141 -26.679   5.610  0.00  0.00    -0.205 F 
ATOM     25  C   LIG    1       25.771 -28.293   5.068  0.00  0.00    +0.039 A 
ATOM     26  C   LIG    1       26.154 -29.637   4.982  0.00  0.00    +0.008 A 
ENDBRANCH  17  20
BRANCH  17  27
ATOM     27  C   LIG    1       26.205 -32.438   3.908  0.00  0.00    +0.074 C 
ATOM     28  N   LIG    1       26.581 -32.658   2.817  0.00  0.00    -0.196 NA
ENDBRANCH  17  27
ENDBRANCH   6  14
BRANCH   3  29
ATOM     29  C   LIG    1       25.912 -29.751  11.196  0.00  0.00    +0.316 C 
ATOM     30  O   LIG    1       25.888 -28.901  10.315  0.00  0.00    -0.250 OA
BRANCH  29  31
ATOM     31  O   LIG    1       27.072 -30.037  11.837  0.00  0.00    -0.480 OA
ATOM     32  H   LIG    1       27.852 -29.568  11.486  0.00  0.00    +0.295 HD
ENDBRANCH  29  31
ENDBRANCH   3  29
TORSDOF 6
ENDMDL
MODEL 9
REMARK VINA RESULT:      -5.2      3.720      8.417
REMARK  Name = *****
REMARK                            x       y       z     vdW  Elec       q    Type
REMARK                         _______ _______ _______ _____ _____    ______ ____
ROOT
ATOM      1  C   LIG    1       25.549 -29.296   8.379  0.00  0.00    +0.010 C 
ATOM      2  C   LIG    1       24.420 -30.305   8.665  0.00  0.00    +0.021 C 
ATOM      3  C   LIG    1       24.900 -31.794   8.705  0.00  0.00    +0.097 C 
ATOM      4  C   LIG    1       25.717 -31.978  10.004  0.00  0.00    +0.038 C 
ATOM      5  C   LIG    1       24.981 -31.546  11.268  0.00  0.00    +0.086 C 
ATOM      6  N   LIG    1       24.414 -30.195  11.225  0.00  0.00    -0.299 NA
ATOM      7  C   LIG    1       23.693 -29.905   9.973  0.00  0.00    +0.089 C 
ENDROOT
BRANCH   3   8
ATOM      8  C   LIG    1       25.714 -32.153   7.434  0.00  0.00    -0.030 A 
ATOM      9  C   LIG    1       27.010 -32.698   7.495  0.00  0.00    +0.005 A 
ATOM     10  C   LIG    1       27.717 -33.031   6.338  0.00  0.00    +0.000 A 
ATOM     11  C   LIG    1       27.144 -32.835   5.088  0.00  0.00    +0.000 A 
ATOM     12  C   LIG    1       25.873 -32.276   4.996  0.00  0.00    +0.000 A 
ATOM     13  C   LIG    1       25.167 -31.930   6.154  0.00  0.00    +0.005 A 
ENDBRANCH   3   8
BRANCH   6  14
ATOM     14  C   LIG    1       23.565 -29.923  12.435  0.00  0.00    +0.057 C 
ATOM     15  C   LIG    1       23.235 -31.222  13.203  0.00  0.00    +0.021 C 
ATOM     16  C   LIG    1       22.085 -31.107  14.200  0.00  0.00    +0.028 C 
ATOM     17  C   LIG    1       20.791 -30.548  13.558  0.00  0.00    +0.082 C 
ATOM     18  C   LIG    1       21.177 -29.115  13.097  0.00  0.00    +0.028 C 
ATOM     19  C   LIG    1       22.303 -29.103  12.062  0.00  0.00    +0.021 C 
BRANCH  17  20
ATOM     20  C   LIG    1       20.201 -31.434  12.436  0.00  0.00    -0.027 A 
ATOM     21  C   LIG    1       20.183 -32.842  12.540  0.00  0.00    +0.008 A 
ATOM     22  C   LIG    1       19.635 -33.645  11.534  0.00  0.00    +0.039 A 
ATOM     23  C   LIG    1       19.068 -33.052  10.419  0.00  0.00    +0.123 A 
ATOM     24  F   LIG    1       18.530 -33.819   9.461  0.00  0.00    -0.205 F 
ATOM     25  C   LIG    1       19.040 -31.672  10.291  0.00  0.00    +0.039 A 
ATOM     26  C   LIG    1       19.598 -30.869  11.293  0.00  0.00    +0.008 A 
ENDBRANCH  17  20
BRANCH  17  27
ATOM     27  C   LIG    1       19.777 -30.418  14.631  0.00  0.00    +0.074 C 
ATOM     28  N   LIG    1       18.980 -30.293  15.485  0.00  0.00    -0.196 NA
ENDBRANCH  17  27
ENDBRANCH   6  14
BRANCH   3  29
ATOM     29  C   LIG    1       23.662 -32.738   8.780  0.00  0.00    +0.316 C 
ATOM     30  O   LIG    1       22.608 -32.563   8.183  0.00  0.00    -0.250 OA
BRANCH  29  31
ATOM     31  O   LIG    1       23.822 -33.823   9.578  0.00  0.00    -0.480 OA
ATOM     32  H   LIG    1       24.747 -34.013   9.820  0.00  0.00    +0.295 HD
ENDBRANCH  29  31
ENDBRANCH   3  29
TORSDOF 6
ENDMDL
