MODEL 1
REMARK VINA RESULT:      -6.7      0.000      0.000
REMARK  Name = *****
REMARK                            x       y       z     vdW  Elec       q    Type
REMARK                         _______ _______ _______ _____ _____    ______ ____
ROOT
ATOM      1  N   LIG    1       27.884 -19.963   6.816  0.00  0.00    -0.119 NA
ATOM      2  C   LIG    1       27.141 -20.734   6.091  0.00  0.00    +0.159 C 
ENDROOT
BRANCH   2   3
ATOM      3  C   LIG    1       25.663 -20.625   6.087  0.00  0.00    +0.033 A 
ATOM      4  C   LIG    1       24.952 -21.034   7.229  0.00  0.00    +0.051 A 
ATOM      5 CL   LIG    1       25.724 -21.646   8.654  0.00  0.00    -0.083 Cl
ATOM      6  C   LIG    1       23.555 -20.934   7.272  0.00  0.00    +0.021 A 
ATOM      7  C   LIG    1       22.853 -20.437   6.179  0.00  0.00    +0.003 A 
ATOM      8  C   LIG    1       23.547 -20.037   5.040  0.00  0.00    +0.021 A 
ATOM      9  C   LIG    1       24.945 -20.125   4.986  0.00  0.00    +0.051 A 
ATOM     10 CL   LIG    1       25.670 -19.642   3.490  0.00  0.00    -0.083 Cl
ENDBRANCH   2   3
BRANCH   1  11
ATOM     11  N   LIG    1       29.225 -20.198   6.734  0.00  0.00    -0.155 N 
ATOM     12  H   LIG    1       29.616 -21.131   6.837  0.00  0.00    +0.292 HD
BRANCH  11  15
ATOM     13  N   LIG    1       29.941 -18.244   5.687  0.00  0.00    -0.128 NA
ATOM     14  H   LIG    1       30.810 -17.709   5.623  0.00  0.00    +0.306 HD
ATOM     15  C   LIG    1       30.160 -19.245   6.468  0.00  0.00    +0.400 C 
BRANCH  15  16
ATOM     16  N   LIG    1       31.335 -19.432   7.112  0.00  0.00    -0.288 N 
ATOM     17  H   LIG    1       31.352 -20.389   7.465  0.00  0.00    +0.255 HD
ATOM     18  H   LIG    1       31.522 -18.760   7.841  0.00  0.00    +0.255 HD
ENDBRANCH  15  16
ENDBRANCH  11  15
ENDBRANCH   1  11
TORSDOF 4
ENDMDL
MODEL 2
REMARK VINA RESULT:      -6.6      1.114      2.718
REMARK  Name = *****
REMARK                            x       y       z     vdW  Elec       q    Type
REMARK                         _______ _______ _______ _____ _____    ______ ____
ROOT
ATOM      1  N   LIG    1       28.000 -21.155   6.848  0.00  0.00    -0.119 NA
ATOM      2  C   LIG    1       27.134 -20.372   6.292  0.00  0.00    +0.159 C 
ENDROOT
BRANCH   2   3
ATOM      3  C   LIG    1       25.686 -20.684   6.278  0.00  0.00    +0.033 A 
ATOM      4  C   LIG    1       24.932 -20.349   5.139  0.00  0.00    +0.051 A 
ATOM      5 CL   LIG    1       25.622 -19.601   3.737  0.00  0.00    -0.083 Cl
ATOM      6  C   LIG    1       23.563 -20.641   5.079  0.00  0.00    +0.021 A 
ATOM      7  C   LIG    1       22.929 -21.258   6.153  0.00  0.00    +0.003 A 
ATOM      8  C   LIG    1       23.664 -21.586   7.289  0.00  0.00    +0.021 A 
ATOM      9  C   LIG    1       25.036 -21.306   7.359  0.00  0.00    +0.051 A 
ATOM     10 CL   LIG    1       25.810 -21.722   8.851  0.00  0.00    -0.083 Cl
ENDBRANCH   2   3
BRANCH   1  11
ATOM     11  N   LIG    1       29.298 -20.748   6.758  0.00  0.00    -0.155 N 
ATOM     12  H   LIG    1       29.805 -20.751   5.877  0.00  0.00    +0.292 HD
BRANCH  11  15
ATOM     13  N   LIG    1       29.630 -19.287   8.542  0.00  0.00    -0.128 NA
ATOM     14  H   LIG    1       30.374 -19.091   9.216  0.00  0.00    +0.306 HD
ATOM     15  C   LIG    1       30.027 -20.263   7.800  0.00  0.00    +0.400 C 
BRANCH  15  16
ATOM     16  N   LIG    1       31.198 -20.909   8.001  0.00  0.00    -0.288 N 
ATOM     17  H   LIG    1       31.051 -21.611   8.728  0.00  0.00    +0.255 HD
ATOM     18  H   LIG    1       31.977 -20.305   8.218  0.00  0.00    +0.255 HD
ENDBRANCH  15  16
ENDBRANCH  11  15
ENDBRANCH   1  11
TORSDOF 4
ENDMDL
MODEL 3
REMARK VINA RESULT:      -6.5      1.065      1.416
REMARK  Name = *****
REMARK                            x       y       z     vdW  Elec       q    Type
REMARK                         _______ _______ _______ _____ _____    ______ ____
ROOT
ATOM      1  N   LIG    1       28.008 -21.178   6.580  0.00  0.00    -0.119 NA
ATOM      2  C   LIG    1       27.117 -20.255   6.413  0.00  0.00    +0.159 C 
ENDROOT
BRANCH   2   3
ATOM      3  C   LIG    1       25.672 -20.566   6.318  0.00  0.00    +0.033 A 
ATOM      4  C   LIG    1       25.030 -21.147   7.426  0.00  0.00    +0.051 A 
ATOM      5 CL   LIG    1       25.849 -21.504   8.910  0.00  0.00    -0.083 Cl
ATOM      6  C   LIG    1       23.661 -21.442   7.383  0.00  0.00    +0.021 A 
ATOM      7  C   LIG    1       22.920 -21.172   6.237  0.00  0.00    +0.003 A 
ATOM      8  C   LIG    1       23.547 -20.604   5.132  0.00  0.00    +0.021 A 
ATOM      9  C   LIG    1       24.915 -20.298   5.164  0.00  0.00    +0.051 A 
ATOM     10 CL   LIG    1       25.571 -19.645   3.701  0.00  0.00    -0.083 Cl
ENDBRANCH   2   3
BRANCH   1  11
ATOM     11  N   LIG    1       29.300 -20.742   6.622  0.00  0.00    -0.155 N 
ATOM     12  H   LIG    1       29.754 -20.321   5.816  0.00  0.00    +0.292 HD
BRANCH  11  15
ATOM     13  N   LIG    1       29.756 -21.397   8.811  0.00  0.00    -0.128 NA
ATOM     14  H   LIG    1       30.495 -21.234   9.499  0.00  0.00    +0.306 HD
ATOM     15  C   LIG    1       30.089 -20.780   7.730  0.00  0.00    +0.400 C 
BRANCH  15  16
ATOM     16  N   LIG    1       31.266 -20.126   7.591  0.00  0.00    -0.288 N 
ATOM     17  H   LIG    1       31.255 -19.321   8.217  0.00  0.00    +0.255 HD
ATOM     18  H   LIG    1       31.485 -19.860   6.642  0.00  0.00    +0.255 HD
ENDBRANCH  15  16
ENDBRANCH  11  15
ENDBRANCH   1  11
TORSDOF 4
ENDMDL
MODEL 4
REMARK VINA RESULT:      -6.5      1.876      2.409
REMARK  Name = *****
REMARK                            x       y       z     vdW  Elec       q    Type
REMARK                         _______ _______ _______ _____ _____    ______ ____
ROOT
ATOM      1  N   LIG    1       29.190 -21.442   7.248  0.00  0.00    -0.119 NA
ATOM      2  C   LIG    1       28.011 -20.996   7.540  0.00  0.00    +0.159 C 
ENDROOT
BRANCH   2   3
ATOM      3  C   LIG    1       26.943 -20.871   6.522  0.00  0.00    +0.033 A 
ATOM      4  C   LIG    1       25.831 -21.729   6.598  0.00  0.00    +0.051 A 
ATOM      5 CL   LIG    1       25.641 -22.919   7.842  0.00  0.00    -0.083 Cl
ATOM      6  C   LIG    1       24.792 -21.633   5.664  0.00  0.00    +0.021 A 
ATOM      7  C   LIG    1       24.852 -20.693   4.641  0.00  0.00    +0.003 A 
ATOM      8  C   LIG    1       25.952 -19.844   4.551  0.00  0.00    +0.021 A 
ATOM      9  C   LIG    1       26.996 -19.925   5.483  0.00  0.00    +0.051 A 
ATOM     10 CL   LIG    1       28.322 -18.845   5.218  0.00  0.00    -0.083 Cl
ENDBRANCH   2   3
BRANCH   1  11
ATOM     11  N   LIG    1       30.075 -21.475   8.285  0.00  0.00    -0.155 N 
ATOM     12  H   LIG    1       29.963 -22.112   9.069  0.00  0.00    +0.292 HD
BRANCH  11  15
ATOM     13  N   LIG    1       32.078 -20.847   9.296  0.00  0.00    -0.128 NA
ATOM     14  H   LIG    1       32.794 -20.131   9.150  0.00  0.00    +0.306 HD
ATOM     15  C   LIG    1       31.201 -20.714   8.362  0.00  0.00    +0.400 C 
BRANCH  15  16
ATOM     16  N   LIG    1       31.327 -19.815   7.358  0.00  0.00    -0.288 N 
ATOM     17  H   LIG    1       31.780 -20.283   6.572  0.00  0.00    +0.255 HD
ATOM     18  H   LIG    1       31.809 -18.967   7.616  0.00  0.00    +0.255 HD
ENDBRANCH  15  16
ENDBRANCH  11  15
ENDBRANCH   1  11
TORSDOF 4
ENDMDL
MODEL 5
REMARK VINA RESULT:      -6.5      0.802      2.665
REMARK  Name = *****
REMARK                            x       y       z     vdW  Elec       q    Type
REMARK                         _______ _______ _______ _____ _____    ______ ____
ROOT
ATOM      1  N   LIG    1       27.522 -19.962   6.505  0.00  0.00    -0.119 NA
ATOM      2  C   LIG    1       26.830 -20.564   5.594  0.00  0.00    +0.159 C 
ENDROOT
BRANCH   2   3
ATOM      3  C   LIG    1       25.360 -20.715   5.693  0.00  0.00    +0.033 A 
ATOM      4  C   LIG    1       24.545 -20.014   4.787  0.00  0.00    +0.051 A 
ATOM      5 CL   LIG    1       25.181 -18.990   3.543  0.00  0.00    -0.083 Cl
ATOM      6  C   LIG    1       23.151 -20.140   4.838  0.00  0.00    +0.021 A 
ATOM      7  C   LIG    1       22.554 -20.956   5.793  0.00  0.00    +0.003 A 
ATOM      8  C   LIG    1       23.351 -21.649   6.700  0.00  0.00    +0.021 A 
ATOM      9  C   LIG    1       24.748 -21.536   6.657  0.00  0.00    +0.051 A 
ATOM     10 CL   LIG    1       25.609 -22.411   7.877  0.00  0.00    -0.083 Cl
ENDBRANCH   2   3
BRANCH   1  11
ATOM     11  N   LIG    1       28.868 -19.924   6.288  0.00  0.00    -0.155 N 
ATOM     12  H   LIG    1       29.427 -20.770   6.217  0.00  0.00    +0.292 HD
BRANCH  11  15
ATOM     13  N   LIG    1       30.513 -18.396   6.909  0.00  0.00    -0.128 NA
ATOM     14  H   LIG    1       30.861 -17.496   6.570  0.00  0.00    +0.306 HD
ATOM     15  C   LIG    1       29.587 -18.783   6.102  0.00  0.00    +0.400 C 
BRANCH  15  16
ATOM     16  N   LIG    1       29.255 -18.100   4.982  0.00  0.00    -0.288 N 
ATOM     17  H   LIG    1       28.275 -18.295   4.773  0.00  0.00    +0.255 HD
ATOM     18  H   LIG    1       29.851 -18.285   4.189  0.00  0.00    +0.255 HD
ENDBRANCH  15  16
ENDBRANCH  11  15
ENDBRANCH   1  11
TORSDOF 4
ENDMDL
MODEL 6
REMARK VINA RESULT:      -6.5      1.929      3.194
REMARK  Name = *****
REMARK                            x       y       z     vdW  Elec       q    Type
REMARK                         _______ _______ _______ _____ _____    ______ ____
ROOT
ATOM      1  N   LIG    1       29.159 -21.477   7.333  0.00  0.00    -0.119 NA
ATOM      2  C   LIG    1       28.003 -20.953   7.584  0.00  0.00    +0.159 C 
ENDROOT
BRANCH   2   3
ATOM      3  C   LIG    1       26.948 -20.843   6.551  0.00  0.00    +0.033 A 
ATOM      4  C   LIG    1       27.106 -19.902   5.519  0.00  0.00    +0.051 A 
ATOM      5 CL   LIG    1       28.492 -18.871   5.387  0.00  0.00    -0.083 Cl
ATOM      6  C   LIG    1       26.138 -19.776   4.514  0.00  0.00    +0.021 A 
ATOM      7  C   LIG    1       25.001 -20.577   4.530  0.00  0.00    +0.003 A 
ATOM      8  C   LIG    1       24.830 -21.506   5.552  0.00  0.00    +0.021 A 
ATOM      9  C   LIG    1       25.794 -21.647   6.560  0.00  0.00    +0.051 A 
ATOM     10 CL   LIG    1       25.425 -22.804   7.794  0.00  0.00    -0.083 Cl
ENDBRANCH   2   3
BRANCH   1  11
ATOM     11  N   LIG    1       30.036 -21.486   8.377  0.00  0.00    -0.155 N 
ATOM     12  H   LIG    1       29.887 -22.059   9.202  0.00  0.00    +0.292 HD
BRANCH  11  15
ATOM     13  N   LIG    1       32.106 -20.962   9.309  0.00  0.00    -0.128 NA
ATOM     14  H   LIG    1       32.851 -20.282   9.136  0.00  0.00    +0.306 HD
ATOM     15  C   LIG    1       31.200 -20.781   8.410  0.00  0.00    +0.400 C 
BRANCH  15  16
ATOM     16  N   LIG    1       31.332 -19.886   7.404  0.00  0.00    -0.288 N 
ATOM     17  H   LIG    1       30.438 -19.406   7.291  0.00  0.00    +0.255 HD
ATOM     18  H   LIG    1       31.657 -20.281   6.534  0.00  0.00    +0.255 HD
ENDBRANCH  15  16
ENDBRANCH  11  15
ENDBRANCH   1  11
TORSDOF 4
ENDMDL
MODEL 7
REMARK VINA RESULT:      -6.3      1.189      1.313
REMARK  Name = *****
REMARK                            x       y       z     vdW  Elec       q    Type
REMARK                         _______ _______ _______ _____ _____    ______ ____
ROOT
ATOM      1  N   LIG    1       27.383 -19.968   6.654  0.00  0.00    -0.119 NA
ATOM      2  C   LIG    1       26.772 -20.687   5.769  0.00  0.00    +0.159 C 
ENDROOT
BRANCH   2   3
ATOM      3  C   LIG    1       25.296 -20.705   5.653  0.00  0.00    +0.033 A 
ATOM      4  C   LIG    1       24.559 -21.538   6.513  0.00  0.00    +0.051 A 
ATOM      5 CL   LIG    1       25.298 -22.536   7.720  0.00  0.00    -0.083 Cl
ATOM      6  C   LIG    1       23.160 -21.574   6.446  0.00  0.00    +0.021 A 
ATOM      7  C   LIG    1       22.482 -20.790   5.518  0.00  0.00    +0.003 A 
ATOM      8  C   LIG    1       23.201 -19.968   4.656  0.00  0.00    +0.021 A 
ATOM      9  C   LIG    1       24.601 -19.918   4.717  0.00  0.00    +0.051 A 
ATOM     10 CL   LIG    1       25.366 -18.892   3.550  0.00  0.00    -0.083 Cl
ENDBRANCH   2   3
BRANCH   1  11
ATOM     11  N   LIG    1       28.743 -20.075   6.656  0.00  0.00    -0.155 N 
ATOM     12  H   LIG    1       29.280 -20.139   5.795  0.00  0.00    +0.292 HD
BRANCH  11  15
ATOM     13  N   LIG    1       29.424 -19.152   8.684  0.00  0.00    -0.128 NA
ATOM     14  H   LIG    1       30.138 -19.348   9.389  0.00  0.00    +0.306 HD
ATOM     15  C   LIG    1       29.514 -20.063   7.777  0.00  0.00    +0.400 C 
BRANCH  15  16
ATOM     16  N   LIG    1       30.374 -21.104   7.865  0.00  0.00    -0.288 N 
ATOM     17  H   LIG    1       29.895 -21.938   7.521  0.00  0.00    +0.255 HD
ATOM     18  H   LIG    1       30.761 -21.249   8.786  0.00  0.00    +0.255 HD
ENDBRANCH  15  16
ENDBRANCH  11  15
ENDBRANCH   1  11
TORSDOF 4
ENDMDL
MODEL 8
REMARK VINA RESULT:      -6.3      4.672      5.933
REMARK  Name = *****
REMARK                            x       y       z     vdW  Elec       q    Type
REMARK                         _______ _______ _______ _____ _____    ______ ____
ROOT
ATOM      1  N   LIG    1       25.757 -24.975   5.750  0.00  0.00    -0.119 NA
ATOM      2  C   LIG    1       25.666 -24.410   6.910  0.00  0.00    +0.159 C 
ENDROOT
BRANCH   2   3
ATOM      3  C   LIG    1       25.185 -23.019   7.072  0.00  0.00    +0.033 A 
ATOM      4  C   LIG    1       23.803 -22.767   6.994  0.00  0.00    +0.051 A 
ATOM      5 CL   LIG    1       22.631 -24.015   6.734  0.00  0.00    -0.083 Cl
ATOM      6  C   LIG    1       23.305 -21.468   7.157  0.00  0.00    +0.021 A 
ATOM      7  C   LIG    1       24.175 -20.407   7.388  0.00  0.00    +0.003 A 
ATOM      8  C   LIG    1       25.545 -20.643   7.459  0.00  0.00    +0.021 A 
ATOM      9  C   LIG    1       26.056 -21.940   7.304  0.00  0.00    +0.051 A 
ATOM     10 CL   LIG    1       27.781 -22.077   7.363  0.00  0.00    -0.083 Cl
ENDBRANCH   2   3
BRANCH   1  11
ATOM     11  N   LIG    1       26.241 -26.250   5.757  0.00  0.00    -0.155 N 
ATOM     12  H   LIG    1       27.203 -26.463   5.506  0.00  0.00    +0.292 HD
BRANCH  11  15
ATOM     13  N   LIG    1       25.942 -28.192   7.008  0.00  0.00    -0.128 NA
ATOM     14  H   LIG    1       25.243 -28.936   7.074  0.00  0.00    +0.306 HD
ATOM     15  C   LIG    1       25.524 -27.344   6.133  0.00  0.00    +0.400 C 
BRANCH  15  16
ATOM     16  N   LIG    1       24.323 -27.454   5.519  0.00  0.00    -0.288 N 
ATOM     17  H   LIG    1       24.322 -26.826   4.714  0.00  0.00    +0.255 HD
ATOM     18  H   LIG    1       23.531 -27.290   6.122  0.00  0.00    +0.255 HD
ENDBRANCH  15  16
ENDBRANCH  11  15
ENDBRANCH   1  11
TORSDOF 4
ENDMDL
MODEL 9
REMARK VINA RESULT:      -6.2      2.414      3.016
REMARK  Name = *****
REMARK                            x       y       z     vdW  Elec       q    Type
REMARK                         _______ _______ _______ _____ _____    ______ ____
ROOT
ATOM      1  N   LIG    1       27.623 -21.617   7.120  0.00  0.00    -0.119 NA
ATOM      2  C   LIG    1       27.062 -22.773   7.268  0.00  0.00    +0.159 C 
ENDROOT
BRANCH   2   3
ATOM      3  C   LIG    1       25.600 -22.963   7.121  0.00  0.00    +0.033 A 
ATOM      4  C   LIG    1       25.123 -24.189   6.624  0.00  0.00    +0.051 A 
ATOM      5 CL   LIG    1       26.167 -25.501   6.190  0.00  0.00    -0.083 Cl
ATOM      6  C   LIG    1       23.748 -24.414   6.484  0.00  0.00    +0.021 A 
ATOM      7  C   LIG    1       22.835 -23.421   6.826  0.00  0.00    +0.003 A 
ATOM      8  C   LIG    1       23.297 -22.201   7.311  0.00  0.00    +0.021 A 
ATOM      9  C   LIG    1       24.671 -21.964   7.463  0.00  0.00    +0.051 A 
ATOM     10 CL   LIG    1       25.102 -20.385   8.026  0.00  0.00    -0.083 Cl
ENDBRANCH   2   3
BRANCH   1  11
ATOM     11  N   LIG    1       28.973 -21.594   7.312  0.00  0.00    -0.155 N 
ATOM     12  H   LIG    1       29.572 -22.363   7.022  0.00  0.00    +0.292 HD
BRANCH  11  15
ATOM     13  N   LIG    1       29.077 -19.503   8.333  0.00  0.00    -0.128 NA
ATOM     14  H   LIG    1       29.810 -18.857   8.635  0.00  0.00    +0.306 HD
ATOM     15  C   LIG    1       29.657 -20.550   7.856  0.00  0.00    +0.400 C 
BRANCH  15  16
ATOM     16  N   LIG    1       30.999 -20.718   7.869  0.00  0.00    -0.288 N 
ATOM     17  H   LIG    1       31.425 -19.826   8.124  0.00  0.00    +0.255 HD
ATOM     18  H   LIG    1       31.382 -21.083   7.010  0.00  0.00    +0.255 HD
ENDBRANCH  15  16
ENDBRANCH  11  15
ENDBRANCH   1  11
TORSDOF 4
ENDMDL
