MODEL 1
REMARK VINA RESULT:      -4.9      0.000      0.000
REMARK  Name = *****
REMARK                            x       y       z     vdW  Elec       q    Type
REMARK                         _______ _______ _______ _____ _____    ______ ____
ROOT
ATOM      1  N   LIG    1       25.311 -19.135   4.028  0.00  0.00    -0.331 N 
ATOM      2  C   LIG    1       26.007 -19.815   5.055  0.00  0.00    +0.145 A 
ATOM      3  C   LIG    1       25.292 -20.649   5.921  0.00  0.00    +0.065 A 
ATOM      4  C   LIG    1       25.960 -21.339   6.934  0.00  0.00    +0.017 A 
ATOM      5  C   LIG    1       27.334 -21.183   7.062  0.00  0.00    +0.024 A 
ATOM      6  C   LIG    1       27.992 -20.343   6.171  0.00  0.00    +0.041 A 
ATOM      7  C   LIG    1       29.475 -20.146   6.279  0.00  0.00    +0.065 C 
ATOM      8  C   LIG    1       23.832 -20.800   5.758  0.00  0.00    +0.205 A 
ATOM      9  O   LIG    1       23.173 -21.527   6.501  0.00  0.00    -0.286 OA
ATOM     10  C   LIG    1       23.160 -20.051   4.674  0.00  0.00    +0.122 A 
ATOM     11  N   LIG    1       27.347 -19.663   5.190  0.00  0.00    -0.234 NA
ATOM     12  C   LIG    1       23.940 -19.280   3.902  0.00  0.00    +0.106 A 
ENDROOT
BRANCH   1  14
ATOM     13  C   LIG    1       25.711 -16.811   3.313  0.00  0.00    +0.027 C 
ATOM     14  C   LIG    1       26.110 -18.270   3.151  0.00  0.00    +0.120 C 
ENDBRANCH   1  14
BRANCH  10  15
ATOM     15  C   LIG    1       21.709 -20.117   4.406  0.00  0.00    +0.342 C 
ATOM     16  O   LIG    1       21.032 -19.137   4.129  0.00  0.00    -0.245 OA
BRANCH  15  17
ATOM     17  O   LIG    1       21.178 -21.355   4.490  0.00  0.00    -0.477 OA
ATOM     18  H   LIG    1       21.433 -21.956   3.745  0.00  0.00    +0.295 HD
ENDBRANCH  15  17
ENDBRANCH  10  15
TORSDOF 3
ENDMDL
MODEL 2
REMARK VINA RESULT:      -2.5      2.249      4.688
REMARK  Name = *****
REMARK                            x       y       z     vdW  Elec       q    Type
REMARK                         _______ _______ _______ _____ _____    ______ ____
ROOT
ATOM      1  N   LIG    1       27.717 -18.329   4.694  0.00  0.00    -0.331 N 
ATOM      2  C   LIG    1       27.200 -17.123   4.166  0.00  0.00    +0.145 A 
ATOM      3  C   LIG    1       25.886 -17.101   3.684  0.00  0.00    +0.065 A 
ATOM      4  C   LIG    1       25.351 -15.920   3.169  0.00  0.00    +0.017 A 
ATOM      5  C   LIG    1       26.140 -14.777   3.146  0.00  0.00    +0.024 A 
ATOM      6  C   LIG    1       27.437 -14.857   3.640  0.00  0.00    +0.041 A 
ATOM      7  C   LIG    1       28.322 -13.646   3.629  0.00  0.00    +0.065 C 
ATOM      8  C   LIG    1       25.068 -18.331   3.726  0.00  0.00    +0.205 A 
ATOM      9  O   LIG    1       23.909 -18.347   3.313  0.00  0.00    -0.286 OA
ATOM     10  C   LIG    1       25.671 -19.564   4.278  0.00  0.00    +0.122 A 
ATOM     11  N   LIG    1       27.966 -16.005   4.134  0.00  0.00    -0.234 NA
ATOM     12  C   LIG    1       26.937 -19.472   4.711  0.00  0.00    +0.106 A 
ENDROOT
BRANCH   1  14
ATOM     13  C   LIG    1       29.306 -19.285   6.318  0.00  0.00    +0.027 C 
ATOM     14  C   LIG    1       29.102 -18.294   5.181  0.00  0.00    +0.120 C 
ENDBRANCH   1  14
BRANCH  10  15
ATOM     15  C   LIG    1       24.959 -20.854   4.376  0.00  0.00    +0.342 C 
ATOM     16  O   LIG    1       25.003 -21.571   5.365  0.00  0.00    -0.245 OA
BRANCH  15  17
ATOM     17  O   LIG    1       24.246 -21.186   3.280  0.00  0.00    -0.477 OA
ATOM     18  H   LIG    1       24.363 -20.565   2.518  0.00  0.00    +0.295 HD
ENDBRANCH  15  17
ENDBRANCH  10  15
TORSDOF 3
ENDMDL
MODEL 3
REMARK VINA RESULT:      -2.4      3.893      5.665
REMARK  Name = *****
REMARK                            x       y       z     vdW  Elec       q    Type
REMARK                         _______ _______ _______ _____ _____    ______ ____
ROOT
ATOM      1  N   LIG    1       23.199 -16.304   4.397  0.00  0.00    -0.331 N 
ATOM      2  C   LIG    1       23.559 -17.664   4.248  0.00  0.00    +0.145 A 
ATOM      3  C   LIG    1       24.825 -17.980   3.743  0.00  0.00    +0.065 A 
ATOM      4  C   LIG    1       25.206 -19.314   3.599  0.00  0.00    +0.017 A 
ATOM      5  C   LIG    1       24.313 -20.313   3.965  0.00  0.00    +0.024 A 
ATOM      6  C   LIG    1       23.070 -19.941   4.464  0.00  0.00    +0.041 A 
ATOM      7  C   LIG    1       22.077 -20.990   4.867  0.00  0.00    +0.065 C 
ATOM      8  C   LIG    1       25.757 -16.897   3.366  0.00  0.00    +0.205 A 
ATOM      9  O   LIG    1       26.878 -17.138   2.921  0.00  0.00    -0.286 OA
ATOM     10  C   LIG    1       25.315 -15.494   3.532  0.00  0.00    +0.122 A 
ATOM     11  N   LIG    1       22.691 -18.645   4.598  0.00  0.00    -0.234 NA
ATOM     12  C   LIG    1       24.082 -15.306   4.026  0.00  0.00    +0.106 A 
ENDROOT
BRANCH   1  14
ATOM     13  C   LIG    1       21.935 -15.328   6.274  0.00  0.00    +0.027 C 
ATOM     14  C   LIG    1       21.857 -16.033   4.928  0.00  0.00    +0.120 C 
ENDBRANCH   1  14
BRANCH  10  15
ATOM     15  C   LIG    1       26.151 -14.325   3.195  0.00  0.00    +0.342 C 
ATOM     16  O   LIG    1       26.410 -13.432   3.990  0.00  0.00    -0.245 OA
BRANCH  15  17
ATOM     17  O   LIG    1       26.616 -14.314   1.928  0.00  0.00    -0.477 OA
ATOM     18  H   LIG    1       25.928 -14.110   1.246  0.00  0.00    +0.295 HD
ENDBRANCH  15  17
ENDBRANCH  10  15
TORSDOF 3
ENDMDL
MODEL 4
REMARK VINA RESULT:      -2.4      3.368      5.815
REMARK  Name = *****
REMARK                            x       y       z     vdW  Elec       q    Type
REMARK                         _______ _______ _______ _____ _____    ______ ____
ROOT
ATOM      1  N   LIG    1       25.847 -18.311   3.709  0.00  0.00    -0.331 N 
ATOM      2  C   LIG    1       24.463 -18.270   4.003  0.00  0.00    +0.145 A 
ATOM      3  C   LIG    1       23.807 -17.034   4.011  0.00  0.00    +0.065 A 
ATOM      4  C   LIG    1       22.441 -16.971   4.287  0.00  0.00    +0.017 A 
ATOM      5  C   LIG    1       21.752 -18.148   4.549  0.00  0.00    +0.024 A 
ATOM      6  C   LIG    1       22.455 -19.348   4.526  0.00  0.00    +0.041 A 
ATOM      7  C   LIG    1       21.747 -20.639   4.808  0.00  0.00    +0.065 C 
ATOM      8  C   LIG    1       24.564 -15.799   3.722  0.00  0.00    +0.205 A 
ATOM      9  O   LIG    1       24.019 -14.696   3.717  0.00  0.00    -0.286 OA
ATOM     10  C   LIG    1       26.012 -15.907   3.435  0.00  0.00    +0.122 A 
ATOM     11  N   LIG    1       23.785 -19.414   4.267  0.00  0.00    -0.234 NA
ATOM     12  C   LIG    1       26.538 -17.140   3.454  0.00  0.00    +0.106 A 
ENDROOT
BRANCH   1  14
ATOM     13  C   LIG    1       26.954 -20.002   5.119  0.00  0.00    +0.027 C 
ATOM     14  C   LIG    1       26.483 -19.634   3.719  0.00  0.00    +0.120 C 
ENDBRANCH   1  14
BRANCH  10  15
ATOM     15  C   LIG    1       26.877 -14.749   3.131  0.00  0.00    +0.342 C 
ATOM     16  O   LIG    1       27.762 -14.357   3.880  0.00  0.00    -0.245 OA
BRANCH  15  17
ATOM     17  O   LIG    1       26.619 -14.150   1.950  0.00  0.00    -0.477 OA
ATOM     18  H   LIG    1       27.153 -13.333   1.786  0.00  0.00    +0.295 HD
ENDBRANCH  15  17
ENDBRANCH  10  15
TORSDOF 3
ENDMDL
MODEL 5
REMARK VINA RESULT:      -2.0      3.879      6.365
REMARK  Name = *****
REMARK                            x       y       z     vdW  Elec       q    Type
REMARK                         _______ _______ _______ _____ _____    ______ ____
ROOT
ATOM      1  N   LIG    1       25.804 -17.421   3.417  0.00  0.00    -0.331 N 
ATOM      2  C   LIG    1       24.464 -17.286   3.849  0.00  0.00    +0.145 A 
ATOM      3  C   LIG    1       23.961 -16.007   4.111  0.00  0.00    +0.065 A 
ATOM      4  C   LIG    1       22.639 -15.848   4.528  0.00  0.00    +0.017 A 
ATOM      5  C   LIG    1       21.839 -16.975   4.673  0.00  0.00    +0.024 A 
ATOM      6  C   LIG    1       22.392 -18.221   4.397  0.00  0.00    +0.041 A 
ATOM      7  C   LIG    1       21.562 -19.461   4.546  0.00  0.00    +0.065 C 
ATOM      8  C   LIG    1       24.832 -14.826   3.942  0.00  0.00    +0.205 A 
ATOM      9  O   LIG    1       24.423 -13.686   4.161  0.00  0.00    -0.286 OA
ATOM     10  C   LIG    1       26.229 -15.034   3.500  0.00  0.00    +0.122 A 
ATOM     11  N   LIG    1       23.679 -18.381   4.000  0.00  0.00    -0.234 NA
ATOM     12  C   LIG    1       26.606 -16.302   3.278  0.00  0.00    +0.106 A 
ENDROOT
BRANCH   1  14
ATOM     13  C   LIG    1       26.594 -19.507   4.464  0.00  0.00    +0.027 C 
ATOM     14  C   LIG    1       26.279 -18.787   3.161  0.00  0.00    +0.120 C 
ENDBRANCH   1  14
BRANCH  10  15
ATOM     15  C   LIG    1       27.198 -13.939   3.294  0.00  0.00    +0.342 C 
ATOM     16  O   LIG    1       28.302 -13.911   3.818  0.00  0.00    -0.245 OA
BRANCH  15  17
ATOM     17  O   LIG    1       26.769 -12.958   2.471  0.00  0.00    -0.477 OA
ATOM     18  H   LIG    1       27.051 -13.069   1.529  0.00  0.00    +0.295 HD
ENDBRANCH  15  17
ENDBRANCH  10  15
TORSDOF 3
ENDMDL
