MODEL 1
REMARK VINA RESULT:       6.6      0.000      0.000
REMARK  Name = *****
REMARK                            x       y       z     vdW  Elec       q    Type
REMARK                         _______ _______ _______ _____ _____    ______ ____
ROOT
ATOM      1  C   LIG    1       24.333 -17.837   3.985  0.00  0.00    -0.007 A 
ATOM      2  C   LIG    1       23.633 -16.667   4.286  0.00  0.00    +0.010 A 
ATOM      3  C   LIG    1       24.266 -15.432   4.154  0.00  0.00    +0.010 A 
ATOM      4  C   LIG    1       25.596 -15.369   3.722  0.00  0.00    -0.007 A 
ATOM      5  C   LIG    1       26.297 -16.538   3.414  0.00  0.00    +0.010 A 
ATOM      6  C   LIG    1       25.661 -17.776   3.545  0.00  0.00    +0.010 A 
ENDROOT
BRANCH   1   8
ATOM      7  N   LIG    1       24.380 -20.217   4.433  0.00  0.00    -0.276 NA
ATOM      8  C   LIG    1       23.696 -19.159   4.149  0.00  0.00    +0.113 C 
BRANCH   7  11
ATOM      9  O   LIG    1       22.347 -21.572   2.420  0.00  0.00    -0.271 OA
ATOM     10  C   LIG    1       22.363 -21.386   3.625  0.00  0.00    +0.263 C 
ATOM     11  C   LIG    1       23.576 -21.456   4.516  0.00  0.00    +0.220 C 
ATOM     12  C   LIG    1       22.900 -21.571   5.879  0.00  0.00    +0.226 C 
ATOM     13  O   LIG    1       21.600 -20.969   5.766  0.00  0.00    -0.277 OA
ATOM     14  N   LIG    1       21.286 -21.030   4.393  0.00  0.00    -0.193 N 
ATOM     15  H   LIG    1       20.330 -20.947   4.077  0.00  0.00    +0.182 HD
ENDBRANCH   7  11
ENDBRANCH   1   8
BRANCH   4  16
ATOM     16  C   LIG    1       26.270 -14.063   3.599  0.00  0.00    +0.113 C 
ATOM     17  N   LIG    1       26.473 -13.334   4.641  0.00  0.00    -0.276 NA
BRANCH  17  18
ATOM     18  C   LIG    1       27.167 -12.059   4.399  0.00  0.00    +0.220 C 
ATOM     19  C   LIG    1       27.616 -11.951   2.967  0.00  0.00    +0.263 C 
ATOM     20  O   LIG    1       26.933 -11.587   2.024  0.00  0.00    -0.271 OA
ATOM     21  N   LIG    1       28.912 -12.395   2.893  0.00  0.00    -0.193 N 
ATOM     22  H   LIG    1       29.499 -12.370   2.072  0.00  0.00    +0.182 HD
ATOM     23  O   LIG    1       29.472 -12.624   4.170  0.00  0.00    -0.277 OA
ATOM     24  C   LIG    1       28.521 -12.079   5.099  0.00  0.00    +0.226 C 
ENDBRANCH  17  18
ENDBRANCH   4  16
TORSDOF 4
ENDMDL
MODEL 2
REMARK VINA RESULT:       7.2      0.186      8.681
REMARK  Name = *****
REMARK                            x       y       z     vdW  Elec       q    Type
REMARK                         _______ _______ _______ _____ _____    ______ ____
ROOT
ATOM      1  C   LIG    1       25.671 -15.368   3.801  0.00  0.00    -0.007 A 
ATOM      2  C   LIG    1       24.292 -15.448   3.997  0.00  0.00    +0.010 A 
ATOM      3  C   LIG    1       23.672 -16.696   4.042  0.00  0.00    +0.010 A 
ATOM      4  C   LIG    1       24.434 -17.861   3.889  0.00  0.00    -0.007 A 
ATOM      5  C   LIG    1       25.816 -17.784   3.698  0.00  0.00    +0.010 A 
ATOM      6  C   LIG    1       26.436 -16.532   3.656  0.00  0.00    +0.010 A 
ENDROOT
BRANCH   1   8
ATOM      7  N   LIG    1       26.449 -13.274   4.738  0.00  0.00    -0.276 NA
ATOM      8  C   LIG    1       26.345 -14.056   3.716  0.00  0.00    +0.113 C 
BRANCH   7  11
ATOM      9  O   LIG    1       26.701 -11.552   2.094  0.00  0.00    -0.271 OA
ATOM     10  C   LIG    1       27.467 -11.860   2.992  0.00  0.00    +0.263 C 
ATOM     11  C   LIG    1       27.117 -11.986   4.451  0.00  0.00    +0.220 C 
ATOM     12  C   LIG    1       28.513 -11.953   5.065  0.00  0.00    +0.226 C 
ATOM     13  O   LIG    1       29.433 -12.427   4.067  0.00  0.00    -0.277 OA
ATOM     14  N   LIG    1       28.785 -12.199   2.835  0.00  0.00    -0.193 N 
ATOM     15  H   LIG    1       29.311 -12.167   1.973  0.00  0.00    +0.182 HD
ENDBRANCH   7  11
ENDBRANCH   1   8
BRANCH   4  16
ATOM     16  C   LIG    1       23.775 -19.181   3.919  0.00  0.00    +0.113 C 
ATOM     17  N   LIG    1       24.327 -20.170   4.532  0.00  0.00    -0.276 NA
BRANCH  17  18
ATOM     18  C   LIG    1       23.573 -21.433   4.508  0.00  0.00    +0.220 C 
ATOM     19  C   LIG    1       22.445 -21.370   3.512  0.00  0.00    +0.263 C 
ATOM     20  O   LIG    1       22.533 -21.571   2.313  0.00  0.00    -0.271 OA
ATOM     21  N   LIG    1       21.311 -20.983   4.179  0.00  0.00    -0.193 N 
ATOM     22  H   LIG    1       20.383 -20.926   3.783  0.00  0.00    +0.182 HD
ATOM     23  O   LIG    1       21.497 -20.954   5.579  0.00  0.00    -0.277 OA
ATOM     24  C   LIG    1       22.776 -21.572   5.800  0.00  0.00    +0.226 C 
ENDBRANCH  17  18
ENDBRANCH   4  16
TORSDOF 4
ENDMDL
MODEL 3
REMARK VINA RESULT:       7.3      1.064      8.776
REMARK  Name = *****
REMARK                            x       y       z     vdW  Elec       q    Type
REMARK                         _______ _______ _______ _____ _____    ______ ____
ROOT
ATOM      1  C   LIG    1       26.405 -15.781   3.573  0.00  0.00    -0.007 A 
ATOM      2  C   LIG    1       27.086 -16.991   3.434  0.00  0.00    +0.010 A 
ATOM      3  C   LIG    1       26.379 -18.192   3.492  0.00  0.00    +0.010 A 
ATOM      4  C   LIG    1       24.993 -18.178   3.688  0.00  0.00    -0.007 A 
ATOM      5  C   LIG    1       24.307 -16.967   3.822  0.00  0.00    +0.010 A 
ATOM      6  C   LIG    1       25.017 -15.764   3.762  0.00  0.00    +0.010 A 
ENDROOT
BRANCH   1   8
ATOM      7  N   LIG    1       28.381 -14.415   3.886  0.00  0.00    -0.276 NA
ATOM      8  C   LIG    1       27.137 -14.498   3.549  0.00  0.00    +0.113 C 
BRANCH   7  11
ATOM      9  O   LIG    1       29.049 -12.316   6.160  0.00  0.00    -0.271 OA
ATOM     10  C   LIG    1       28.532 -12.249   5.057  0.00  0.00    +0.263 C 
ATOM     11  C   LIG    1       28.932 -13.043   3.841  0.00  0.00    +0.220 C 
ATOM     12  C   LIG    1       28.251 -12.223   2.750  0.00  0.00    +0.226 C 
ATOM     13  O   LIG    1       27.137 -11.544   3.355  0.00  0.00    -0.277 OA
ATOM     14  N   LIG    1       27.454 -11.471   4.726  0.00  0.00    -0.193 N 
ATOM     15  H   LIG    1       26.996 -10.800   5.328  0.00  0.00    +0.182 HD
ENDBRANCH   7  11
ENDBRANCH   1   8
BRANCH   4  16
ATOM     16  C   LIG    1       24.247 -19.448   3.767  0.00  0.00    +0.113 C 
ATOM     17  N   LIG    1       24.410 -20.239   4.770  0.00  0.00    -0.276 NA
BRANCH  17  18
ATOM     18  C   LIG    1       23.603 -21.469   4.748  0.00  0.00    +0.220 C 
ATOM     19  C   LIG    1       22.479 -21.360   3.752  0.00  0.00    +0.263 C 
ATOM     20  O   LIG    1       22.560 -21.568   2.553  0.00  0.00    -0.271 OA
ATOM     21  N   LIG    1       21.362 -20.925   4.417  0.00  0.00    -0.193 N 
ATOM     22  H   LIG    1       20.438 -20.830   4.021  0.00  0.00    +0.182 HD
ATOM     23  O   LIG    1       21.549 -20.901   5.818  0.00  0.00    -0.277 OA
ATOM     24  C   LIG    1       22.801 -21.572   6.040  0.00  0.00    +0.226 C 
ENDBRANCH  17  18
ENDBRANCH   4  16
TORSDOF 4
ENDMDL
MODEL 4
REMARK VINA RESULT:       8.2      1.155      1.770
REMARK  Name = *****
REMARK                            x       y       z     vdW  Elec       q    Type
REMARK                         _______ _______ _______ _____ _____    ______ ____
ROOT
ATOM      1  C   LIG    1       25.222 -18.052   3.991  0.00  0.00    -0.007 A 
ATOM      2  C   LIG    1       24.512 -16.861   3.829  0.00  0.00    +0.010 A 
ATOM      3  C   LIG    1       25.199 -15.647   3.801  0.00  0.00    +0.010 A 
ATOM      4  C   LIG    1       26.592 -15.628   3.936  0.00  0.00    -0.007 A 
ATOM      5  C   LIG    1       27.305 -16.820   4.093  0.00  0.00    +0.010 A 
ATOM      6  C   LIG    1       26.616 -18.036   4.119  0.00  0.00    +0.010 A 
ENDROOT
BRANCH   1   8
ATOM      7  N   LIG    1       24.677 -20.164   5.043  0.00  0.00    -0.276 NA
ATOM      8  C   LIG    1       24.514 -19.346   4.057  0.00  0.00    +0.113 C 
BRANCH   7  11
ATOM      9  O   LIG    1       23.291 -21.571   2.570  0.00  0.00    -0.271 OA
ATOM     10  C   LIG    1       22.982 -21.392   3.736  0.00  0.00    +0.263 C 
ATOM     11  C   LIG    1       23.918 -21.428   4.915  0.00  0.00    +0.220 C 
ATOM     12  C   LIG    1       22.912 -21.572   6.052  0.00  0.00    +0.226 C 
ATOM     13  O   LIG    1       21.668 -21.010   5.598  0.00  0.00    -0.277 OA
ATOM     14  N   LIG    1       21.730 -21.073   4.191  0.00  0.00    -0.193 N 
ATOM     15  H   LIG    1       20.889 -21.019   3.634  0.00  0.00    +0.182 HD
ENDBRANCH   7  11
ENDBRANCH   1   8
BRANCH   4  16
ATOM     16  C   LIG    1       27.316 -14.343   3.924  0.00  0.00    +0.113 C 
ATOM     17  N   LIG    1       28.584 -14.312   3.703  0.00  0.00    -0.276 NA
BRANCH  17  18
ATOM     18  C   LIG    1       29.196 -12.974   3.701  0.00  0.00    +0.220 C 
ATOM     19  C   LIG    1       28.838 -12.213   4.950  0.00  0.00    +0.263 C 
ATOM     20  O   LIG    1       29.395 -12.304   6.031  0.00  0.00    -0.271 OA
ATOM     21  N   LIG    1       27.734 -11.447   4.679  0.00  0.00    -0.193 N 
ATOM     22  H   LIG    1       27.311 -10.776   5.305  0.00  0.00    +0.182 HD
ATOM     23  O   LIG    1       27.400 -11.455   3.306  0.00  0.00    -0.277 OA
ATOM     24  C   LIG    1       28.506 -12.104   2.656  0.00  0.00    +0.226 C 
ENDBRANCH  17  18
ENDBRANCH   4  16
TORSDOF 4
ENDMDL
MODEL 5
REMARK VINA RESULT:       8.4      1.175      1.636
REMARK  Name = *****
REMARK                            x       y       z     vdW  Elec       q    Type
REMARK                         _______ _______ _______ _____ _____    ______ ____
ROOT
ATOM      1  C   LIG    1       24.880 -17.893   3.719  0.00  0.00    -0.007 A 
ATOM      2  C   LIG    1       26.222 -17.805   3.345  0.00  0.00    +0.010 A 
ATOM      3  C   LIG    1       26.861 -16.566   3.356  0.00  0.00    +0.010 A 
ATOM      4  C   LIG    1       26.158 -15.419   3.741  0.00  0.00    -0.007 A 
ATOM      5  C   LIG    1       24.816 -15.505   4.122  0.00  0.00    +0.010 A 
ATOM      6  C   LIG    1       24.176 -16.748   4.112  0.00  0.00    +0.010 A 
ENDROOT
BRANCH   1   8
ATOM      7  N   LIG    1       22.908 -19.269   3.430  0.00  0.00    -0.276 NA
ATOM      8  C   LIG    1       24.172 -19.188   3.683  0.00  0.00    +0.113 C 
BRANCH   7  11
ATOM      9  O   LIG    1       20.016 -20.394   4.057  0.00  0.00    -0.271 OA
ATOM     10  C   LIG    1       21.149 -20.726   4.363  0.00  0.00    +0.263 C 
ATOM     11  C   LIG    1       22.366 -20.645   3.479  0.00  0.00    +0.220 C 
ATOM     12  C   LIG    1       23.310 -21.571   4.237  0.00  0.00    +0.226 C 
ATOM     13  O   LIG    1       22.898 -21.572   5.614  0.00  0.00    -0.277 OA
ATOM     14  N   LIG    1       21.541 -21.193   5.590  0.00  0.00    -0.193 N 
ATOM     15  H   LIG    1       20.934 -21.391   6.373  0.00  0.00    +0.182 HD
ENDBRANCH   7  11
ENDBRANCH   1   8
BRANCH   4  16
ATOM     16  C   LIG    1       26.830 -14.105   3.737  0.00  0.00    +0.113 C 
ATOM     17  N   LIG    1       26.473 -13.188   4.567  0.00  0.00    -0.276 NA
BRANCH  17  18
ATOM     18  C   LIG    1       27.223 -11.925   4.479  0.00  0.00    +0.220 C 
ATOM     19  C   LIG    1       28.318 -12.017   3.450  0.00  0.00    +0.263 C 
ATOM     20  O   LIG    1       28.190 -11.852   2.248  0.00  0.00    -0.271 OA
ATOM     21  N   LIG    1       29.474 -12.382   4.090  0.00  0.00    -0.193 N 
ATOM     22  H   LIG    1       30.388 -12.449   3.666  0.00  0.00    +0.182 HD
ATOM     23  O   LIG    1       29.334 -12.369   5.496  0.00  0.00    -0.277 OA
ATOM     24  C   LIG    1       28.062 -11.746   5.740  0.00  0.00    +0.226 C 
ENDBRANCH  17  18
ENDBRANCH   4  16
TORSDOF 4
ENDMDL
