MODEL 1
REMARK VINA RESULT:      -8.3      0.000      0.000
REMARK  Name = *****
REMARK                            x       y       z     vdW  Elec       q    Type
REMARK                         _______ _______ _______ _____ _____    ______ ____
ROOT
ATOM      1  N   LIG    1       29.021 -20.854   7.254  0.00  0.00    -0.119 NA
ATOM      2  C   LIG    1       28.222 -21.703   7.843  0.00  0.00    +0.158 C 
ENDROOT
BRANCH   2   3
ATOM      3  C   LIG    1       26.771 -21.623   7.953  0.00  0.00    +0.021 C 
ATOM      4  C   LIG    1       25.792 -22.579   7.495  0.00  0.00    +0.012 C 
ATOM      5  C   LIG    1       24.537 -21.990   7.677  0.00  0.00    +0.047 C 
ATOM      6  C   LIG    1       23.344 -22.582   7.273  0.00  0.00    +0.030 C 
ATOM      7  C   LIG    1       23.421 -23.820   6.648  0.00  0.00    +0.048 C 
ATOM      8  C   LIG    1       24.637 -24.483   6.485  0.00  0.00    +0.121 C 
ATOM      9  N   LIG    1       24.728 -20.784   8.298  0.00  0.00    -0.360 NA
ATOM     10  H   LIG    1       23.983 -20.159   8.575  0.00  0.00    +0.165 HD
ATOM     11  C   LIG    1       25.831 -23.882   6.932  0.00  0.00    +0.056 C 
ATOM     12  C   LIG    1       26.060 -20.534   8.430  0.00  0.00    +0.093 C 
BRANCH   8  13
ATOM     13  O   LIG    1       24.747 -25.723   5.896  0.00  0.00    -0.495 OA
ATOM     14  C   LIG    1       26.051 -26.309   5.973  0.00  0.00    +0.277 C 
ENDBRANCH   8  13
ENDBRANCH   2   3
BRANCH   1  15
ATOM     15  N   LIG    1       28.503 -19.668   6.808  0.00  0.00    -0.155 N 
ATOM     16  H   LIG    1       28.661 -18.826   7.358  0.00  0.00    +0.292 HD
BRANCH  15  17
ATOM     17  C   LIG    1       28.310 -19.328   5.490  0.00  0.00    +0.402 C 
ATOM     18  N   LIG    1       28.952 -18.363   4.964  0.00  0.00    -0.128 NA
ATOM     19  H   LIG    1       28.635 -18.262   3.996  0.00  0.00    +0.306 HD
BRANCH  17  20
ATOM     20  N   LIG    1       27.384 -20.112   4.871  0.00  0.00    -0.274 N 
ATOM     21  H   LIG    1       27.830 -20.608   4.105  0.00  0.00    +0.258 HD
BRANCH  20  22
ATOM     22  C   LIG    1       26.035 -19.676   4.555  0.00  0.00    +0.196 C 
BRANCH  22  23
ATOM     23  C   LIG    1       25.095 -20.875   4.412  0.00  0.00    +0.037 C 
BRANCH  23  24
ATOM     24  C   LIG    1       23.685 -20.444   4.004  0.00  0.00    +0.003 C 
BRANCH  24  26
ATOM     25  C   LIG    1       22.238 -18.465   4.571  0.00  0.00    +0.004 C 
ATOM     26  C   LIG    1       22.966 -19.684   5.121  0.00  0.00    -0.003 C 
ENDBRANCH  24  26
ENDBRANCH  23  24
ENDBRANCH  22  23
ENDBRANCH  20  22
ENDBRANCH  17  20
ENDBRANCH  15  17
ENDBRANCH   1  15
TORSDOF 9
ENDMDL
MODEL 2
REMARK VINA RESULT:      -8.2      3.051      5.541
REMARK  Name = *****
REMARK                            x       y       z     vdW  Elec       q    Type
REMARK                         _______ _______ _______ _____ _____    ______ ____
ROOT
ATOM      1  N   LIG    1       25.913 -23.134   7.970  0.00  0.00    -0.119 NA
ATOM      2  C   LIG    1       26.445 -21.947   8.077  0.00  0.00    +0.158 C 
ENDROOT
BRANCH   2   3
ATOM      3  C   LIG    1       26.972 -21.113   7.004  0.00  0.00    +0.021 C 
ATOM      4  C   LIG    1       28.259 -20.464   6.935  0.00  0.00    +0.012 C 
ATOM      5  C   LIG    1       28.240 -19.650   5.799  0.00  0.00    +0.047 C 
ATOM      6  C   LIG    1       29.284 -18.800   5.444  0.00  0.00    +0.030 C 
ATOM      7  C   LIG    1       30.393 -18.762   6.279  0.00  0.00    +0.048 C 
ATOM      8  C   LIG    1       30.495 -19.588   7.398  0.00  0.00    +0.121 C 
ATOM      9  N   LIG    1       27.049 -19.859   5.155  0.00  0.00    -0.360 NA
ATOM     10  H   LIG    1       26.783 -19.416   4.286  0.00  0.00    +0.165 HD
ATOM     11  C   LIG    1       29.442 -20.467   7.721  0.00  0.00    +0.056 C 
ATOM     12  C   LIG    1       26.266 -20.699   5.887  0.00  0.00    +0.093 C 
BRANCH   8  13
ATOM     13  O   LIG    1       31.591 -19.596   8.231  0.00  0.00    -0.495 OA
ATOM     14  C   LIG    1       31.900 -18.332   8.827  0.00  0.00    +0.277 C 
ENDBRANCH   8  13
ENDBRANCH   2   3
BRANCH   1  15
ATOM     15  N   LIG    1       25.968 -23.771   6.760  0.00  0.00    -0.155 N 
ATOM     16  H   LIG    1       26.764 -24.374   6.558  0.00  0.00    +0.292 HD
BRANCH  15  17
ATOM     17  C   LIG    1       24.882 -24.181   6.024  0.00  0.00    +0.402 C 
ATOM     18  N   LIG    1       24.985 -24.395   4.773  0.00  0.00    -0.128 NA
ATOM     19  H   LIG    1       24.061 -24.657   4.420  0.00  0.00    +0.306 HD
BRANCH  17  20
ATOM     20  N   LIG    1       23.751 -24.308   6.773  0.00  0.00    -0.274 N 
ATOM     21  H   LIG    1       23.524 -25.292   6.864  0.00  0.00    +0.258 HD
BRANCH  20  22
ATOM     22  C   LIG    1       22.577 -23.466   6.614  0.00  0.00    +0.196 C 
BRANCH  22  23
ATOM     23  C   LIG    1       22.949 -21.987   6.733  0.00  0.00    +0.037 C 
BRANCH  23  24
ATOM     24  C   LIG    1       22.579 -21.206   5.470  0.00  0.00    +0.003 C 
BRANCH  24  26
ATOM     25  C   LIG    1       22.229 -18.937   4.440  0.00  0.00    +0.004 C 
ATOM     26  C   LIG    1       22.761 -19.697   5.647  0.00  0.00    -0.003 C 
ENDBRANCH  24  26
ENDBRANCH  23  24
ENDBRANCH  22  23
ENDBRANCH  20  22
ENDBRANCH  17  20
ENDBRANCH  15  17
ENDBRANCH   1  15
TORSDOF 9
ENDMDL
MODEL 3
REMARK VINA RESULT:      -7.8      2.993      6.538
REMARK  Name = *****
REMARK                            x       y       z     vdW  Elec       q    Type
REMARK                         _______ _______ _______ _____ _____    ______ ____
ROOT
ATOM      1  N   LIG    1       24.422 -21.976   7.914  0.00  0.00    -0.119 NA
ATOM      2  C   LIG    1       25.000 -20.823   7.709  0.00  0.00    +0.158 C 
ENDROOT
BRANCH   2   3
ATOM      3  C   LIG    1       26.027 -20.509   6.725  0.00  0.00    +0.021 C 
ATOM      4  C   LIG    1       27.406 -20.156   6.962  0.00  0.00    +0.012 C 
ATOM      5  C   LIG    1       27.946 -19.787   5.726  0.00  0.00    +0.047 C 
ATOM      6  C   LIG    1       29.242 -19.304   5.567  0.00  0.00    +0.030 C 
ATOM      7  C   LIG    1       30.024 -19.176   6.709  0.00  0.00    +0.048 C 
ATOM      8  C   LIG    1       29.561 -19.577   7.961  0.00  0.00    +0.121 C 
ATOM      9  N   LIG    1       26.986 -19.994   4.772  0.00  0.00    -0.360 NA
ATOM     10  H   LIG    1       27.119 -19.835   3.782  0.00  0.00    +0.165 HD
ATOM     11  C   LIG    1       28.258 -20.096   8.096  0.00  0.00    +0.056 C 
ATOM     12  C   LIG    1       25.821 -20.384   5.361  0.00  0.00    +0.093 C 
BRANCH   8  13
ATOM     13  O   LIG    1       30.319 -19.490   9.108  0.00  0.00    -0.495 OA
ATOM     14  C   LIG    1       30.740 -18.165   9.449  0.00  0.00    +0.277 C 
ENDBRANCH   8  13
ENDBRANCH   2   3
BRANCH   1  15
ATOM     15  N   LIG    1       24.906 -23.077   7.260  0.00  0.00    -0.155 N 
ATOM     16  H   LIG    1       25.613 -23.649   7.718  0.00  0.00    +0.292 HD
BRANCH  15  17
ATOM     17  C   LIG    1       24.203 -23.844   6.361  0.00  0.00    +0.402 C 
ATOM     18  N   LIG    1       23.021 -24.238   6.625  0.00  0.00    -0.128 NA
ATOM     19  H   LIG    1       22.699 -24.816   5.844  0.00  0.00    +0.306 HD
BRANCH  17  20
ATOM     20  N   LIG    1       24.909 -24.114   5.228  0.00  0.00    -0.274 N 
ATOM     21  H   LIG    1       24.599 -23.491   4.489  0.00  0.00    +0.258 HD
BRANCH  20  22
ATOM     22  C   LIG    1       25.196 -25.458   4.755  0.00  0.00    +0.196 C 
BRANCH  22  23
ATOM     23  C   LIG    1       26.091 -26.204   5.747  0.00  0.00    +0.037 C 
BRANCH  23  24
ATOM     24  C   LIG    1       25.307 -27.250   6.542  0.00  0.00    +0.003 C 
BRANCH  24  26
ATOM     25  C   LIG    1       24.177 -29.484   6.287  0.00  0.00    +0.004 C 
ATOM     26  C   LIG    1       24.439 -28.131   5.640  0.00  0.00    -0.003 C 
ENDBRANCH  24  26
ENDBRANCH  23  24
ENDBRANCH  22  23
ENDBRANCH  20  22
ENDBRANCH  17  20
ENDBRANCH  15  17
ENDBRANCH   1  15
TORSDOF 9
ENDMDL
MODEL 4
REMARK VINA RESULT:      -7.7      3.682      5.941
REMARK  Name = *****
REMARK                            x       y       z     vdW  Elec       q    Type
REMARK                         _______ _______ _______ _____ _____    ______ ____
ROOT
ATOM      1  N   LIG    1       29.854 -19.849   6.408  0.00  0.00    -0.119 NA
ATOM      2  C   LIG    1       28.583 -19.929   6.119  0.00  0.00    +0.158 C 
ENDROOT
BRANCH   2   3
ATOM      3  C   LIG    1       27.525 -20.516   6.931  0.00  0.00    +0.021 C 
ATOM      4  C   LIG    1       26.121 -20.628   6.615  0.00  0.00    +0.012 C 
ATOM      5  C   LIG    1       25.486 -21.110   7.763  0.00  0.00    +0.047 C 
ATOM      6  C   LIG    1       24.107 -21.272   7.868  0.00  0.00    +0.030 C 
ATOM      7  C   LIG    1       23.334 -20.921   6.769  0.00  0.00    +0.048 C 
ATOM      8  C   LIG    1       23.912 -20.485   5.577  0.00  0.00    +0.121 C 
ATOM      9  N   LIG    1       26.453 -21.371   8.698  0.00  0.00    -0.360 NA
ATOM     10  H   LIG    1       26.274 -21.756   9.614  0.00  0.00    +0.165 HD
ATOM     11  C   LIG    1       25.312 -20.360   5.479  0.00  0.00    +0.056 C 
ATOM     12  C   LIG    1       27.671 -20.980   8.228  0.00  0.00    +0.093 C 
BRANCH   8  13
ATOM     13  O   LIG    1       23.178 -20.156   4.460  0.00  0.00    -0.495 OA
ATOM     14  C   LIG    1       22.399 -18.960   4.585  0.00  0.00    +0.277 C 
ENDBRANCH   8  13
ENDBRANCH   2   3
BRANCH   1  15
ATOM     15  N   LIG    1       30.316 -20.508   7.515  0.00  0.00    -0.155 N 
ATOM     16  H   LIG    1       30.206 -21.519   7.567  0.00  0.00    +0.292 HD
BRANCH  15  17
ATOM     17  C   LIG    1       31.390 -20.122   8.282  0.00  0.00    +0.402 C 
ATOM     18  N   LIG    1       31.866 -20.896   9.175  0.00  0.00    -0.128 NA
ATOM     19  H   LIG    1       32.631 -20.405   9.644  0.00  0.00    +0.306 HD
BRANCH  17  20
ATOM     20  N   LIG    1       31.836 -18.872   7.979  0.00  0.00    -0.274 N 
ATOM     21  H   LIG    1       32.717 -18.947   7.480  0.00  0.00    +0.258 HD
BRANCH  20  22
ATOM     22  C   LIG    1       31.803 -17.754   8.906  0.00  0.00    +0.196 C 
BRANCH  22  23
ATOM     23  C   LIG    1       30.410 -17.598   9.519  0.00  0.00    +0.037 C 
BRANCH  23  24
ATOM     24  C   LIG    1       30.478 -17.368  11.031  0.00  0.00    +0.003 C 
BRANCH  24  26
ATOM     25  C   LIG    1       32.104 -16.578  12.781  0.00  0.00    +0.004 C 
ATOM     26  C   LIG    1       31.508 -16.300  11.408  0.00  0.00    -0.003 C 
ENDBRANCH  24  26
ENDBRANCH  23  24
ENDBRANCH  22  23
ENDBRANCH  20  22
ENDBRANCH  17  20
ENDBRANCH  15  17
ENDBRANCH   1  15
TORSDOF 9
ENDMDL
MODEL 5
REMARK VINA RESULT:      -7.6      2.727      4.606
REMARK  Name = *****
REMARK                            x       y       z     vdW  Elec       q    Type
REMARK                         _______ _______ _______ _____ _____    ______ ____
ROOT
ATOM      1  N   LIG    1       29.157 -21.121   6.981  0.00  0.00    -0.119 NA
ATOM      2  C   LIG    1       28.323 -21.775   7.743  0.00  0.00    +0.158 C 
ENDROOT
BRANCH   2   3
ATOM      3  C   LIG    1       26.883 -21.578   7.853  0.00  0.00    +0.021 C 
ATOM      4  C   LIG    1       25.831 -22.487   7.466  0.00  0.00    +0.012 C 
ATOM      5  C   LIG    1       24.625 -21.794   7.609  0.00  0.00    +0.047 C 
ATOM      6  C   LIG    1       23.388 -22.322   7.252  0.00  0.00    +0.030 C 
ATOM      7  C   LIG    1       23.367 -23.603   6.715  0.00  0.00    +0.048 C 
ATOM      8  C   LIG    1       24.528 -24.366   6.596  0.00  0.00    +0.121 C 
ATOM      9  N   LIG    1       24.911 -20.566   8.144  0.00  0.00    -0.360 NA
ATOM     10  H   LIG    1       24.217 -19.869   8.378  0.00  0.00    +0.165 HD
ATOM     11  C   LIG    1       25.767 -23.826   6.995  0.00  0.00    +0.056 C 
ATOM     12  C   LIG    1       26.259 -20.409   8.254  0.00  0.00    +0.093 C 
BRANCH   8  13
ATOM     13  O   LIG    1       24.540 -25.648   6.094  0.00  0.00    -0.495 OA
ATOM     14  C   LIG    1       25.225 -25.796   4.846  0.00  0.00    +0.277 C 
ENDBRANCH   8  13
ENDBRANCH   2   3
BRANCH   1  15
ATOM     15  N   LIG    1       28.703 -20.023   6.303  0.00  0.00    -0.155 N 
ATOM     16  H   LIG    1       27.699 -19.862   6.244  0.00  0.00    +0.292 HD
BRANCH  15  17
ATOM     17  C   LIG    1       29.368 -18.825   6.188  0.00  0.00    +0.402 C 
ATOM     18  N   LIG    1       29.431 -18.218   5.071  0.00  0.00    -0.128 NA
ATOM     19  H   LIG    1       29.993 -17.373   5.201  0.00  0.00    +0.306 HD
BRANCH  17  20
ATOM     20  N   LIG    1       29.923 -18.412   7.362  0.00  0.00    -0.274 N 
ATOM     21  H   LIG    1       29.655 -17.449   7.534  0.00  0.00    +0.258 HD
BRANCH  20  22
ATOM     22  C   LIG    1       31.293 -18.699   7.753  0.00  0.00    +0.196 C 
BRANCH  22  23
ATOM     23  C   LIG    1       31.482 -18.491   9.257  0.00  0.00    +0.037 C 
BRANCH  23  24
ATOM     24  C   LIG    1       30.320 -17.709   9.872  0.00  0.00    +0.003 C 
BRANCH  24  26
ATOM     25  C   LIG    1       32.284 -16.841  11.183  0.00  0.00    +0.004 C 
ATOM     26  C   LIG    1       30.793 -16.692  10.914  0.00  0.00    -0.003 C 
ENDBRANCH  24  26
ENDBRANCH  23  24
ENDBRANCH  22  23
ENDBRANCH  20  22
ENDBRANCH  17  20
ENDBRANCH  15  17
ENDBRANCH   1  15
TORSDOF 9
ENDMDL
MODEL 6
REMARK VINA RESULT:      -7.4      2.871      6.286
REMARK  Name = *****
REMARK                            x       y       z     vdW  Elec       q    Type
REMARK                         _______ _______ _______ _____ _____    ______ ____
ROOT
ATOM      1  N   LIG    1       24.308 -20.844   8.092  0.00  0.00    -0.119 NA
ATOM      2  C   LIG    1       25.611 -20.791   8.137  0.00  0.00    +0.158 C 
ENDROOT
BRANCH   2   3
ATOM      3  C   LIG    1       26.523 -20.463   7.049  0.00  0.00    +0.021 C 
ATOM      4  C   LIG    1       27.897 -20.031   7.141  0.00  0.00    +0.012 C 
ATOM      5  C   LIG    1       28.298 -19.682   5.848  0.00  0.00    +0.047 C 
ATOM      6  C   LIG    1       29.545 -19.140   5.550  0.00  0.00    +0.030 C 
ATOM      7  C   LIG    1       30.423 -18.931   6.606  0.00  0.00    +0.048 C 
ATOM      8  C   LIG    1       30.103 -19.307   7.909  0.00  0.00    +0.121 C 
ATOM      9  N   LIG    1       27.264 -19.972   4.997  0.00  0.00    -0.360 NA
ATOM     10  H   LIG    1       27.295 -19.844   3.995  0.00  0.00    +0.165 HD
ATOM     11  C   LIG    1       28.848 -19.886   8.186  0.00  0.00    +0.056 C 
ATOM     12  C   LIG    1       26.183 -20.399   5.707  0.00  0.00    +0.093 C 
BRANCH   8  13
ATOM     13  O   LIG    1       30.959 -19.140   8.974  0.00  0.00    -0.495 OA
ATOM     14  C   LIG    1       31.851 -18.026   8.856  0.00  0.00    +0.277 C 
ENDBRANCH   8  13
ENDBRANCH   2   3
BRANCH   1  15
ATOM     15  N   LIG    1       23.689 -20.734   6.876  0.00  0.00    -0.155 N 
ATOM     16  H   LIG    1       24.111 -20.143   6.162  0.00  0.00    +0.292 HD
BRANCH  15  17
ATOM     17  C   LIG    1       22.931 -21.711   6.276  0.00  0.00    +0.402 C 
ATOM     18  N   LIG    1       22.398 -21.515   5.136  0.00  0.00    -0.128 NA
ATOM     19  H   LIG    1       21.857 -22.348   4.892  0.00  0.00    +0.306 HD
BRANCH  17  20
ATOM     20  N   LIG    1       22.828 -22.840   7.030  0.00  0.00    -0.274 N 
ATOM     21  H   LIG    1       22.990 -22.603   8.003  0.00  0.00    +0.258 HD
BRANCH  20  22
ATOM     22  C   LIG    1       23.405 -24.120   6.654  0.00  0.00    +0.196 C 
BRANCH  22  23
ATOM     23  C   LIG    1       24.921 -24.003   6.484  0.00  0.00    +0.037 C 
BRANCH  23  24
ATOM     24  C   LIG    1       25.587 -25.377   6.382  0.00  0.00    +0.003 C 
BRANCH  24  26
ATOM     25  C   LIG    1       26.278 -27.259   4.861  0.00  0.00    +0.004 C 
ATOM     26  C   LIG    1       25.459 -25.981   4.982  0.00  0.00    -0.003 C 
ENDBRANCH  24  26
ENDBRANCH  23  24
ENDBRANCH  22  23
ENDBRANCH  20  22
ENDBRANCH  17  20
ENDBRANCH  15  17
ENDBRANCH   1  15
TORSDOF 9
ENDMDL
MODEL 7
REMARK VINA RESULT:      -7.3      2.317      4.499
REMARK  Name = *****
REMARK                            x       y       z     vdW  Elec       q    Type
REMARK                         _______ _______ _______ _____ _____    ______ ____
ROOT
ATOM      1  N   LIG    1       27.051 -19.846   5.467  0.00  0.00    -0.119 NA
ATOM      2  C   LIG    1       25.937 -20.178   4.873  0.00  0.00    +0.158 C 
ENDROOT
BRANCH   2   3
ATOM      3  C   LIG    1       24.779 -20.834   5.465  0.00  0.00    +0.021 C 
ATOM      4  C   LIG    1       24.659 -22.208   5.894  0.00  0.00    +0.012 C 
ATOM      5  C   LIG    1       23.320 -22.407   6.239  0.00  0.00    +0.047 C 
ATOM      6  C   LIG    1       22.801 -23.640   6.625  0.00  0.00    +0.030 C 
ATOM      7  C   LIG    1       23.671 -24.722   6.654  0.00  0.00    +0.048 C 
ATOM      8  C   LIG    1       25.029 -24.577   6.372  0.00  0.00    +0.121 C 
ATOM      9  N   LIG    1       22.674 -21.205   6.122  0.00  0.00    -0.360 NA
ATOM     10  H   LIG    1       21.698 -21.056   6.338  0.00  0.00    +0.165 HD
ATOM     11  C   LIG    1       25.542 -23.314   6.016  0.00  0.00    +0.056 C 
ATOM     12  C   LIG    1       23.525 -20.267   5.620  0.00  0.00    +0.093 C 
BRANCH   8  13
ATOM     13  O   LIG    1       25.924 -25.622   6.418  0.00  0.00    -0.495 OA
ATOM     14  C   LIG    1       25.780 -26.581   5.365  0.00  0.00    +0.277 C 
ENDBRANCH   8  13
ENDBRANCH   2   3
BRANCH   1  15
ATOM     15  N   LIG    1       27.263 -20.276   6.749  0.00  0.00    -0.155 N 
ATOM     16  H   LIG    1       26.499 -20.727   7.249  0.00  0.00    +0.292 HD
BRANCH  15  17
ATOM     17  C   LIG    1       28.465 -20.710   7.257  0.00  0.00    +0.402 C 
ATOM     18  N   LIG    1       28.516 -21.347   8.358  0.00  0.00    -0.128 NA
ATOM     19  H   LIG    1       29.498 -21.544   8.565  0.00  0.00    +0.306 HD
BRANCH  17  20
ATOM     20  N   LIG    1       29.525 -20.373   6.471  0.00  0.00    -0.274 N 
ATOM     21  H   LIG    1       30.131 -21.181   6.370  0.00  0.00    +0.258 HD
BRANCH  20  22
ATOM     22  C   LIG    1       30.258 -19.125   6.594  0.00  0.00    +0.196 C 
BRANCH  22  23
ATOM     23  C   LIG    1       31.482 -19.300   7.495  0.00  0.00    +0.037 C 
BRANCH  23  24
ATOM     24  C   LIG    1       31.547 -18.221   8.579  0.00  0.00    +0.003 C 
BRANCH  24  26
ATOM     25  C   LIG    1       30.333 -17.355  10.605  0.00  0.00    +0.004 C 
ATOM     26  C   LIG    1       30.180 -17.957   9.215  0.00  0.00    -0.003 C 
ENDBRANCH  24  26
ENDBRANCH  23  24
ENDBRANCH  22  23
ENDBRANCH  20  22
ENDBRANCH  17  20
ENDBRANCH  15  17
ENDBRANCH   1  15
TORSDOF 9
ENDMDL
MODEL 8
REMARK VINA RESULT:      -7.3      2.791      4.935
REMARK  Name = *****
REMARK                            x       y       z     vdW  Elec       q    Type
REMARK                         _______ _______ _______ _____ _____    ______ ____
ROOT
ATOM      1  N   LIG    1       26.981 -21.514   8.640  0.00  0.00    -0.119 NA
ATOM      2  C   LIG    1       25.774 -21.873   8.296  0.00  0.00    +0.158 C 
ENDROOT
BRANCH   2   3
ATOM      3  C   LIG    1       25.354 -22.474   7.037  0.00  0.00    +0.021 C 
ATOM      4  C   LIG    1       25.387 -23.868   6.664  0.00  0.00    +0.012 C 
ATOM      5  C   LIG    1       25.041 -23.932   5.311  0.00  0.00    +0.047 C 
ATOM      6  C   LIG    1       25.042 -25.112   4.572  0.00  0.00    +0.030 C 
ATOM      7  C   LIG    1       25.421 -26.278   5.226  0.00  0.00    +0.048 C 
ATOM      8  C   LIG    1       25.726 -26.289   6.586  0.00  0.00    +0.121 C 
ATOM      9  N   LIG    1       24.720 -22.665   4.902  0.00  0.00    -0.360 NA
ATOM     10  H   LIG    1       24.405 -22.427   3.971  0.00  0.00    +0.165 HD
ATOM     11  C   LIG    1       25.686 -25.089   7.325  0.00  0.00    +0.056 C 
ATOM     12  C   LIG    1       24.944 -21.779   5.912  0.00  0.00    +0.093 C 
BRANCH   8  13
ATOM     13  O   LIG    1       26.079 -27.430   7.271  0.00  0.00    -0.495 OA
ATOM     14  C   LIG    1       25.145 -28.509   7.157  0.00  0.00    +0.277 C 
ENDBRANCH   8  13
ENDBRANCH   2   3
BRANCH   1  15
ATOM     15  N   LIG    1       27.969 -21.546   7.694  0.00  0.00    -0.155 N 
ATOM     16  H   LIG    1       27.710 -21.489   6.711  0.00  0.00    +0.292 HD
BRANCH  15  17
ATOM     17  C   LIG    1       29.250 -21.073   7.861  0.00  0.00    +0.402 C 
ATOM     18  N   LIG    1       30.115 -21.747   8.507  0.00  0.00    -0.128 NA
ATOM     19  H   LIG    1       30.981 -21.203   8.538  0.00  0.00    +0.306 HD
BRANCH  17  20
ATOM     20  N   LIG    1       29.444 -19.856   7.283  0.00  0.00    -0.274 N 
ATOM     21  H   LIG    1       28.756 -19.724   6.549  0.00  0.00    +0.258 HD
BRANCH  20  22
ATOM     22  C   LIG    1       30.751 -19.323   6.937  0.00  0.00    +0.196 C 
BRANCH  22  23
ATOM     23  C   LIG    1       31.320 -18.491   8.087  0.00  0.00    +0.037 C 
BRANCH  23  24
ATOM     24  C   LIG    1       30.220 -17.746   8.846  0.00  0.00    +0.003 C 
BRANCH  24  26
ATOM     25  C   LIG    1       32.295 -16.949  10.024  0.00  0.00    +0.004 C 
ATOM     26  C   LIG    1       30.773 -16.937  10.022  0.00  0.00    -0.003 C 
ENDBRANCH  24  26
ENDBRANCH  23  24
ENDBRANCH  22  23
ENDBRANCH  20  22
ENDBRANCH  17  20
ENDBRANCH  15  17
ENDBRANCH   1  15
TORSDOF 9
ENDMDL
MODEL 9
REMARK VINA RESULT:      -7.2      4.019      5.946
REMARK  Name = *****
REMARK                            x       y       z     vdW  Elec       q    Type
REMARK                         _______ _______ _______ _____ _____    ______ ____
ROOT
ATOM      1  N   LIG    1       26.186 -25.460   5.639  0.00  0.00    -0.119 NA
ATOM      2  C   LIG    1       26.232 -26.755   5.488  0.00  0.00    +0.158 C 
ENDROOT
BRANCH   2   3
ATOM      3  C   LIG    1       25.319 -27.745   6.044  0.00  0.00    +0.021 C 
ATOM      4  C   LIG    1       25.400 -28.409   7.323  0.00  0.00    +0.012 C 
ATOM      5  C   LIG    1       24.399 -29.384   7.337  0.00  0.00    +0.047 C 
ATOM      6  C   LIG    1       24.219 -30.286   8.381  0.00  0.00    +0.030 C 
ATOM      7  C   LIG    1       25.096 -30.208   9.456  0.00  0.00    +0.048 C 
ATOM      8  C   LIG    1       26.082 -29.225   9.525  0.00  0.00    +0.121 C 
ATOM      9  N   LIG    1       23.682 -29.263   6.176  0.00  0.00    -0.360 NA
ATOM     10  H   LIG    1       22.878 -29.828   5.938  0.00  0.00    +0.165 HD
ATOM     11  C   LIG    1       26.226 -28.299   8.473  0.00  0.00    +0.056 C 
ATOM     12  C   LIG    1       24.247 -28.316   5.377  0.00  0.00    +0.093 C 
BRANCH   8  13
ATOM     13  O   LIG    1       26.950 -29.102  10.587  0.00  0.00    -0.495 OA
ATOM     14  C   LIG    1       26.834 -27.875  11.317  0.00  0.00    +0.277 C 
ENDBRANCH   8  13
ENDBRANCH   2   3
BRANCH   1  15
ATOM     15  N   LIG    1       25.290 -24.936   6.532  0.00  0.00    -0.155 N 
ATOM     16  H   LIG    1       25.611 -24.700   7.469  0.00  0.00    +0.292 HD
BRANCH  15  17
ATOM     17  C   LIG    1       24.204 -24.157   6.208  0.00  0.00    +0.402 C 
ATOM     18  N   LIG    1       23.038 -24.461   6.620  0.00  0.00    -0.128 NA
ATOM     19  H   LIG    1       22.380 -23.775   6.241  0.00  0.00    +0.306 HD
BRANCH  17  20
ATOM     20  N   LIG    1       24.530 -23.091   5.426  0.00  0.00    -0.274 N 
ATOM     21  H   LIG    1       25.165 -23.398   4.696  0.00  0.00    +0.258 HD
BRANCH  20  22
ATOM     22  C   LIG    1       24.860 -21.776   5.948  0.00  0.00    +0.196 C 
BRANCH  22  23
ATOM     23  C   LIG    1       23.629 -21.114   6.569  0.00  0.00    +0.037 C 
BRANCH  23  24
ATOM     24  C   LIG    1       22.600 -20.720   5.506  0.00  0.00    +0.003 C 
BRANCH  24  26
ATOM     25  C   LIG    1       22.277 -18.424   4.530  0.00  0.00    +0.004 C 
ATOM     26  C   LIG    1       23.145 -19.675   4.531  0.00  0.00    -0.003 C 
ENDBRANCH  24  26
ENDBRANCH  23  24
ENDBRANCH  22  23
ENDBRANCH  20  22
ENDBRANCH  17  20
ENDBRANCH  15  17
ENDBRANCH   1  15
TORSDOF 9
ENDMDL
