MODEL 1
REMARK VINA RESULT:      -7.7      0.000      0.000
REMARK  Name = *****
REMARK                            x       y       z     vdW  Elec       q    Type
REMARK                         _______ _______ _______ _____ _____    ______ ____
ROOT
ATOM      1  C   LIG    1       24.665 -23.716   6.184  0.00  0.00    +0.299 C 
ATOM      2  C   LIG    1       23.329 -23.173   6.645  0.00  0.00    +0.253 C 
ATOM      3  O   LIG    1       22.487 -23.895   7.189  0.00  0.00    -0.273 OA
ATOM      4  N   LIG    1       22.977 -21.879   6.381  0.00  0.00    -0.283 N 
ATOM      5  H   LIG    1       22.000 -21.703   6.586  0.00  0.00    +0.155 HD
ATOM      6  C   LIG    1       23.692 -20.924   5.649  0.00  0.00    +0.043 A 
ATOM      7  C   LIG    1       25.087 -20.892   5.517  0.00  0.00    +0.023 A 
ATOM      8  C   LIG    1       25.680 -19.982   4.624  0.00  0.00    +0.032 A 
ATOM      9  C   LIG    1       24.896 -19.043   3.959  0.00  0.00    +0.042 A 
ATOM     10  C   LIG    1       23.521 -19.006   4.162  0.00  0.00    +0.022 A 
ATOM     11 CL   LIG    1       25.635 -17.890   2.920  0.00  0.00    -0.084 Cl
ATOM     12  C   LIG    1       25.974 -21.688   6.416  0.00  0.00    +0.079 C 
ATOM     13  C   LIG    1       22.922 -19.946   5.003  0.00  0.00    +0.025 A 
ATOM     14  N   LIG    1       25.790 -22.928   6.721  0.00  0.00    -0.259 NA
ENDROOT
BRANCH  12  15
ATOM     15  C   LIG    1       27.163 -21.013   7.050  0.00  0.00    +0.036 A 
ATOM     16  C   LIG    1       27.066 -20.324   8.264  0.00  0.00    +0.133 A 
ATOM     17  F   LIG    1       25.911 -20.265   8.942  0.00  0.00    -0.205 F 
ATOM     18  C   LIG    1       28.174 -19.689   8.823  0.00  0.00    +0.039 A 
ATOM     19  C   LIG    1       29.413 -19.771   8.190  0.00  0.00    +0.003 A 
ATOM     20  C   LIG    1       29.536 -20.486   7.000  0.00  0.00    +0.001 A 
ATOM     21  C   LIG    1       28.417 -21.102   6.428  0.00  0.00    +0.013 A 
ENDBRANCH  12  15
BRANCH   1  22
ATOM     22  C   LIG    1       24.752 -23.955   4.684  0.00  0.00    +0.341 C 
ATOM     23  O   LIG    1       24.396 -23.170   3.819  0.00  0.00    -0.248 OA
BRANCH  22  24
ATOM     24  O   LIG    1       25.347 -25.157   4.423  0.00  0.00    -0.463 OA
BRANCH  24  26
ATOM     25  C   LIG    1       26.184 -27.051   5.698  0.00  0.00    +0.048 C 
ATOM     26  C   LIG    1       24.967 -26.255   5.267  0.00  0.00    +0.229 C 
ENDBRANCH  24  26
ENDBRANCH  22  24
ENDBRANCH   1  22
TORSDOF 4
ENDMDL
MODEL 2
REMARK VINA RESULT:      -7.0      7.526      9.463
REMARK  Name = *****
REMARK                            x       y       z     vdW  Elec       q    Type
REMARK                         _______ _______ _______ _____ _____    ______ ____
ROOT
ATOM      1  C   LIG    1       25.022 -32.616   7.153  0.00  0.00    +0.299 C 
ATOM      2  C   LIG    1       23.913 -32.416   6.142  0.00  0.00    +0.253 C 
ATOM      3  O   LIG    1       23.382 -33.370   5.564  0.00  0.00    -0.273 OA
ATOM      4  N   LIG    1       23.535 -31.157   5.766  0.00  0.00    -0.283 N 
ATOM      5  H   LIG    1       22.915 -31.173   4.964  0.00  0.00    +0.155 HD
ATOM      6  C   LIG    1       24.092 -29.936   6.161  0.00  0.00    +0.043 A 
ATOM      7  C   LIG    1       24.740 -29.705   7.382  0.00  0.00    +0.023 A 
ATOM      8  C   LIG    1       25.402 -28.484   7.599  0.00  0.00    +0.032 A 
ATOM      9  C   LIG    1       25.320 -27.467   6.650  0.00  0.00    +0.042 A 
ATOM     10  C   LIG    1       24.597 -27.656   5.478  0.00  0.00    +0.022 A 
ATOM     11 CL   LIG    1       26.076 -25.953   6.951  0.00  0.00    -0.084 Cl
ATOM     12  C   LIG    1       24.611 -30.658   8.525  0.00  0.00    +0.079 C 
ATOM     13  C   LIG    1       23.987 -28.888   5.234  0.00  0.00    +0.025 A 
ATOM     14  N   LIG    1       24.725 -31.939   8.431  0.00  0.00    -0.259 NA
ENDROOT
BRANCH  12  15
ATOM     15  C   LIG    1       24.297 -30.114   9.894  0.00  0.00    +0.036 A 
ATOM     16  C   LIG    1       23.005 -30.146  10.429  0.00  0.00    +0.133 A 
ATOM     17  F   LIG    1       21.986 -30.701   9.756  0.00  0.00    -0.205 F 
ATOM     18  C   LIG    1       22.733 -29.619  11.690  0.00  0.00    +0.039 A 
ATOM     19  C   LIG    1       23.767 -29.085  12.457  0.00  0.00    +0.003 A 
ATOM     20  C   LIG    1       25.068 -29.080  11.956  0.00  0.00    +0.001 A 
ATOM     21  C   LIG    1       25.335 -29.588  10.680  0.00  0.00    +0.013 A 
ENDBRANCH  12  15
BRANCH   1  22
ATOM     22  C   LIG    1       26.413 -32.313   6.615  0.00  0.00    +0.341 C 
ATOM     23  O   LIG    1       27.443 -32.312   7.271  0.00  0.00    -0.248 OA
BRANCH  22  24
ATOM     24  O   LIG    1       26.370 -32.098   5.266  0.00  0.00    -0.463 OA
BRANCH  24  26
ATOM     25  C   LIG    1       26.537 -32.923   2.985  0.00  0.00    +0.048 C 
ATOM     26  C   LIG    1       26.926 -33.129   4.436  0.00  0.00    +0.229 C 
ENDBRANCH  24  26
ENDBRANCH  22  24
ENDBRANCH   1  22
TORSDOF 4
ENDMDL
MODEL 3
REMARK VINA RESULT:      -7.0      6.558      9.597
REMARK  Name = *****
REMARK                            x       y       z     vdW  Elec       q    Type
REMARK                         _______ _______ _______ _____ _____    ______ ____
ROOT
ATOM      1  C   LIG    1       25.377 -31.751   5.445  0.00  0.00    +0.299 C 
ATOM      2  C   LIG    1       26.627 -32.266   6.127  0.00  0.00    +0.253 C 
ATOM      3  O   LIG    1       27.400 -33.047   5.562  0.00  0.00    -0.273 OA
ATOM      4  N   LIG    1       26.884 -31.956   7.434  0.00  0.00    -0.283 N 
ATOM      5  H   LIG    1       27.650 -32.504   7.809  0.00  0.00    +0.155 HD
ATOM      6  C   LIG    1       26.083 -31.225   8.319  0.00  0.00    +0.043 A 
ATOM      7  C   LIG    1       25.173 -30.228   7.943  0.00  0.00    +0.023 A 
ATOM      8  C   LIG    1       24.308 -29.678   8.905  0.00  0.00    +0.032 A 
ATOM      9  C   LIG    1       24.429 -30.042  10.244  0.00  0.00    +0.042 A 
ATOM     10  C   LIG    1       25.396 -30.960  10.637  0.00  0.00    +0.022 A 
ATOM     11 CL   LIG    1       23.412 -29.316  11.425  0.00  0.00    -0.084 Cl
ATOM     12  C   LIG    1       25.206 -29.615   6.582  0.00  0.00    +0.079 C 
ATOM     13  C   LIG    1       26.219 -31.551   9.676  0.00  0.00    +0.025 A 
ATOM     14  N   LIG    1       25.304 -30.278   5.479  0.00  0.00    -0.259 NA
ENDROOT
BRANCH  12  15
ATOM     15  C   LIG    1       25.149 -28.115   6.457  0.00  0.00    +0.036 A 
ATOM     16  C   LIG    1       25.947 -27.273   7.240  0.00  0.00    +0.133 A 
ATOM     17  F   LIG    1       26.831 -27.769   8.118  0.00  0.00    -0.205 F 
ATOM     18  C   LIG    1       25.864 -25.887   7.123  0.00  0.00    +0.039 A 
ATOM     19  C   LIG    1       25.006 -25.320   6.183  0.00  0.00    +0.003 A 
ATOM     20  C   LIG    1       24.232 -26.145   5.366  0.00  0.00    +0.001 A 
ATOM     21  C   LIG    1       24.300 -27.536   5.503  0.00  0.00    +0.013 A 
ENDBRANCH  12  15
BRANCH   1  22
ATOM     22  C   LIG    1       24.097 -32.433   5.903  0.00  0.00    +0.341 C 
ATOM     23  O   LIG    1       23.001 -32.312   5.376  0.00  0.00    -0.248 OA
BRANCH  22  24
ATOM     24  O   LIG    1       24.345 -33.262   6.961  0.00  0.00    -0.463 OA
BRANCH  24  26
ATOM     25  C   LIG    1       22.940 -33.136   8.942  0.00  0.00    +0.048 C 
ATOM     26  C   LIG    1       23.198 -33.825   7.615  0.00  0.00    +0.229 C 
ENDBRANCH  24  26
ENDBRANCH  22  24
ENDBRANCH   1  22
TORSDOF 4
ENDMDL
MODEL 4
REMARK VINA RESULT:      -6.8      7.657     10.561
REMARK  Name = *****
REMARK                            x       y       z     vdW  Elec       q    Type
REMARK                         _______ _______ _______ _____ _____    ______ ____
ROOT
ATOM      1  C   LIG    1       24.112 -31.667  10.133  0.00  0.00    +0.299 C 
ATOM      2  C   LIG    1       25.473 -31.191  10.596  0.00  0.00    +0.253 C 
ATOM      3  O   LIG    1       25.961 -31.564  11.668  0.00  0.00    -0.273 OA
ATOM      4  N   LIG    1       26.160 -30.250   9.880  0.00  0.00    -0.283 N 
ATOM      5  H   LIG    1       26.962 -29.899  10.391  0.00  0.00    +0.155 HD
ATOM      6  C   LIG    1       25.745 -29.570   8.730  0.00  0.00    +0.043 A 
ATOM      7  C   LIG    1       24.841 -30.071   7.783  0.00  0.00    +0.023 A 
ATOM      8  C   LIG    1       24.376 -29.232   6.755  0.00  0.00    +0.032 A 
ATOM      9  C   LIG    1       24.895 -27.948   6.612  0.00  0.00    +0.042 A 
ATOM     10  C   LIG    1       25.865 -27.480   7.491  0.00  0.00    +0.022 A 
ATOM     11 CL   LIG    1       24.371 -26.952   5.312  0.00  0.00    -0.084 Cl
ATOM     12  C   LIG    1       24.478 -31.518   7.740  0.00  0.00    +0.079 C 
ATOM     13  C   LIG    1       26.287 -28.290   8.547  0.00  0.00    +0.025 A 
ATOM     14  N   LIG    1       24.165 -32.230   8.770  0.00  0.00    -0.259 NA
ENDROOT
BRANCH  12  15
ATOM     15  C   LIG    1       24.497 -32.235   6.415  0.00  0.00    +0.036 A 
ATOM     16  C   LIG    1       25.661 -32.342   5.644  0.00  0.00    +0.133 A 
ATOM     17  F   LIG    1       26.828 -31.839   6.072  0.00  0.00    -0.205 F 
ATOM     18  C   LIG    1       25.652 -32.991   4.412  0.00  0.00    +0.039 A 
ATOM     19  C   LIG    1       24.479 -33.584   3.948  0.00  0.00    +0.003 A 
ATOM     20  C   LIG    1       23.320 -33.521   4.720  0.00  0.00    +0.001 A 
ATOM     21  C   LIG    1       23.325 -32.848   5.947  0.00  0.00    +0.013 A 
ENDBRANCH  12  15
BRANCH   1  22
ATOM     22  C   LIG    1       23.000 -30.647  10.326  0.00  0.00    +0.341 C 
ATOM     23  O   LIG    1       21.885 -30.712   9.834  0.00  0.00    -0.248 OA
BRANCH  22  24
ATOM     24  O   LIG    1       23.397 -29.662  11.186  0.00  0.00    -0.463 OA
BRANCH  24  26
ATOM     25  C   LIG    1       22.930 -28.046  12.943  0.00  0.00    +0.048 C 
ATOM     26  C   LIG    1       22.452 -29.277  12.197  0.00  0.00    +0.229 C 
ENDBRANCH  24  26
ENDBRANCH  22  24
ENDBRANCH   1  22
TORSDOF 4
ENDMDL
MODEL 5
REMARK VINA RESULT:      -6.7      2.806      5.579
REMARK  Name = *****
REMARK                            x       y       z     vdW  Elec       q    Type
REMARK                         _______ _______ _______ _____ _____    ______ ____
ROOT
ATOM      1  C   LIG    1       28.033 -21.291   7.656  0.00  0.00    +0.299 C 
ATOM      2  C   LIG    1       28.725 -20.775   6.412  0.00  0.00    +0.253 C 
ATOM      3  O   LIG    1       29.950 -20.623   6.365  0.00  0.00    -0.273 OA
ATOM      4  N   LIG    1       27.994 -20.367   5.331  0.00  0.00    -0.283 N 
ATOM      5  H   LIG    1       28.568 -19.886   4.647  0.00  0.00    +0.155 HD
ATOM      6  C   LIG    1       26.601 -20.296   5.208  0.00  0.00    +0.043 A 
ATOM      7  C   LIG    1       25.692 -21.109   5.899  0.00  0.00    +0.023 A 
ATOM      8  C   LIG    1       24.315 -20.837   5.818  0.00  0.00    +0.032 A 
ATOM      9  C   LIG    1       23.850 -19.836   4.968  0.00  0.00    +0.042 A 
ATOM     10  C   LIG    1       24.742 -19.091   4.205  0.00  0.00    +0.022 A 
ATOM     11 CL   LIG    1       22.160 -19.553   4.822  0.00  0.00    -0.084 Cl
ATOM     12  C   LIG    1       26.131 -22.356   6.593  0.00  0.00    +0.079 C 
ATOM     13  C   LIG    1       26.114 -19.320   4.328  0.00  0.00    +0.025 A 
ATOM     14  N   LIG    1       27.165 -22.446   7.360  0.00  0.00    -0.259 NA
ENDROOT
BRANCH  12  15
ATOM     15  C   LIG    1       25.347 -23.624   6.378  0.00  0.00    +0.036 A 
ATOM     16  C   LIG    1       24.023 -23.762   6.810  0.00  0.00    +0.133 A 
ATOM     17  F   LIG    1       23.376 -22.750   7.408  0.00  0.00    -0.205 F 
ATOM     18  C   LIG    1       23.322 -24.951   6.619  0.00  0.00    +0.039 A 
ATOM     19  C   LIG    1       23.927 -26.013   5.949  0.00  0.00    +0.003 A 
ATOM     20  C   LIG    1       25.232 -25.879   5.476  0.00  0.00    +0.001 A 
ATOM     21  C   LIG    1       25.942 -24.693   5.691  0.00  0.00    +0.013 A 
ENDBRANCH  12  15
BRANCH   1  22
ATOM     22  C   LIG    1       27.346 -20.209   8.477  0.00  0.00    +0.341 C 
ATOM     23  O   LIG    1       26.310 -20.348   9.107  0.00  0.00    -0.248 OA
BRANCH  22  24
ATOM     24  O   LIG    1       28.083 -19.058   8.466  0.00  0.00    -0.463 OA
BRANCH  24  26
ATOM     25  C   LIG    1       30.237 -17.958   8.716  0.00  0.00    +0.048 C 
ATOM     26  C   LIG    1       29.338 -19.095   9.162  0.00  0.00    +0.229 C 
ENDBRANCH  24  26
ENDBRANCH  22  24
ENDBRANCH   1  22
TORSDOF 4
ENDMDL
MODEL 6
REMARK VINA RESULT:      -6.7      6.849      9.722
REMARK  Name = *****
REMARK                            x       y       z     vdW  Elec       q    Type
REMARK                         _______ _______ _______ _____ _____    ______ ____
ROOT
ATOM      1  C   LIG    1       25.097 -30.562   9.907  0.00  0.00    +0.299 C 
ATOM      2  C   LIG    1       23.768 -31.281   9.814  0.00  0.00    +0.253 C 
ATOM      3  O   LIG    1       23.087 -31.521  10.817  0.00  0.00    -0.273 OA
ATOM      4  N   LIG    1       23.328 -31.775   8.617  0.00  0.00    -0.283 N 
ATOM      5  H   LIG    1       22.522 -32.378   8.731  0.00  0.00    +0.155 HD
ATOM      6  C   LIG    1       23.992 -31.765   7.385  0.00  0.00    +0.043 A 
ATOM      7  C   LIG    1       24.937 -30.810   6.989  0.00  0.00    +0.023 A 
ATOM      8  C   LIG    1       25.656 -30.996   5.795  0.00  0.00    +0.032 A 
ATOM      9  C   LIG    1       25.351 -32.063   4.955  0.00  0.00    +0.042 A 
ATOM     10  C   LIG    1       24.345 -32.961   5.296  0.00  0.00    +0.022 A 
ATOM     11 CL   LIG    1       26.187 -32.247   3.464  0.00  0.00    -0.084 Cl
ATOM     12  C   LIG    1       25.091 -29.516   7.719  0.00  0.00    +0.079 C 
ATOM     13  C   LIG    1       23.670 -32.812   6.509  0.00  0.00    +0.025 A 
ATOM     14  N   LIG    1       25.153 -29.398   9.002  0.00  0.00    -0.259 NA
ENDROOT
BRANCH  12  15
ATOM     15  C   LIG    1       25.153 -28.236   6.926  0.00  0.00    +0.036 A 
ATOM     16  C   LIG    1       24.299 -27.989   5.846  0.00  0.00    +0.133 A 
ATOM     17  F   LIG    1       23.355 -28.871   5.487  0.00  0.00    -0.205 F 
ATOM     18  C   LIG    1       24.387 -26.806   5.114  0.00  0.00    +0.039 A 
ATOM     19  C   LIG    1       25.310 -25.829   5.481  0.00  0.00    +0.003 A 
ATOM     20  C   LIG    1       26.142 -26.042   6.580  0.00  0.00    +0.001 A 
ATOM     21  C   LIG    1       26.069 -27.240   7.299  0.00  0.00    +0.013 A 
ENDBRANCH  12  15
BRANCH   1  22
ATOM     22  C   LIG    1       26.306 -31.478   9.794  0.00  0.00    +0.341 C 
ATOM     23  O   LIG    1       27.472 -31.126   9.872  0.00  0.00    -0.248 OA
BRANCH  22  24
ATOM     24  O   LIG    1       25.911 -32.779   9.652  0.00  0.00    -0.463 OA
BRANCH  24  26
ATOM     25  C   LIG    1       27.033 -33.823   7.764  0.00  0.00    +0.048 C 
ATOM     26  C   LIG    1       26.929 -33.718   9.274  0.00  0.00    +0.229 C 
ENDBRANCH  24  26
ENDBRANCH  22  24
ENDBRANCH   1  22
TORSDOF 4
ENDMDL
MODEL 7
REMARK VINA RESULT:      -6.6      7.689     10.667
REMARK  Name = *****
REMARK                            x       y       z     vdW  Elec       q    Type
REMARK                         _______ _______ _______ _____ _____    ______ ____
ROOT
ATOM      1  C   LIG    1       24.067 -31.722  10.163  0.00  0.00    +0.299 C 
ATOM      2  C   LIG    1       25.442 -31.280  10.617  0.00  0.00    +0.253 C 
ATOM      3  O   LIG    1       25.932 -31.674  11.681  0.00  0.00    -0.273 OA
ATOM      4  N   LIG    1       26.142 -30.347   9.904  0.00  0.00    -0.283 N 
ATOM      5  H   LIG    1       26.957 -30.019  10.410  0.00  0.00    +0.155 HD
ATOM      6  C   LIG    1       25.732 -29.647   8.764  0.00  0.00    +0.043 A 
ATOM      7  C   LIG    1       24.808 -30.119   7.821  0.00  0.00    +0.023 A 
ATOM      8  C   LIG    1       24.352 -29.260   6.805  0.00  0.00    +0.032 A 
ATOM      9  C   LIG    1       24.898 -27.986   6.670  0.00  0.00    +0.042 A 
ATOM     10  C   LIG    1       25.886 -27.549   7.544  0.00  0.00    +0.022 A 
ATOM     11 CL   LIG    1       24.384 -26.966   5.385  0.00  0.00    -0.084 Cl
ATOM     12  C   LIG    1       24.413 -31.558   7.768  0.00  0.00    +0.079 C 
ATOM     13  C   LIG    1       26.300 -28.377   8.589  0.00  0.00    +0.025 A 
ATOM     14  N   LIG    1       24.095 -32.272   8.794  0.00  0.00    -0.259 NA
ENDROOT
BRANCH  12  15
ATOM     15  C   LIG    1       24.405 -32.261   6.435  0.00  0.00    +0.036 A 
ATOM     16  C   LIG    1       25.545 -32.339   5.628  0.00  0.00    +0.133 A 
ATOM     17  F   LIG    1       26.716 -31.818   6.024  0.00  0.00    -0.205 F 
ATOM     18  C   LIG    1       25.510 -32.977   4.390  0.00  0.00    +0.039 A 
ATOM     19  C   LIG    1       24.335 -33.588   3.957  0.00  0.00    +0.003 A 
ATOM     20  C   LIG    1       23.199 -33.554   4.766  0.00  0.00    +0.001 A 
ATOM     21  C   LIG    1       23.230 -32.892   5.998  0.00  0.00    +0.013 A 
ENDBRANCH  12  15
BRANCH   1  22
ATOM     22  C   LIG    1       22.979 -30.680  10.376  0.00  0.00    +0.341 C 
ATOM     23  O   LIG    1       23.109 -29.636  10.996  0.00  0.00    -0.248 OA
BRANCH  22  24
ATOM     24  O   LIG    1       21.834 -31.040   9.723  0.00  0.00    -0.463 OA
BRANCH  24  26
ATOM     25  C   LIG    1       19.482 -31.200  10.318  0.00  0.00    +0.048 C 
ATOM     26  C   LIG    1       20.871 -31.785  10.483  0.00  0.00    +0.229 C 
ENDBRANCH  24  26
ENDBRANCH  22  24
ENDBRANCH   1  22
TORSDOF 4
ENDMDL
MODEL 8
REMARK VINA RESULT:      -6.6      7.107     10.020
REMARK  Name = *****
REMARK                            x       y       z     vdW  Elec       q    Type
REMARK                         _______ _______ _______ _____ _____    ______ ____
ROOT
ATOM      1  C   LIG    1       25.469 -30.444   6.911  0.00  0.00    +0.299 C 
ATOM      2  C   LIG    1       25.248 -31.941   6.885  0.00  0.00    +0.253 C 
ATOM      3  O   LIG    1       25.735 -32.655   6.001  0.00  0.00    -0.273 OA
ATOM      4  N   LIG    1       24.414 -32.536   7.791  0.00  0.00    -0.283 N 
ATOM      5  H   LIG    1       24.222 -33.502   7.551  0.00  0.00    +0.155 HD
ATOM      6  C   LIG    1       23.634 -31.921   8.777  0.00  0.00    +0.043 A 
ATOM      7  C   LIG    1       23.940 -30.703   9.400  0.00  0.00    +0.023 A 
ATOM      8  C   LIG    1       23.000 -30.105  10.258  0.00  0.00    +0.032 A 
ATOM      9  C   LIG    1       21.819 -30.772  10.574  0.00  0.00    +0.042 A 
ATOM     10  C   LIG    1       21.554 -32.026  10.034  0.00  0.00    +0.022 A 
ATOM     11 CL   LIG    1       20.704 -30.065  11.675  0.00  0.00    -0.084 Cl
ATOM     12  C   LIG    1       25.303 -30.100   9.306  0.00  0.00    +0.079 C 
ATOM     13  C   LIG    1       22.459 -32.597   9.137  0.00  0.00    +0.025 A 
ATOM     14  N   LIG    1       25.985 -29.990   8.216  0.00  0.00    -0.259 NA
ENDROOT
BRANCH  12  15
ATOM     15  C   LIG    1       25.966 -29.599  10.563  0.00  0.00    +0.036 A 
ATOM     16  C   LIG    1       26.134 -30.413  11.689  0.00  0.00    +0.133 A 
ATOM     17  F   LIG    1       25.742 -31.695  11.688  0.00  0.00    -0.205 F 
ATOM     18  C   LIG    1       26.732 -29.923  12.849  0.00  0.00    +0.039 A 
ATOM     19  C   LIG    1       27.212 -28.616  12.883  0.00  0.00    +0.003 A 
ATOM     20  C   LIG    1       27.089 -27.803  11.757  0.00  0.00    +0.001 A 
ATOM     21  C   LIG    1       26.466 -28.289  10.601  0.00  0.00    +0.013 A 
ENDBRANCH  12  15
BRANCH   1  22
ATOM     22  C   LIG    1       24.281 -29.634   6.412  0.00  0.00    +0.341 C 
ATOM     23  O   LIG    1       23.292 -30.090   5.862  0.00  0.00    -0.248 OA
BRANCH  22  24
ATOM     24  O   LIG    1       24.439 -28.311   6.720  0.00  0.00    -0.463 OA
BRANCH  24  26
ATOM     25  C   LIG    1       24.215 -25.995   6.015  0.00  0.00    +0.048 C 
ATOM     26  C   LIG    1       24.584 -27.410   5.612  0.00  0.00    +0.229 C 
ENDBRANCH  24  26
ENDBRANCH  22  24
ENDBRANCH   1  22
TORSDOF 4
ENDMDL
MODEL 9
REMARK VINA RESULT:      -6.4      2.550      5.274
REMARK  Name = *****
REMARK                            x       y       z     vdW  Elec       q    Type
REMARK                         _______ _______ _______ _____ _____    ______ ____
ROOT
ATOM      1  C   LIG    1       23.640 -21.249   4.362  0.00  0.00    +0.299 C 
ATOM      2  C   LIG    1       22.955 -20.656   5.575  0.00  0.00    +0.253 C 
ATOM      3  O   LIG    1       21.835 -20.139   5.500  0.00  0.00    -0.273 OA
ATOM      4  N   LIG    1       23.605 -20.588   6.776  0.00  0.00    -0.283 N 
ATOM      5  H   LIG    1       23.103 -20.016   7.445  0.00  0.00    +0.155 HD
ATOM      6  C   LIG    1       24.923 -20.961   7.064  0.00  0.00    +0.043 A 
ATOM      7  C   LIG    1       25.645 -21.950   6.384  0.00  0.00    +0.023 A 
ATOM      8  C   LIG    1       27.014 -22.123   6.657  0.00  0.00    +0.032 A 
ATOM      9  C   LIG    1       27.621 -21.393   7.675  0.00  0.00    +0.042 A 
ATOM     10  C   LIG    1       26.885 -20.478   8.419  0.00  0.00    +0.022 A 
ATOM     11 CL   LIG    1       29.279 -21.657   8.048  0.00  0.00    -0.084 Cl
ATOM     12  C   LIG    1       24.967 -22.936   5.491  0.00  0.00    +0.079 C 
ATOM     13  C   LIG    1       25.540 -20.262   8.112  0.00  0.00    +0.025 A 
ATOM     14  N   LIG    1       24.078 -22.637   4.606  0.00  0.00    -0.259 NA
ENDROOT
BRANCH  12  15
ATOM     15  C   LIG    1       25.304 -24.398   5.632  0.00  0.00    +0.036 A 
ATOM     16  C   LIG    1       25.680 -24.960   6.857  0.00  0.00    +0.133 A 
ATOM     17  F   LIG    1       25.720 -24.225   7.978  0.00  0.00    -0.205 F 
ATOM     18  C   LIG    1       26.008 -26.310   6.960  0.00  0.00    +0.039 A 
ATOM     19  C   LIG    1       25.923 -27.133   5.838  0.00  0.00    +0.003 A 
ATOM     20  C   LIG    1       25.513 -26.598   4.617  0.00  0.00    +0.001 A 
ATOM     21  C   LIG    1       25.208 -25.237   4.511  0.00  0.00    +0.013 A 
ENDBRANCH  12  15
BRANCH   1  22
ATOM     22  C   LIG    1       24.727 -20.365   3.770  0.00  0.00    +0.341 C 
ATOM     23  O   LIG    1       25.424 -20.645   2.808  0.00  0.00    -0.248 OA
BRANCH  22  24
ATOM     24  O   LIG    1       24.784 -19.169   4.429  0.00  0.00    -0.463 OA
BRANCH  24  26
ATOM     25  C   LIG    1       26.014 -17.380   3.332  0.00  0.00    +0.048 C 
ATOM     26  C   LIG    1       24.655 -17.987   3.623  0.00  0.00    +0.229 C 
ENDBRANCH  24  26
ENDBRANCH  22  24
ENDBRANCH   1  22
TORSDOF 4
ENDMDL
