MODEL 1
REMARK VINA RESULT:      -4.3      0.000      0.000
REMARK  Name = *****
REMARK                            x       y       z     vdW  Elec       q    Type
REMARK                         _______ _______ _______ _____ _____    ______ ____
ROOT
ATOM      1  C   LIG    1       25.998 -14.698   3.380  0.00  0.00    -0.016 A 
ATOM      2  C   LIG    1       25.461 -15.970   3.652  0.00  0.00    +0.035 A 
ATOM      3  C   LIG    1       24.122 -16.054   4.070  0.00  0.00    +0.023 A 
ATOM      4  C   LIG    1       23.343 -14.918   4.283  0.00  0.00    +0.002 A 
ATOM      5  C   LIG    1       23.881 -13.662   4.050  0.00  0.00    +0.000 A 
ATOM      6  C   LIG    1       25.191 -13.553   3.590  0.00  0.00    +0.006 A 
ENDROOT
BRANCH   2   7
ATOM      7  N   LIG    1       26.081 -17.201   3.358  0.00  0.00    -0.312 N 
ATOM      8  H   LIG    1       26.891 -17.060   2.752  0.00  0.00    +0.152 HD
BRANCH   7   9
ATOM      9  C   LIG    1       26.171 -18.425   4.068  0.00  0.00    +0.068 A 
ATOM     10  C   LIG    1       25.167 -19.410   4.096  0.00  0.00    +0.064 A 
ATOM     11 CL   LIG    1       23.735 -19.309   3.129  0.00  0.00    -0.082 Cl
ATOM     12  C   LIG    1       25.327 -20.582   4.854  0.00  0.00    +0.022 A 
ATOM     13  C   LIG    1       26.502 -20.815   5.567  0.00  0.00    +0.003 A 
ATOM     14  C   LIG    1       27.535 -19.889   5.505  0.00  0.00    +0.022 A 
ATOM     15  C   LIG    1       27.370 -18.715   4.763  0.00  0.00    +0.064 A 
ATOM     16 CL   LIG    1       28.701 -17.603   4.717  0.00  0.00    -0.082 Cl
ENDBRANCH   7   9
ENDBRANCH   2   7
BRANCH   1  17
ATOM     17  C   LIG    1       27.412 -14.454   2.898  0.00  0.00    +0.157 C 
BRANCH  17  19
ATOM     18  O   LIG    1       27.925 -13.217   4.890  0.00  0.00    -0.251 OA
ATOM     19  C   LIG    1       28.273 -13.557   3.773  0.00  0.00    +0.309 C 
BRANCH  19  20
ATOM     20  O   LIG    1       29.475 -13.183   3.269  0.00  0.00    -0.480 OA
ATOM     21  H   LIG    1       29.449 -12.800   2.376  0.00  0.00    +0.295 HD
ENDBRANCH  19  20
ENDBRANCH  17  19
ENDBRANCH   1  17
TORSDOF 5
ENDMDL
MODEL 2
REMARK VINA RESULT:      -4.2      0.149      2.098
REMARK  Name = *****
REMARK                            x       y       z     vdW  Elec       q    Type
REMARK                         _______ _______ _______ _____ _____    ______ ____
ROOT
ATOM      1  C   LIG    1       25.970 -14.679   3.392  0.00  0.00    -0.016 A 
ATOM      2  C   LIG    1       25.360 -15.929   3.610  0.00  0.00    +0.035 A 
ATOM      3  C   LIG    1       24.016 -15.953   4.022  0.00  0.00    +0.023 A 
ATOM      4  C   LIG    1       23.303 -14.784   4.282  0.00  0.00    +0.002 A 
ATOM      5  C   LIG    1       23.914 -13.552   4.101  0.00  0.00    +0.000 A 
ATOM      6  C   LIG    1       25.229 -13.499   3.648  0.00  0.00    +0.006 A 
ENDROOT
BRANCH   2   7
ATOM      7  N   LIG    1       25.909 -17.180   3.266  0.00  0.00    -0.312 N 
ATOM      8  H   LIG    1       26.563 -17.084   2.488  0.00  0.00    +0.152 HD
BRANCH   7   9
ATOM      9  C   LIG    1       26.165 -18.356   4.016  0.00  0.00    +0.068 A 
ATOM     10  C   LIG    1       27.368 -18.629   4.692  0.00  0.00    +0.064 A 
ATOM     11 CL   LIG    1       28.652 -17.475   4.812  0.00  0.00    -0.082 Cl
ATOM     12  C   LIG    1       27.548 -19.837   5.387  0.00  0.00    +0.022 A 
ATOM     13  C   LIG    1       26.522 -20.779   5.455  0.00  0.00    +0.003 A 
ATOM     14  C   LIG    1       25.301 -20.507   4.851  0.00  0.00    +0.022 A 
ATOM     15  C   LIG    1       25.127 -19.311   4.147  0.00  0.00    +0.064 A 
ATOM     16 CL   LIG    1       23.576 -19.025   3.424  0.00  0.00    -0.082 Cl
ENDBRANCH   7   9
ENDBRANCH   2   7
BRANCH   1  17
ATOM     17  C   LIG    1       27.397 -14.497   2.923  0.00  0.00    +0.157 C 
BRANCH  17  19
ATOM     18  O   LIG    1       27.915 -13.173   4.856  0.00  0.00    -0.251 OA
ATOM     19  C   LIG    1       28.265 -13.570   3.758  0.00  0.00    +0.309 C 
BRANCH  19  20
ATOM     20  O   LIG    1       29.473 -13.234   3.243  0.00  0.00    -0.480 OA
ATOM     21  H   LIG    1       30.230 -13.717   3.614  0.00  0.00    +0.295 HD
ENDBRANCH  19  20
ENDBRANCH  17  19
ENDBRANCH   1  17
TORSDOF 5
ENDMDL
MODEL 3
REMARK VINA RESULT:      -4.1      2.962      5.233
REMARK  Name = *****
REMARK                            x       y       z     vdW  Elec       q    Type
REMARK                         _______ _______ _______ _____ _____    ______ ____
ROOT
ATOM      1  C   LIG    1       24.670 -19.288   4.289  0.00  0.00    -0.016 A 
ATOM      2  C   LIG    1       24.353 -18.014   3.780  0.00  0.00    +0.035 A 
ATOM      3  C   LIG    1       23.059 -17.510   4.002  0.00  0.00    +0.023 A 
ATOM      4  C   LIG    1       22.075 -18.260   4.645  0.00  0.00    +0.002 A 
ATOM      5  C   LIG    1       22.376 -19.529   5.115  0.00  0.00    +0.000 A 
ATOM      6  C   LIG    1       23.663 -20.033   4.952  0.00  0.00    +0.006 A 
ENDROOT
BRANCH   2   7
ATOM      7  N   LIG    1       25.273 -17.099   3.232  0.00  0.00    -0.312 N 
ATOM      8  H   LIG    1       25.266 -17.149   2.213  0.00  0.00    +0.152 HD
BRANCH   7   9
ATOM      9  C   LIG    1       25.773 -15.852   3.687  0.00  0.00    +0.068 A 
ATOM     10  C   LIG    1       25.002 -14.685   3.834  0.00  0.00    +0.064 A 
ATOM     11 CL   LIG    1       23.286 -14.668   3.612  0.00  0.00    -0.082 Cl
ATOM     12  C   LIG    1       25.588 -13.482   4.261  0.00  0.00    +0.022 A 
ATOM     13  C   LIG    1       26.942 -13.425   4.588  0.00  0.00    +0.003 A 
ATOM     14  C   LIG    1       27.713 -14.579   4.514  0.00  0.00    +0.022 A 
ATOM     15  C   LIG    1       27.133 -15.773   4.074  0.00  0.00    +0.064 A 
ATOM     16 CL   LIG    1       28.146 -17.180   4.014  0.00  0.00    -0.082 Cl
ENDBRANCH   7   9
ENDBRANCH   2   7
BRANCH   1  17
ATOM     17  C   LIG    1       26.025 -19.948   4.152  0.00  0.00    +0.157 C 
BRANCH  17  19
ATOM     18  O   LIG    1       26.249 -20.288   6.518  0.00  0.00    -0.251 OA
ATOM     19  C   LIG    1       26.805 -20.152   5.441  0.00  0.00    +0.309 C 
BRANCH  19  20
ATOM     20  O   LIG    1       28.154 -20.219   5.335  0.00  0.00    -0.480 OA
ATOM     21  H   LIG    1       28.497 -20.280   4.427  0.00  0.00    +0.295 HD
ENDBRANCH  19  20
ENDBRANCH  17  19
ENDBRANCH   1  17
TORSDOF 5
ENDMDL
MODEL 4
REMARK VINA RESULT:      -4.0      2.840      5.633
REMARK  Name = *****
REMARK                            x       y       z     vdW  Elec       q    Type
REMARK                         _______ _______ _______ _____ _____    ______ ____
ROOT
ATOM      1  C   LIG    1       25.830 -20.194   5.384  0.00  0.00    -0.016 A 
ATOM      2  C   LIG    1       24.740 -19.674   4.663  0.00  0.00    +0.035 A 
ATOM      3  C   LIG    1       23.444 -20.084   5.024  0.00  0.00    +0.023 A 
ATOM      4  C   LIG    1       23.221 -21.031   6.021  0.00  0.00    +0.002 A 
ATOM      5  C   LIG    1       24.297 -21.571   6.709  0.00  0.00    +0.000 A 
ATOM      6  C   LIG    1       25.588 -21.148   6.404  0.00  0.00    +0.006 A 
ENDROOT
BRANCH   2   7
ATOM      7  N   LIG    1       24.803 -18.620   3.729  0.00  0.00    -0.312 N 
ATOM      8  H   LIG    1       24.613 -18.964   2.787  0.00  0.00    +0.152 HD
BRANCH   7   9
ATOM      9  C   LIG    1       24.554 -17.228   3.835  0.00  0.00    +0.068 A 
ATOM     10  C   LIG    1       23.303 -16.658   4.130  0.00  0.00    +0.064 A 
ATOM     11 CL   LIG    1       21.921 -17.611   4.553  0.00  0.00    -0.082 Cl
ATOM     12  C   LIG    1       23.139 -15.264   4.184  0.00  0.00    +0.022 A 
ATOM     13  C   LIG    1       24.223 -14.411   3.982  0.00  0.00    +0.003 A 
ATOM     14  C   LIG    1       25.484 -14.948   3.753  0.00  0.00    +0.022 A 
ATOM     15  C   LIG    1       25.644 -16.336   3.685  0.00  0.00    +0.064 A 
ATOM     16 CL   LIG    1       27.244 -16.945   3.405  0.00  0.00    -0.082 Cl
ENDBRANCH   7   9
ENDBRANCH   2   7
BRANCH   1  17
ATOM     17  C   LIG    1       27.276 -19.826   5.129  0.00  0.00    +0.157 C 
BRANCH  17  19
ATOM     18  O   LIG    1       28.620 -19.355   7.061  0.00  0.00    -0.251 OA
ATOM     19  C   LIG    1       28.262 -20.174   6.231  0.00  0.00    +0.309 C 
BRANCH  19  20
ATOM     20  O   LIG    1       28.699 -21.457   6.279  0.00  0.00    -0.480 OA
ATOM     21  H   LIG    1       28.535 -21.980   5.477  0.00  0.00    +0.295 HD
ENDBRANCH  19  20
ENDBRANCH  17  19
ENDBRANCH   1  17
TORSDOF 5
ENDMDL
MODEL 5
REMARK VINA RESULT:      -3.9      3.240      6.080
REMARK  Name = *****
REMARK                            x       y       z     vdW  Elec       q    Type
REMARK                         _______ _______ _______ _____ _____    ______ ____
ROOT
ATOM      1  C   LIG    1       25.721 -18.954   4.089  0.00  0.00    -0.016 A 
ATOM      2  C   LIG    1       26.345 -17.701   3.938  0.00  0.00    +0.035 A 
ATOM      3  C   LIG    1       27.661 -17.550   4.408  0.00  0.00    +0.023 A 
ATOM      4  C   LIG    1       28.330 -18.578   5.071  0.00  0.00    +0.002 A 
ATOM      5  C   LIG    1       27.704 -19.801   5.251  0.00  0.00    +0.000 A 
ATOM      6  C   LIG    1       26.418 -19.993   4.753  0.00  0.00    +0.006 A 
ENDROOT
BRANCH   2   7
ATOM      7  N   LIG    1       25.846 -16.623   3.180  0.00  0.00    -0.312 N 
ATOM      8  H   LIG    1       25.464 -16.954   2.293  0.00  0.00    +0.152 HD
BRANCH   7   9
ATOM      9  C   LIG    1       25.302 -15.365   3.542  0.00  0.00    +0.068 A 
ATOM     10  C   LIG    1       24.000 -15.169   4.037  0.00  0.00    +0.064 A 
ATOM     11 CL   LIG    1       22.935 -16.482   4.409  0.00  0.00    -0.082 Cl
ATOM     12  C   LIG    1       23.530 -13.880   4.342  0.00  0.00    +0.022 A 
ATOM     13  C   LIG    1       24.357 -12.767   4.196  0.00  0.00    +0.003 A 
ATOM     14  C   LIG    1       25.668 -12.940   3.770  0.00  0.00    +0.022 A 
ATOM     15  C   LIG    1       26.131 -14.221   3.453  0.00  0.00    +0.064 A 
ATOM     16 CL   LIG    1       27.781 -14.372   2.937  0.00  0.00    -0.082 Cl
ENDBRANCH   7   9
ENDBRANCH   2   7
BRANCH   1  17
ATOM     17  C   LIG    1       24.321 -19.273   3.609  0.00  0.00    +0.157 C 
BRANCH  17  19
ATOM     18  O   LIG    1       22.914 -19.747   5.495  0.00  0.00    -0.251 OA
ATOM     19  C   LIG    1       23.493 -20.174   4.510  0.00  0.00    +0.309 C 
BRANCH  19  20
ATOM     20  O   LIG    1       23.389 -21.475   4.145  0.00  0.00    -0.480 OA
ATOM     21  H   LIG    1       22.738 -21.659   3.446  0.00  0.00    +0.295 HD
ENDBRANCH  19  20
ENDBRANCH  17  19
ENDBRANCH   1  17
TORSDOF 5
ENDMDL
MODEL 6
REMARK VINA RESULT:      -3.9      1.641      2.035
REMARK  Name = *****
REMARK                            x       y       z     vdW  Elec       q    Type
REMARK                         _______ _______ _______ _____ _____    ______ ____
ROOT
ATOM      1  C   LIG    1       25.313 -15.540   3.794  0.00  0.00    -0.016 A 
ATOM      2  C   LIG    1       24.378 -16.566   4.028  0.00  0.00    +0.035 A 
ATOM      3  C   LIG    1       23.086 -16.208   4.453  0.00  0.00    +0.023 A 
ATOM      4  C   LIG    1       22.735 -14.884   4.710  0.00  0.00    +0.002 A 
ATOM      5  C   LIG    1       23.666 -13.875   4.513  0.00  0.00    +0.000 A 
ATOM      6  C   LIG    1       24.937 -14.198   4.047  0.00  0.00    +0.006 A 
ENDROOT
BRANCH   2   7
ATOM      7  N   LIG    1       24.548 -17.923   3.688  0.00  0.00    -0.312 N 
ATOM      8  H   LIG    1       25.402 -18.053   3.145  0.00  0.00    +0.152 HD
BRANCH   7   9
ATOM      9  C   LIG    1       24.144 -19.128   4.317  0.00  0.00    +0.068 A 
ATOM     10  C   LIG    1       22.808 -19.547   4.461  0.00  0.00    +0.064 A 
ATOM     11 CL   LIG    1       21.482 -18.696   3.746  0.00  0.00    -0.082 Cl
ATOM     12  C   LIG    1       22.495 -20.743   5.128  0.00  0.00    +0.022 A 
ATOM     13  C   LIG    1       23.504 -21.564   5.630  0.00  0.00    +0.003 A 
ATOM     14  C   LIG    1       24.834 -21.207   5.444  0.00  0.00    +0.022 A 
ATOM     15  C   LIG    1       25.145 -20.008   4.794  0.00  0.00    +0.064 A 
ATOM     16 CL   LIG    1       26.824 -19.623   4.584  0.00  0.00    -0.082 Cl
ENDBRANCH   7   9
ENDBRANCH   2   7
BRANCH   1  17
ATOM     17  C   LIG    1       26.728 -15.770   3.309  0.00  0.00    +0.157 C 
BRANCH  17  19
ATOM     18  O   LIG    1       28.275 -14.041   3.923  0.00  0.00    -0.251 OA
ATOM     19  C   LIG    1       27.562 -14.525   3.060  0.00  0.00    +0.309 C 
BRANCH  19  20
ATOM     20  O   LIG    1       27.513 -13.995   1.813  0.00  0.00    -0.480 OA
ATOM     21  H   LIG    1       28.363 -13.962   1.343  0.00  0.00    +0.295 HD
ENDBRANCH  19  20
ENDBRANCH  17  19
ENDBRANCH   1  17
TORSDOF 5
ENDMDL
MODEL 7
REMARK VINA RESULT:      -3.8      2.505      3.434
REMARK  Name = *****
REMARK                            x       y       z     vdW  Elec       q    Type
REMARK                         _______ _______ _______ _____ _____    ______ ____
ROOT
ATOM      1  C   LIG    1       25.259 -14.756   3.812  0.00  0.00    -0.016 A 
ATOM      2  C   LIG    1       25.556 -16.089   3.470  0.00  0.00    +0.035 A 
ATOM      3  C   LIG    1       26.866 -16.555   3.678  0.00  0.00    +0.023 A 
ATOM      4  C   LIG    1       27.881 -15.720   4.144  0.00  0.00    +0.002 A 
ATOM      5  C   LIG    1       27.597 -14.397   4.447  0.00  0.00    +0.000 A 
ATOM      6  C   LIG    1       26.297 -13.923   4.296  0.00  0.00    +0.006 A 
ENDROOT
BRANCH   2   7
ATOM      7  N   LIG    1       24.613 -17.074   3.118  0.00  0.00    -0.312 N 
ATOM      8  H   LIG    1       24.665 -17.282   2.120  0.00  0.00    +0.152 HD
BRANCH   7   9
ATOM      9  C   LIG    1       24.027 -18.145   3.841  0.00  0.00    +0.068 A 
ATOM     10  C   LIG    1       22.902 -18.026   4.676  0.00  0.00    +0.064 A 
ATOM     11 CL   LIG    1       21.991 -16.560   4.810  0.00  0.00    -0.082 Cl
ATOM     12  C   LIG    1       22.406 -19.135   5.382  0.00  0.00    +0.022 A 
ATOM     13  C   LIG    1       22.995 -20.390   5.240  0.00  0.00    +0.003 A 
ATOM     14  C   LIG    1       24.068 -20.550   4.372  0.00  0.00    +0.022 A 
ATOM     15  C   LIG    1       24.570 -19.443   3.681  0.00  0.00    +0.064 A 
ATOM     16 CL   LIG    1       25.905 -19.709   2.604  0.00  0.00    -0.082 Cl
ENDBRANCH   7   9
ENDBRANCH   2   7
BRANCH   1  17
ATOM     17  C   LIG    1       23.891 -14.124   3.670  0.00  0.00    +0.157 C 
BRANCH  17  19
ATOM     18  O   LIG    1       23.663 -11.743   3.861  0.00  0.00    -0.251 OA
ATOM     19  C   LIG    1       23.861 -12.702   3.135  0.00  0.00    +0.309 C 
BRANCH  19  20
ATOM     20  O   LIG    1       24.108 -12.540   1.812  0.00  0.00    -0.480 OA
ATOM     21  H   LIG    1       25.046 -12.577   1.558  0.00  0.00    +0.295 HD
ENDBRANCH  19  20
ENDBRANCH  17  19
ENDBRANCH   1  17
TORSDOF 5
ENDMDL
MODEL 8
REMARK VINA RESULT:      -3.8      3.264      6.387
REMARK  Name = *****
REMARK                            x       y       z     vdW  Elec       q    Type
REMARK                         _______ _______ _______ _____ _____    ______ ____
ROOT
ATOM      1  C   LIG    1       25.713 -19.023   4.085  0.00  0.00    -0.016 A 
ATOM      2  C   LIG    1       26.278 -17.743   3.930  0.00  0.00    +0.035 A 
ATOM      3  C   LIG    1       27.593 -17.533   4.381  0.00  0.00    +0.023 A 
ATOM      4  C   LIG    1       28.317 -18.531   5.031  0.00  0.00    +0.002 A 
ATOM      5  C   LIG    1       27.749 -19.782   5.217  0.00  0.00    +0.000 A 
ATOM      6  C   LIG    1       26.466 -20.030   4.737  0.00  0.00    +0.006 A 
ENDROOT
BRANCH   2   7
ATOM      7  N   LIG    1       25.720 -16.687   3.181  0.00  0.00    -0.312 N 
ATOM      8  H   LIG    1       25.179 -17.050   2.395  0.00  0.00    +0.152 HD
BRANCH   7   9
ATOM      9  C   LIG    1       25.313 -15.374   3.528  0.00  0.00    +0.068 A 
ATOM     10  C   LIG    1       26.083 -14.215   3.319  0.00  0.00    +0.064 A 
ATOM     11 CL   LIG    1       27.586 -14.237   2.462  0.00  0.00    -0.082 Cl
ATOM     12  C   LIG    1       25.614 -12.954   3.724  0.00  0.00    +0.022 A 
ATOM     13  C   LIG    1       24.357 -12.816   4.310  0.00  0.00    +0.003 A 
ATOM     14  C   LIG    1       23.549 -13.935   4.470  0.00  0.00    +0.022 A 
ATOM     15  C   LIG    1       24.021 -15.192   4.080  0.00  0.00    +0.064 A 
ATOM     16 CL   LIG    1       22.961 -16.549   4.296  0.00  0.00    -0.082 Cl
ENDBRANCH   7   9
ENDBRANCH   2   7
BRANCH   1  17
ATOM     17  C   LIG    1       24.323 -19.404   3.625  0.00  0.00    +0.157 C 
BRANCH  17  19
ATOM     18  O   LIG    1       22.993 -19.806   5.583  0.00  0.00    -0.251 OA
ATOM     19  C   LIG    1       23.513 -20.266   4.580  0.00  0.00    +0.309 C 
BRANCH  19  20
ATOM     20  O   LIG    1       23.356 -21.569   4.244  0.00  0.00    -0.480 OA
ATOM     21  H   LIG    1       23.332 -22.190   4.992  0.00  0.00    +0.295 HD
ENDBRANCH  19  20
ENDBRANCH  17  19
ENDBRANCH   1  17
TORSDOF 5
ENDMDL
MODEL 9
REMARK VINA RESULT:      -3.8      2.297      3.694
REMARK  Name = *****
REMARK                            x       y       z     vdW  Elec       q    Type
REMARK                         _______ _______ _______ _____ _____    ______ ____
ROOT
ATOM      1  C   LIG    1       25.311 -15.165   3.839  0.00  0.00    -0.016 A 
ATOM      2  C   LIG    1       25.664 -16.497   3.548  0.00  0.00    +0.035 A 
ATOM      3  C   LIG    1       27.010 -16.877   3.693  0.00  0.00    +0.023 A 
ATOM      4  C   LIG    1       28.001 -15.964   4.047  0.00  0.00    +0.002 A 
ATOM      5  C   LIG    1       27.660 -14.644   4.299  0.00  0.00    +0.000 A 
ATOM      6  C   LIG    1       26.328 -14.251   4.210  0.00  0.00    +0.006 A 
ENDROOT
BRANCH   2   7
ATOM      7  N   LIG    1       24.760 -17.551   3.310  0.00  0.00    -0.312 N 
ATOM      8  H   LIG    1       24.730 -17.781   2.316  0.00  0.00    +0.152 HD
BRANCH   7   9
ATOM      9  C   LIG    1       24.320 -18.637   4.109  0.00  0.00    +0.068 A 
ATOM     10  C   LIG    1       25.154 -19.656   4.603  0.00  0.00    +0.064 A 
ATOM     11 CL   LIG    1       26.874 -19.628   4.414  0.00  0.00    -0.082 Cl
ATOM     12  C   LIG    1       24.627 -20.715   5.362  0.00  0.00    +0.022 A 
ATOM     13  C   LIG    1       23.269 -20.760   5.676  0.00  0.00    +0.003 A 
ATOM     14  C   LIG    1       22.434 -19.732   5.256  0.00  0.00    +0.022 A 
ATOM     15  C   LIG    1       22.956 -18.686   4.487  0.00  0.00    +0.064 A 
ATOM     16 CL   LIG    1       21.865 -17.428   4.001  0.00  0.00    -0.082 Cl
ENDBRANCH   7   9
ENDBRANCH   2   7
BRANCH   1  17
ATOM     17  C   LIG    1       23.903 -14.618   3.754  0.00  0.00    +0.157 C 
BRANCH  17  19
ATOM     18  O   LIG    1       23.739 -12.262   4.180  0.00  0.00    -0.251 OA
ATOM     19  C   LIG    1       23.773 -13.158   3.354  0.00  0.00    +0.309 C 
BRANCH  19  20
ATOM     20  O   LIG    1       23.739 -12.888   2.026  0.00  0.00    -0.480 OA
ATOM     21  H   LIG    1       24.355 -12.198   1.727  0.00  0.00    +0.295 HD
ENDBRANCH  19  20
ENDBRANCH  17  19
ENDBRANCH   1  17
TORSDOF 5
ENDMDL
