MODEL 1
REMARK VINA RESULT:      -9.4      0.000      0.000
REMARK  Name = *****
REMARK                            x       y       z     vdW  Elec       q    Type
REMARK                         _______ _______ _______ _____ _____    ______ ____
ROOT
ATOM      1  C   LIG    1       29.262 -19.531   7.248  0.00  0.00    +0.125 A 
ATOM      2  C   LIG    1       28.893 -19.207   5.941  0.00  0.00    +0.069 A 
ATOM      3 CL   LIG    1       29.919 -18.382   4.823  0.00  0.00    -0.082 Cl
ATOM      4  C   LIG    1       27.614 -19.560   5.476  0.00  0.00    +0.047 A 
ATOM      5  C   LIG    1       26.709 -20.265   6.280  0.00  0.00    +0.057 A 
ATOM      6  N   LIG    1       25.459 -20.606   5.769  0.00  0.00    -0.326 N 
ATOM      7  H   LIG    1       25.391 -20.555   4.757  0.00  0.00    +0.148 HD
ATOM      8  C   LIG    1       24.756 -21.742   6.342  0.00  0.00    +0.163 C 
ATOM      9  N   LIG    1       24.560 -21.499   7.761  0.00  0.00    -0.170 NA
ATOM     10  H   LIG    1       23.988 -22.220   8.196  0.00  0.00    +0.150 HD
ATOM     11  S   LIG    1       25.949 -21.307   8.673  0.00  0.00    +0.062 S 
ATOM     12  O   LIG    1       26.453 -22.638   8.934  0.00  0.00    -0.153 OA
ATOM     13  O   LIG    1       25.633 -20.402   9.755  0.00  0.00    -0.153 OA
ATOM     14  C   LIG    1       27.084 -20.515   7.597  0.00  0.00    +0.128 A 
ATOM     15  C   LIG    1       28.347 -20.173   8.089  0.00  0.00    +0.060 A 
ENDROOT
BRANCH   8  16
ATOM     16  C   LIG    1       25.444 -23.081   6.005  0.00  0.00    +0.033 C 
ATOM     17  C   LIG    1       24.511 -24.075   5.248  0.00  0.00    +0.018 C 
ATOM     18  C   LIG    1       23.849 -24.846   6.394  0.00  0.00    +0.015 C 
ATOM     19  C   LIG    1       25.181 -25.291   7.000  0.00  0.00    +0.012 C 
ATOM     20  C   LIG    1       25.808 -25.900   5.769  0.00  0.00    -0.027 C 
ATOM     21  C   LIG    1       25.394 -25.182   4.713  0.00  0.00    -0.027 C 
ATOM     22  C   LIG    1       25.845 -23.924   7.265  0.00  0.00    +0.015 C 
ENDBRANCH   8  16
BRANCH   1  23
ATOM     23  S   LIG    1       30.882 -19.204   7.867  0.00  0.00    +0.057 S 
ATOM     24  O   LIG    1       31.836 -19.963   7.094  0.00  0.00    -0.153 OA
ATOM     25  O   LIG    1       31.030 -17.782   8.071  0.00  0.00    -0.153 OA
BRANCH  23  26
ATOM     26  N   LIG    1       30.878 -19.931   9.377  0.00  0.00    -0.203 NA
ATOM     27  H   LIG    1       30.072 -20.552   9.463  0.00  0.00    +0.144 HD
ATOM     28  H   LIG    1       31.773 -20.394   9.543  0.00  0.00    +0.144 HD
ENDBRANCH  23  26
ENDBRANCH   1  23
TORSDOF 3
ENDMDL
MODEL 2
REMARK VINA RESULT:      -8.8      3.111      7.342
REMARK  Name = *****
REMARK                            x       y       z     vdW  Elec       q    Type
REMARK                         _______ _______ _______ _____ _____    ______ ____
ROOT
ATOM      1  C   LIG    1       27.437 -21.398   7.141  0.00  0.00    +0.125 A 
ATOM      2  C   LIG    1       27.668 -20.349   6.249  0.00  0.00    +0.069 A 
ATOM      3 CL   LIG    1       26.505 -19.779   5.106  0.00  0.00    -0.082 Cl
ATOM      4  C   LIG    1       28.913 -19.698   6.254  0.00  0.00    +0.047 A 
ATOM      5  C   LIG    1       29.921 -20.047   7.162  0.00  0.00    +0.057 A 
ATOM      6  N   LIG    1       31.133 -19.362   7.141  0.00  0.00    -0.326 N 
ATOM      7  H   LIG    1       31.104 -18.475   6.646  0.00  0.00    +0.148 HD
ATOM      8  C   LIG    1       31.938 -19.327   8.350  0.00  0.00    +0.163 C 
ATOM      9  N   LIG    1       32.254 -20.692   8.737  0.00  0.00    -0.170 NA
ATOM     10  H   LIG    1       32.897 -20.726   9.525  0.00  0.00    +0.150 HD
ATOM     11  S   LIG    1       30.947 -21.679   9.080  0.00  0.00    +0.062 S 
ATOM     12  O   LIG    1       30.533 -21.355  10.427  0.00  0.00    -0.153 OA
ATOM     13  O   LIG    1       31.320 -23.028   8.717  0.00  0.00    -0.153 OA
ATOM     14  C   LIG    1       29.682 -21.138   7.994  0.00  0.00    +0.128 A 
ATOM     15  C   LIG    1       28.455 -21.809   8.007  0.00  0.00    +0.060 A 
ENDROOT
BRANCH   8  16
ATOM     16  C   LIG    1       31.287 -18.476   9.458  0.00  0.00    +0.033 C 
ATOM     17  C   LIG    1       30.946 -17.026   8.997  0.00  0.00    +0.018 C 
ATOM     18  C   LIG    1       32.229 -16.261   9.336  0.00  0.00    +0.015 C 
ATOM     19  C   LIG    1       32.201 -16.665  10.811  0.00  0.00    +0.012 C 
ATOM     20  C   LIG    1       30.795 -16.231  11.149  0.00  0.00    -0.027 C 
ATOM     21  C   LIG    1       30.043 -16.430  10.056  0.00  0.00    -0.027 C 
ATOM     22  C   LIG    1       32.224 -18.203  10.684  0.00  0.00    +0.015 C 
ENDBRANCH   8  16
BRANCH   1  23
ATOM     23  S   LIG    1       25.868 -22.197   7.253  0.00  0.00    +0.057 S 
ATOM     24  O   LIG    1       26.040 -23.463   7.926  0.00  0.00    -0.153 OA
ATOM     25  O   LIG    1       24.879 -21.237   7.683  0.00  0.00    -0.153 OA
BRANCH  23  26
ATOM     26  N   LIG    1       25.520 -22.601   5.664  0.00  0.00    -0.203 NA
ATOM     27  H   LIG    1       26.355 -22.970   5.208  0.00  0.00    +0.144 HD
ATOM     28  H   LIG    1       24.720 -23.235   5.633  0.00  0.00    +0.144 HD
ENDBRANCH  23  26
ENDBRANCH   1  23
TORSDOF 3
ENDMDL
MODEL 3
REMARK VINA RESULT:      -8.2      9.035     11.088
REMARK  Name = *****
REMARK                            x       y       z     vdW  Elec       q    Type
REMARK                         _______ _______ _______ _____ _____    ______ ____
ROOT
ATOM      1  C   LIG    1       24.559 -29.775   8.231  0.00  0.00    +0.125 A 
ATOM      2  C   LIG    1       25.450 -29.348   9.218  0.00  0.00    +0.069 A 
ATOM      3 CL   LIG    1       26.921 -28.503   8.892  0.00  0.00    -0.082 Cl
ATOM      4  C   LIG    1       25.161 -29.606  10.569  0.00  0.00    +0.047 A 
ATOM      5  C   LIG    1       23.979 -30.249  10.957  0.00  0.00    +0.057 A 
ATOM      6  N   LIG    1       23.729 -30.469  12.310  0.00  0.00    -0.326 N 
ATOM      7  H   LIG    1       24.296 -29.906  12.937  0.00  0.00    +0.148 HD
ATOM      8  C   LIG    1       22.353 -30.622  12.750  0.00  0.00    +0.163 C 
ATOM      9  N   LIG    1       21.762 -31.746  12.043  0.00  0.00    -0.170 NA
ATOM     10  H   LIG    1       20.827 -31.961  12.382  0.00  0.00    +0.150 HD
ATOM     11  S   LIG    1       21.702 -31.617  10.376  0.00  0.00    +0.062 S 
ATOM     12  O   LIG    1       20.562 -30.780  10.073  0.00  0.00    -0.153 OA
ATOM     13  O   LIG    1       21.814 -32.953   9.836  0.00  0.00    -0.153 OA
ATOM     14  C   LIG    1       23.145 -30.719   9.946  0.00  0.00    +0.128 A 
ATOM     15  C   LIG    1       23.408 -30.481   8.594  0.00  0.00    +0.060 A 
ENDROOT
BRANCH   8  16
ATOM     16  C   LIG    1       21.559 -29.305  12.647  0.00  0.00    +0.033 C 
ATOM     17  C   LIG    1       22.198 -28.138  13.459  0.00  0.00    +0.018 C 
ATOM     18  C   LIG    1       21.534 -28.286  14.831  0.00  0.00    +0.015 C 
ATOM     19  C   LIG    1       20.115 -28.193  14.267  0.00  0.00    +0.012 C 
ATOM     20  C   LIG    1       20.256 -26.909  13.484  0.00  0.00    -0.027 C 
ATOM     21  C   LIG    1       21.511 -26.865  13.012  0.00  0.00    -0.027 C 
ATOM     22  C   LIG    1       20.125 -29.376  13.276  0.00  0.00    +0.015 C 
ENDBRANCH   8  16
BRANCH   1  23
ATOM     23  S   LIG    1       24.811 -29.403   6.525  0.00  0.00    +0.057 S 
ATOM     24  O   LIG    1       24.898 -27.970   6.370  0.00  0.00    -0.153 OA
ATOM     25  O   LIG    1       25.822 -30.286   5.993  0.00  0.00    -0.153 OA
BRANCH  23  26
ATOM     26  N   LIG    1       23.353 -29.823   5.813  0.00  0.00    -0.203 NA
ATOM     27  H   LIG    1       23.321 -29.477   4.854  0.00  0.00    +0.144 HD
ATOM     28  H   LIG    1       23.204 -30.831   5.891  0.00  0.00    +0.144 HD
ENDBRANCH  23  26
ENDBRANCH   1  23
TORSDOF 3
ENDMDL
MODEL 4
REMARK VINA RESULT:      -8.0      7.688     10.144
REMARK  Name = *****
REMARK                            x       y       z     vdW  Elec       q    Type
REMARK                         _______ _______ _______ _____ _____    ______ ____
ROOT
ATOM      1  C   LIG    1       23.480 -29.679  12.228  0.00  0.00    +0.125 A 
ATOM      2  C   LIG    1       22.384 -29.942  11.404  0.00  0.00    +0.069 A 
ATOM      3 CL   LIG    1       20.751 -30.012  11.962  0.00  0.00    -0.082 Cl
ATOM      4  C   LIG    1       22.588 -30.169  10.033  0.00  0.00    +0.047 A 
ATOM      5  C   LIG    1       23.864 -30.100   9.458  0.00  0.00    +0.057 A 
ATOM      6  N   LIG    1       24.016 -30.316   8.091  0.00  0.00    -0.326 N 
ATOM      7  H   LIG    1       23.154 -30.243   7.558  0.00  0.00    +0.148 HD
ATOM      8  C   LIG    1       25.167 -29.743   7.415  0.00  0.00    +0.163 C 
ATOM      9  N   LIG    1       26.375 -30.256   8.041  0.00  0.00    -0.170 NA
ATOM     10  H   LIG    1       27.215 -29.962   7.546  0.00  0.00    +0.150 HD
ATOM     11  S   LIG    1       26.568 -29.903   9.665  0.00  0.00    +0.062 S 
ATOM     12  O   LIG    1       27.067 -28.547   9.731  0.00  0.00    -0.153 OA
ATOM     13  O   LIG    1       27.301 -30.999  10.259  0.00  0.00    -0.153 OA
ATOM     14  C   LIG    1       24.942 -29.900  10.318  0.00  0.00    +0.128 A 
ATOM     15  C   LIG    1       24.770 -29.676  11.687  0.00  0.00    +0.060 A 
ENDROOT
BRANCH   8  16
ATOM     16  C   LIG    1       25.087 -28.206   7.332  0.00  0.00    +0.033 C 
ATOM     17  C   LIG    1       24.380 -27.698   6.038  0.00  0.00    +0.018 C 
ATOM     18  C   LIG    1       25.547 -27.567   5.054  0.00  0.00    +0.015 C 
ATOM     19  C   LIG    1       26.339 -26.625   5.962  0.00  0.00    +0.012 C 
ATOM     20  C   LIG    1       25.272 -25.587   6.215  0.00  0.00    -0.027 C 
ATOM     21  C   LIG    1       24.093 -26.226   6.244  0.00  0.00    -0.027 C 
ATOM     22  C   LIG    1       26.483 -27.501   7.224  0.00  0.00    +0.015 C 
ENDBRANCH   8  16
BRANCH   1  23
ATOM     23  S   LIG    1       23.288 -29.293  13.939  0.00  0.00    +0.057 S 
ATOM     24  O   LIG    1       22.595 -28.031  14.055  0.00  0.00    -0.153 OA
ATOM     25  O   LIG    1       22.841 -30.472  14.642  0.00  0.00    -0.153 OA
BRANCH  23  26
ATOM     26  N   LIG    1       24.853 -28.970  14.445  0.00  0.00    -0.203 NA
ATOM     27  H   LIG    1       24.986 -29.305  15.400  0.00  0.00    +0.144 HD
ATOM     28  H   LIG    1       25.523 -29.356  13.777  0.00  0.00    +0.144 HD
ENDBRANCH  23  26
ENDBRANCH   1  23
TORSDOF 3
ENDMDL
MODEL 5
REMARK VINA RESULT:      -8.0      8.094      9.421
REMARK  Name = *****
REMARK                            x       y       z     vdW  Elec       q    Type
REMARK                         _______ _______ _______ _____ _____    ______ ____
ROOT
ATOM      1  C   LIG    1       25.382 -26.621  13.431  0.00  0.00    +0.125 A 
ATOM      2  C   LIG    1       24.048 -27.011  13.299  0.00  0.00    +0.069 A 
ATOM      3 CL   LIG    1       22.704 -26.041  13.787  0.00  0.00    -0.082 Cl
ATOM      4  C   LIG    1       23.746 -28.264  12.739  0.00  0.00    +0.047 A 
ATOM      5  C   LIG    1       24.750 -29.121  12.272  0.00  0.00    +0.057 A 
ATOM      6  N   LIG    1       24.401 -30.346  11.710  0.00  0.00    -0.326 N 
ATOM      7  H   LIG    1       23.427 -30.418  11.432  0.00  0.00    +0.148 HD
ATOM      8  C   LIG    1       25.319 -30.973  10.774  0.00  0.00    +0.163 C 
ATOM      9  N   LIG    1       26.592 -31.184  11.443  0.00  0.00    -0.170 NA
ATOM     10  H   LIG    1       27.245 -31.708  10.864  0.00  0.00    +0.150 HD
ATOM     11  S   LIG    1       27.366 -29.810  12.000  0.00  0.00    +0.062 S 
ATOM     12  O   LIG    1       28.025 -29.221  10.855  0.00  0.00    -0.153 OA
ATOM     13  O   LIG    1       28.112 -30.184  13.181  0.00  0.00    -0.153 OA
ATOM     14  C   LIG    1       26.071 -28.730  12.477  0.00  0.00    +0.128 A 
ATOM     15  C   LIG    1       26.402 -27.491  13.036  0.00  0.00    +0.060 A 
ENDROOT
BRANCH   8  16
ATOM     16  C   LIG    1       25.410 -30.200   9.443  0.00  0.00    +0.033 C 
ATOM     17  C   LIG    1       24.051 -30.124   8.684  0.00  0.00    +0.018 C 
ATOM     18  C   LIG    1       24.086 -31.383   7.812  0.00  0.00    +0.015 C 
ATOM     19  C   LIG    1       25.407 -31.003   7.140  0.00  0.00    +0.012 C 
ATOM     20  C   LIG    1       25.044 -29.613   6.675  0.00  0.00    -0.027 C 
ATOM     21  C   LIG    1       24.216 -29.089   7.591  0.00  0.00    -0.027 C 
ATOM     22  C   LIG    1       26.329 -30.884   8.372  0.00  0.00    +0.015 C 
ENDBRANCH   8  16
BRANCH   1  23
ATOM     23  S   LIG    1       25.830 -25.026  14.038  0.00  0.00    +0.057 S 
ATOM     24  O   LIG    1       25.161 -24.022  13.244  0.00  0.00    -0.153 OA
ATOM     25  O   LIG    1       25.752 -25.030  15.479  0.00  0.00    -0.153 OA
BRANCH  23  26
ATOM     26  N   LIG    1       27.449 -24.890  13.622  0.00  0.00    -0.203 NA
ATOM     27  H   LIG    1       28.030 -25.322  14.341  0.00  0.00    +0.144 HD
ATOM     28  H   LIG    1       27.602 -25.270  12.687  0.00  0.00    +0.144 HD
ENDBRANCH  23  26
ENDBRANCH   1  23
TORSDOF 3
ENDMDL
MODEL 6
REMARK VINA RESULT:      -7.8      8.472     10.515
REMARK  Name = *****
REMARK                            x       y       z     vdW  Elec       q    Type
REMARK                         _______ _______ _______ _____ _____    ______ ____
ROOT
ATOM      1  C   LIG    1       25.204 -29.541   7.887  0.00  0.00    +0.125 A 
ATOM      2  C   LIG    1       25.941 -28.396   8.192  0.00  0.00    +0.069 A 
ATOM      3 CL   LIG    1       26.280 -27.134   7.062  0.00  0.00    -0.082 Cl
ATOM      4  C   LIG    1       26.454 -28.229   9.490  0.00  0.00    +0.047 A 
ATOM      5  C   LIG    1       26.212 -29.168  10.502  0.00  0.00    +0.057 A 
ATOM      6  N   LIG    1       26.728 -28.951  11.777  0.00  0.00    -0.326 N 
ATOM      7  H   LIG    1       27.017 -27.994  11.955  0.00  0.00    +0.148 HD
ATOM      8  C   LIG    1       26.074 -29.581  12.912  0.00  0.00    +0.163 C 
ATOM      9  N   LIG    1       26.082 -31.020  12.712  0.00  0.00    -0.170 NA
ATOM     10  H   LIG    1       25.721 -31.520  13.522  0.00  0.00    +0.150 HD
ATOM     11  S   LIG    1       25.285 -31.578  11.351  0.00  0.00    +0.062 S 
ATOM     12  O   LIG    1       23.877 -31.596  11.682  0.00  0.00    -0.153 OA
ATOM     13  O   LIG    1       25.965 -32.777  10.915  0.00  0.00    -0.153 OA
ATOM     14  C   LIG    1       25.529 -30.328  10.147  0.00  0.00    +0.128 A 
ATOM     15  C   LIG    1       25.010 -30.523   8.863  0.00  0.00    +0.060 A 
ENDROOT
BRANCH   8  16
ATOM     16  C   LIG    1       24.683 -28.976  13.191  0.00  0.00    +0.033 C 
ATOM     17  C   LIG    1       24.707 -27.423  13.329  0.00  0.00    +0.018 C 
ATOM     18  C   LIG    1       24.956 -27.228  14.828  0.00  0.00    +0.015 C 
ATOM     19  C   LIG    1       23.737 -28.055  15.241  0.00  0.00    +0.012 C 
ATOM     20  C   LIG    1       22.684 -27.352  14.418  0.00  0.00    -0.027 C 
ATOM     21  C   LIG    1       23.268 -26.956  13.277  0.00  0.00    -0.027 C 
ATOM     22  C   LIG    1       24.068 -29.404  14.568  0.00  0.00    +0.015 C 
ENDBRANCH   8  16
BRANCH   1  23
ATOM     23  S   LIG    1       24.451 -29.771   6.307  0.00  0.00    +0.057 S 
ATOM     24  O   LIG    1       23.617 -30.949   6.357  0.00  0.00    -0.153 OA
ATOM     25  O   LIG    1       23.946 -28.503   5.836  0.00  0.00    -0.153 OA
BRANCH  23  26
ATOM     26  N   LIG    1       25.737 -30.199   5.320  0.00  0.00    -0.203 NA
ATOM     27  H   LIG    1       26.418 -30.741   5.851  0.00  0.00    +0.144 HD
ATOM     28  H   LIG    1       25.391 -30.676   4.485  0.00  0.00    +0.144 HD
ENDBRANCH  23  26
ENDBRANCH   1  23
TORSDOF 3
ENDMDL
MODEL 7
REMARK VINA RESULT:      -7.6      7.971     10.279
REMARK  Name = *****
REMARK                            x       y       z     vdW  Elec       q    Type
REMARK                         _______ _______ _______ _____ _____    ______ ____
ROOT
ATOM      1  C   LIG    1       25.154 -28.863   7.276  0.00  0.00    +0.125 A 
ATOM      2  C   LIG    1       25.969 -27.914   7.895  0.00  0.00    +0.069 A 
ATOM      3 CL   LIG    1       26.477 -26.441   7.149  0.00  0.00    -0.082 Cl
ATOM      4  C   LIG    1       26.423 -28.141   9.205  0.00  0.00    +0.047 A 
ATOM      5  C   LIG    1       26.046 -29.282   9.926  0.00  0.00    +0.057 A 
ATOM      6  N   LIG    1       26.508 -29.456  11.228  0.00  0.00    -0.326 N 
ATOM      7  H   LIG    1       26.869 -28.611  11.661  0.00  0.00    +0.148 HD
ATOM      8  C   LIG    1       25.741 -30.292  12.136  0.00  0.00    +0.163 C 
ATOM      9  N   LIG    1       25.636 -31.624  11.564  0.00  0.00    -0.170 NA
ATOM     10  H   LIG    1       25.190 -32.279  12.202  0.00  0.00    +0.150 HD
ATOM     11  S   LIG    1       24.870 -31.729  10.081  0.00  0.00    +0.062 S 
ATOM     12  O   LIG    1       23.450 -31.694  10.352  0.00  0.00    -0.153 OA
ATOM     13  O   LIG    1       25.468 -32.833   9.364  0.00  0.00    -0.153 OA
ATOM     14  C   LIG    1       25.286 -30.238   9.257  0.00  0.00    +0.128 A 
ATOM     15  C   LIG    1       24.824 -30.042   7.952  0.00  0.00    +0.060 A 
ENDROOT
BRANCH   8  16
ATOM     16  C   LIG    1       24.395 -29.648  12.523  0.00  0.00    +0.033 C 
ATOM     17  C   LIG    1       24.548 -28.214  13.115  0.00  0.00    +0.018 C 
ATOM     18  C   LIG    1       24.705 -28.490  14.614  0.00  0.00    +0.015 C 
ATOM     19  C   LIG    1       23.391 -29.265  14.711  0.00  0.00    +0.012 C 
ATOM     20  C   LIG    1       22.467 -28.245  14.090  0.00  0.00    -0.027 C 
ATOM     21  C   LIG    1       23.165 -27.600  13.143  0.00  0.00    -0.027 C 
ATOM     22  C   LIG    1       23.646 -30.388  13.684  0.00  0.00    +0.015 C 
ENDBRANCH   8  16
BRANCH   1  23
ATOM     23  S   LIG    1       24.472 -28.600   5.670  0.00  0.00    +0.057 S 
ATOM     24  O   LIG    1       23.812 -27.316   5.650  0.00  0.00    -0.153 OA
ATOM     25  O   LIG    1       25.453 -28.964   4.675  0.00  0.00    -0.153 OA
BRANCH  23  26
ATOM     26  N   LIG    1       23.229 -29.722   5.583  0.00  0.00    -0.203 NA
ATOM     27  H   LIG    1       22.825 -29.722   4.646  0.00  0.00    +0.144 HD
ATOM     28  H   LIG    1       23.565 -30.638   5.887  0.00  0.00    +0.144 HD
ENDBRANCH  23  26
ENDBRANCH   1  23
TORSDOF 3
ENDMDL
MODEL 8
REMARK VINA RESULT:      -7.4      8.788     10.249
REMARK  Name = *****
REMARK                            x       y       z     vdW  Elec       q    Type
REMARK                         _______ _______ _______ _____ _____    ______ ____
ROOT
ATOM      1  C   LIG    1       23.877 -28.337  12.746  0.00  0.00    +0.125 A 
ATOM      2  C   LIG    1       22.871 -29.227  12.365  0.00  0.00    +0.069 A 
ATOM      3 CL   LIG    1       21.217 -29.079  12.841  0.00  0.00    -0.082 Cl
ATOM      4  C   LIG    1       23.191 -30.322  11.544  0.00  0.00    +0.047 A 
ATOM      5  C   LIG    1       24.492 -30.524  11.063  0.00  0.00    +0.057 A 
ATOM      6  N   LIG    1       24.758 -31.614  10.239  0.00  0.00    -0.326 N 
ATOM      7  H   LIG    1       23.932 -32.037   9.824  0.00  0.00    +0.148 HD
ATOM      8  C   LIG    1       25.892 -31.547   9.334  0.00  0.00    +0.163 C 
ATOM      9  N   LIG    1       27.098 -31.329  10.116  0.00  0.00    -0.170 NA
ATOM     10  H   LIG    1       27.938 -31.368   9.543  0.00  0.00    +0.150 HD
ATOM     11  S   LIG    1       27.143 -29.923  11.021  0.00  0.00    +0.062 S 
ATOM     12  O   LIG    1       27.502 -28.861  10.107  0.00  0.00    -0.153 OA
ATOM     13  O   LIG    1       27.935 -30.194  12.200  0.00  0.00    -0.153 OA
ATOM     14  C   LIG    1       25.483 -29.655  11.514  0.00  0.00    +0.128 A 
ATOM     15  C   LIG    1       25.194 -28.560  12.335  0.00  0.00    +0.060 A 
ENDROOT
BRANCH   8  16
ATOM     16  C   LIG    1       25.670 -30.529   8.196  0.00  0.00    +0.033 C 
ATOM     17  C   LIG    1       24.163 -30.286   7.878  0.00  0.00    +0.018 C 
ATOM     18  C   LIG    1       23.872 -31.350   6.816  0.00  0.00    +0.015 C 
ATOM     19  C   LIG    1       24.982 -30.866   5.882  0.00  0.00    +0.012 C 
ATOM     20  C   LIG    1       24.603 -29.406   5.801  0.00  0.00    -0.027 C 
ATOM     21  C   LIG    1       24.094 -29.060   6.993  0.00  0.00    -0.027 C 
ATOM     22  C   LIG    1       26.211 -31.004   6.804  0.00  0.00    +0.015 C 
ENDBRANCH   8  16
BRANCH   1  23
ATOM     23  S   LIG    1       23.530 -26.891  13.697  0.00  0.00    +0.057 S 
ATOM     24  O   LIG    1       22.469 -26.155  13.051  0.00  0.00    -0.153 OA
ATOM     25  O   LIG    1       23.463 -27.250  15.094  0.00  0.00    -0.153 OA
BRANCH  23  26
ATOM     26  N   LIG    1       24.898 -25.946  13.485  0.00  0.00    -0.203 NA
ATOM     27  H   LIG    1       24.823 -25.095  14.044  0.00  0.00    +0.144 HD
ATOM     28  H   LIG    1       25.736 -26.496  13.683  0.00  0.00    +0.144 HD
ENDBRANCH  23  26
ENDBRANCH   1  23
TORSDOF 3
ENDMDL
MODEL 9
REMARK VINA RESULT:      -7.4      8.971     10.793
REMARK  Name = *****
REMARK                            x       y       z     vdW  Elec       q    Type
REMARK                         _______ _______ _______ _____ _____    ______ ____
ROOT
ATOM      1  C   LIG    1       25.248 -29.953   8.957  0.00  0.00    +0.125 A 
ATOM      2  C   LIG    1       25.934 -28.743   9.082  0.00  0.00    +0.069 A 
ATOM      3 CL   LIG    1       26.313 -27.703   7.756  0.00  0.00    -0.082 Cl
ATOM      4  C   LIG    1       26.356 -28.316  10.353  0.00  0.00    +0.047 A 
ATOM      5  C   LIG    1       26.073 -29.056  11.508  0.00  0.00    +0.057 A 
ATOM      6  N   LIG    1       26.497 -28.584  12.748  0.00  0.00    -0.326 N 
ATOM      7  H   LIG    1       26.749 -27.600  12.758  0.00  0.00    +0.148 HD
ATOM      8  C   LIG    1       25.787 -29.014  13.940  0.00  0.00    +0.163 C 
ATOM      9  N   LIG    1       25.846 -30.464  14.019  0.00  0.00    -0.170 NA
ATOM     10  H   LIG    1       25.446 -30.816  14.886  0.00  0.00    +0.150 HD
ATOM     11  S   LIG    1       25.155 -31.298  12.743  0.00  0.00    +0.062 S 
ATOM     12  O   LIG    1       23.729 -31.308  12.986  0.00  0.00    -0.153 OA
ATOM     13  O   LIG    1       25.894 -32.530  12.583  0.00  0.00    -0.153 OA
ATOM     14  C   LIG    1       25.445 -30.288  11.341  0.00  0.00    +0.128 A 
ATOM     15  C   LIG    1       25.017 -30.741  10.088  0.00  0.00    +0.060 A 
ENDROOT
BRANCH   8  16
ATOM     16  C   LIG    1       24.365 -28.421  14.016  0.00  0.00    +0.033 C 
ATOM     17  C   LIG    1       24.273 -26.974  13.444  0.00  0.00    +0.018 C 
ATOM     18  C   LIG    1       24.564 -26.112  14.676  0.00  0.00    +0.015 C 
ATOM     19  C   LIG    1       23.431 -26.726  15.499  0.00  0.00    +0.012 C 
ATOM     20  C   LIG    1       22.295 -26.526  14.525  0.00  0.00    -0.027 C 
ATOM     21  C   LIG    1       22.801 -26.656  13.289  0.00  0.00    -0.027 C 
ATOM     22  C   LIG    1       23.840 -28.214  15.478  0.00  0.00    +0.015 C 
ENDBRANCH   8  16
BRANCH   1  23
ATOM     23  S   LIG    1       24.608 -30.504   7.407  0.00  0.00    +0.057 S 
ATOM     24  O   LIG    1       23.989 -31.795   7.594  0.00  0.00    -0.153 OA
ATOM     25  O   LIG    1       23.910 -29.412   6.770  0.00  0.00    -0.153 OA
BRANCH  23  26
ATOM     26  N   LIG    1       25.985 -30.815   6.503  0.00  0.00    -0.203 NA
ATOM     27  H   LIG    1       26.456 -31.647   6.862  0.00  0.00    +0.144 HD
ATOM     28  H   LIG    1       25.745 -30.874   5.512  0.00  0.00    +0.144 HD
ENDBRANCH  23  26
ENDBRANCH   1  23
TORSDOF 3
ENDMDL
