MODEL 1
REMARK VINA RESULT:      14.6      0.000      0.000
REMARK  Name = *****
REMARK                            x       y       z     vdW  Elec       q    Type
REMARK                         _______ _______ _______ _____ _____    ______ ____
ROOT
ATOM      1  C   LIG    1       23.059 -19.456   1.815  0.00  0.00    +0.086 C 
ATOM      2  C   LIG    1       23.699 -19.588   3.252  0.00  0.00    +0.103 C 
ATOM      3  O   LIG    1       25.068 -19.609   2.944  0.00  0.00    -0.464 OA
ATOM      4  C   LIG    1       25.275 -19.222   4.236  0.00  0.00    +0.235 C 
ATOM      5  N   LIG    1       24.686 -20.703   4.920  0.00  0.00    -0.243 N 
ATOM      6  C   LIG    1       23.278 -21.571   4.205  0.00  0.00    +0.208 C 
ATOM      7  C   LIG    1       21.633 -20.653   3.780  0.00  0.00    +0.237 C 
ATOM      8  N   LIG    1       21.456 -18.941   3.679  0.00  0.00    -0.273 N 
ATOM      9  C   LIG    1       22.580 -17.590   3.928  0.00  0.00    +0.045 A 
ATOM     10  C   LIG    1       22.020 -16.321   3.867  0.00  0.00    +0.025 A 
ATOM     11  C   LIG    1       22.841 -15.194   4.069  0.00  0.00    +0.022 A 
ATOM     12  C   LIG    1       24.233 -15.259   4.343  0.00  0.00    +0.042 A 
ATOM     13  C   LIG    1       24.948 -16.455   4.444  0.00  0.00    +0.031 A 
ATOM     14 CL   LIG    1       25.092 -13.772   4.541  0.00  0.00    -0.084 Cl
ATOM     15  C   LIG    1       20.085 -18.543   3.383  0.00  0.00    +0.138 C 
ATOM     16  O   LIG    1       20.646 -21.352   3.500  0.00  0.00    -0.274 OA
ATOM     17  C   LIG    1       24.057 -20.101   5.936  0.00  0.00    +0.246 C 
ATOM     18  O   LIG    1       23.746 -20.386   7.062  0.00  0.00    -0.270 OA
ATOM     19  C   LIG    1       24.234 -17.636   4.266  0.00  0.00    +0.042 A 
ATOM     20  C   LIG    1       23.233 -19.539   4.865  0.00  0.00    +0.108 C 
ENDROOT
BRANCH   4  21
ATOM     21  C   LIG    1       26.741 -18.995   4.575  0.00  0.00    +0.019 A 
ATOM     22  C   LIG    1       27.410 -17.838   4.136  0.00  0.00    +0.009 A 
ATOM     23  C   LIG    1       28.750 -17.619   4.460  0.00  0.00    +0.001 A 
ATOM     24  C   LIG    1       29.442 -18.549   5.229  0.00  0.00    +0.000 A 
ATOM     25  C   LIG    1       28.795 -19.697   5.678  0.00  0.00    +0.001 A 
ATOM     26  C   LIG    1       27.453 -19.918   5.358  0.00  0.00    +0.009 A 
ENDBRANCH   4  21
TORSDOF 1
ENDMDL
MODEL 2
REMARK VINA RESULT:      14.9      3.459      6.208
REMARK  Name = *****
REMARK                            x       y       z     vdW  Elec       q    Type
REMARK                         _______ _______ _______ _____ _____    ______ ____
ROOT
ATOM      1  C   LIG    1       26.476 -14.497   1.812  0.00  0.00    +0.086 C 
ATOM      2  C   LIG    1       25.521 -15.001   2.965  0.00  0.00    +0.103 C 
ATOM      3  O   LIG    1       24.929 -16.121   2.362  0.00  0.00    -0.464 OA
ATOM      4  C   LIG    1       24.652 -16.546   3.630  0.00  0.00    +0.235 C 
ATOM      5  N   LIG    1       23.539 -15.259   3.967  0.00  0.00    -0.243 N 
ATOM      6  C   LIG    1       23.832 -13.585   3.367  0.00  0.00    +0.208 C 
ATOM      7  C   LIG    1       25.534 -12.707   3.611  0.00  0.00    +0.237 C 
ATOM      8  N   LIG    1       27.000 -13.500   4.057  0.00  0.00    -0.273 N 
ATOM      9  C   LIG    1       27.398 -15.189   4.428  0.00  0.00    +0.045 A 
ATOM     10  C   LIG    1       28.694 -15.419   4.868  0.00  0.00    +0.025 A 
ATOM     11  C   LIG    1       29.089 -16.730   5.200  0.00  0.00    +0.022 A 
ATOM     12  C   LIG    1       28.236 -17.864   5.120  0.00  0.00    +0.042 A 
ATOM     13  C   LIG    1       26.904 -17.804   4.705  0.00  0.00    +0.031 A 
ATOM     14 CL   LIG    1       28.894 -19.406   5.544  0.00  0.00    -0.084 Cl
ATOM     15  C   LIG    1       28.109 -12.567   4.207  0.00  0.00    +0.138 C 
ATOM     16  O   LIG    1       25.588 -11.491   3.370  0.00  0.00    -0.274 OA
ATOM     17  C   LIG    1       23.953 -15.097   5.228  0.00  0.00    +0.246 C 
ATOM     18  O   LIG    1       23.472 -14.714   6.262  0.00  0.00    -0.270 OA
ATOM     19  C   LIG    1       26.405 -16.553   4.356  0.00  0.00    +0.042 A 
ATOM     20  C   LIG    1       25.201 -14.687   4.583  0.00  0.00    +0.108 C 
ENDROOT
BRANCH   4  21
ATOM     21  C   LIG    1       23.967 -17.904   3.680  0.00  0.00    +0.019 A 
ATOM     22  C   LIG    1       24.601 -19.049   3.165  0.00  0.00    +0.009 A 
ATOM     23  C   LIG    1       23.982 -20.299   3.225  0.00  0.00    +0.001 A 
ATOM     24  C   LIG    1       22.722 -20.426   3.802  0.00  0.00    +0.000 A 
ATOM     25  C   LIG    1       22.082 -19.305   4.323  0.00  0.00    +0.001 A 
ATOM     26  C   LIG    1       22.699 -18.053   4.267  0.00  0.00    +0.009 A 
ENDBRANCH   4  21
TORSDOF 1
ENDMDL
MODEL 3
REMARK VINA RESULT:      17.2      1.708      5.284
REMARK  Name = *****
REMARK                            x       y       z     vdW  Elec       q    Type
REMARK                         _______ _______ _______ _____ _____    ______ ____
ROOT
ATOM      1  C   LIG    1       25.985 -19.072   6.810  0.00  0.00    +0.086 C 
ATOM      2  C   LIG    1       25.329 -19.449   5.423  0.00  0.00    +0.103 C 
ATOM      3  O   LIG    1       23.964 -19.407   5.743  0.00  0.00    -0.464 OA
ATOM      4  C   LIG    1       23.746 -19.250   4.405  0.00  0.00    +0.235 C 
ATOM      5  N   LIG    1       24.320 -20.832   3.985  0.00  0.00    -0.243 N 
ATOM      6  C   LIG    1       25.731 -21.571   4.828  0.00  0.00    +0.208 C 
ATOM      7  C   LIG    1       27.384 -20.604   5.071  0.00  0.00    +0.237 C 
ATOM      8  N   LIG    1       27.571 -18.901   4.870  0.00  0.00    -0.273 N 
ATOM      9  C   LIG    1       26.452 -17.607   4.399  0.00  0.00    +0.045 A 
ATOM     10  C   LIG    1       27.019 -16.351   4.232  0.00  0.00    +0.025 A 
ATOM     11  C   LIG    1       26.202 -15.271   3.843  0.00  0.00    +0.022 A 
ATOM     12  C   LIG    1       24.807 -15.373   3.598  0.00  0.00    +0.042 A 
ATOM     13  C   LIG    1       24.085 -16.564   3.713  0.00  0.00    +0.031 A 
ATOM     14 CL   LIG    1       23.953 -13.938   3.151  0.00  0.00    -0.084 Cl
ATOM     15  C   LIG    1       28.947 -18.467   5.080  0.00  0.00    +0.138 C 
ATOM     16  O   LIG    1       28.370 -21.249   5.460  0.00  0.00    -0.274 OA
ATOM     17  C   LIG    1       24.942 -20.420   2.874  0.00  0.00    +0.246 C 
ATOM     18  O   LIG    1       25.240 -20.900   1.812  0.00  0.00    -0.270 OA
ATOM     19  C   LIG    1       24.794 -17.701   4.089  0.00  0.00    +0.042 A 
ATOM     20  C   LIG    1       25.780 -19.685   3.822  0.00  0.00    +0.108 C 
ENDROOT
BRANCH   4  21
ATOM     21  C   LIG    1       22.278 -19.076   4.044  0.00  0.00    +0.019 A 
ATOM     22  C   LIG    1       21.837 -17.933   3.352  0.00  0.00    +0.009 A 
ATOM     23  C   LIG    1       20.494 -17.778   3.005  0.00  0.00    +0.001 A 
ATOM     24  C   LIG    1       19.570 -18.763   3.340  0.00  0.00    +0.000 A 
ATOM     25  C   LIG    1       19.988 -19.904   4.020  0.00  0.00    +0.001 A 
ATOM     26  C   LIG    1       21.332 -20.063   4.366  0.00  0.00    +0.009 A 
ENDBRANCH   4  21
TORSDOF 1
ENDMDL
