MODEL 1
REMARK VINA RESULT:      -4.5      0.000      0.000
REMARK  Name = *****
REMARK                            x       y       z     vdW  Elec       q    Type
REMARK                         _______ _______ _______ _____ _____    ______ ____
ROOT
ATOM      1  N   LIG    1       25.846 -16.275   3.083  0.00  0.00    -0.310 N 
ATOM      2  H   LIG    1       24.861 -16.388   2.892  0.00  0.00    +0.149 HD
ATOM      3  C   LIG    1       26.506 -17.326   3.687  0.00  0.00    +0.248 C 
ATOM      4  O   LIG    1       27.714 -17.332   3.858  0.00  0.00    -0.270 OA
ENDROOT
BRANCH   3   5
ATOM      5  C   LIG    1       25.701 -18.525   4.102  0.00  0.00    +0.080 A 
ATOM      6  C   LIG    1       26.215 -19.644   4.792  0.00  0.00    +0.134 A 
ATOM      7  C   LIG    1       25.340 -20.622   5.305  0.00  0.00    +0.078 A 
ATOM      8  C   LIG    1       23.968 -20.520   5.039  0.00  0.00    +0.116 A 
ATOM      9  C   LIG    1       23.501 -19.471   4.270  0.00  0.00    +0.087 A 
ATOM     10  N   LIG    1       22.161 -19.719   4.181  0.00  0.00    -0.257 N 
ATOM     11  H   LIG    1       21.442 -19.206   3.686  0.00  0.00    +0.191 HD
ATOM     12  N   LIG    1       21.812 -20.814   4.879  0.00  0.00    -0.067 NA
ATOM     13  N   LIG    1       22.920 -21.318   5.410  0.00  0.00    -0.130 NA
ATOM     14  C   LIG    1       24.324 -18.454   3.784  0.00  0.00    +0.046 A 
BRANCH   6  15
ATOM     15  O   LIG    1       27.579 -19.739   4.963  0.00  0.00    -0.494 OA
ATOM     16  C   LIG    1       28.020 -20.153   6.258  0.00  0.00    +0.277 C 
ENDBRANCH   6  15
ENDBRANCH   3   5
BRANCH   1  17
ATOM     17  C   LIG    1       26.524 -15.081   2.612  0.00  0.00    +0.123 C 
BRANCH  17  19
ATOM     18  N   LIG    1       25.811 -13.349   4.469  0.00  0.00    -0.294 NA
ATOM     19  C   LIG    1       25.905 -13.724   3.051  0.00  0.00    +0.074 C 
ATOM     20  C   LIG    1       24.442 -13.591   2.621  0.00  0.00    +0.021 C 
ATOM     21  C   LIG    1       23.632 -14.012   3.839  0.00  0.00    +0.017 C 
ATOM     22  C   LIG    1       24.598 -13.949   5.014  0.00  0.00    +0.085 C 
BRANCH  18  23
ATOM     23  C   LIG    1       27.011 -13.554   5.273  0.00  0.00    +0.111 C 
BRANCH  23  25
ATOM     24  C   LIG    1       29.019 -12.804   3.927  0.00  0.00    +0.005 C 
ATOM     25  C   LIG    1       28.106 -12.594   4.885  0.00  0.00    -0.019 C 
ENDBRANCH  23  25
ENDBRANCH  18  23
ENDBRANCH  17  19
ENDBRANCH   1  17
TORSDOF 6
ENDMDL
MODEL 2
REMARK VINA RESULT:      -4.2      0.951      2.367
REMARK  Name = *****
REMARK                            x       y       z     vdW  Elec       q    Type
REMARK                         _______ _______ _______ _____ _____    ______ ____
ROOT
ATOM      1  N   LIG    1       25.761 -16.652   3.333  0.00  0.00    -0.310 N 
ATOM      2  H   LIG    1       24.764 -16.696   3.179  0.00  0.00    +0.149 HD
ATOM      3  C   LIG    1       26.373 -17.759   3.884  0.00  0.00    +0.248 C 
ATOM      4  O   LIG    1       27.584 -17.848   4.005  0.00  0.00    -0.270 OA
ENDROOT
BRANCH   3   5
ATOM      5  C   LIG    1       25.508 -18.916   4.300  0.00  0.00    +0.080 A 
ATOM      6  C   LIG    1       25.938 -20.002   5.093  0.00  0.00    +0.134 A 
ATOM      7  C   LIG    1       25.001 -20.930   5.589  0.00  0.00    +0.078 A 
ATOM      8  C   LIG    1       23.658 -20.817   5.207  0.00  0.00    +0.116 A 
ATOM      9  C   LIG    1       23.280 -19.806   4.343  0.00  0.00    +0.087 A 
ATOM     10  N   LIG    1       21.945 -20.032   4.161  0.00  0.00    -0.257 N 
ATOM     11  H   LIG    1       21.281 -19.535   3.580  0.00  0.00    +0.191 HD
ATOM     12  N   LIG    1       21.515 -21.076   4.890  0.00  0.00    -0.067 NA
ATOM     13  N   LIG    1       22.564 -21.570   5.537  0.00  0.00    -0.130 NA
ATOM     14  C   LIG    1       24.163 -18.836   3.868  0.00  0.00    +0.046 A 
BRANCH   6  15
ATOM     15  O   LIG    1       27.281 -20.114   5.379  0.00  0.00    -0.494 OA
ATOM     16  C   LIG    1       27.606 -20.506   6.714  0.00  0.00    +0.277 C 
ENDBRANCH   6  15
ENDBRANCH   3   5
BRANCH   1  17
ATOM     17  C   LIG    1       26.496 -15.491   2.865  0.00  0.00    +0.123 C 
BRANCH  17  19
ATOM     18  N   LIG    1       26.416 -12.893   3.311  0.00  0.00    -0.294 NA
ATOM     19  C   LIG    1       26.524 -14.266   3.823  0.00  0.00    +0.074 C 
ATOM     20  C   LIG    1       27.835 -14.178   4.607  0.00  0.00    +0.021 C 
ATOM     21  C   LIG    1       28.702 -13.204   3.822  0.00  0.00    +0.017 C 
ATOM     22  C   LIG    1       27.746 -12.458   2.901  0.00  0.00    +0.085 C 
BRANCH  18  23
ATOM     23  C   LIG    1       25.361 -12.649   2.333  0.00  0.00    +0.111 C 
BRANCH  23  25
ATOM     24  C   LIG    1       23.636 -11.562   3.830  0.00  0.00    +0.005 C 
ATOM     25  C   LIG    1       24.011 -12.537   2.992  0.00  0.00    -0.019 C 
ENDBRANCH  23  25
ENDBRANCH  18  23
ENDBRANCH  17  19
ENDBRANCH   1  17
TORSDOF 6
ENDMDL
MODEL 3
REMARK VINA RESULT:      -3.9      1.049      2.273
REMARK  Name = *****
REMARK                            x       y       z     vdW  Elec       q    Type
REMARK                         _______ _______ _______ _____ _____    ______ ____
ROOT
ATOM      1  N   LIG    1       25.938 -16.178   3.316  0.00  0.00    -0.310 N 
ATOM      2  H   LIG    1       24.929 -16.196   3.260  0.00  0.00    +0.149 HD
ATOM      3  C   LIG    1       26.578 -17.342   3.692  0.00  0.00    +0.248 C 
ATOM      4  O   LIG    1       27.793 -17.455   3.681  0.00  0.00    -0.270 OA
ENDROOT
BRANCH   3   5
ATOM      5  C   LIG    1       25.735 -18.523   4.080  0.00  0.00    +0.080 A 
ATOM      6  C   LIG    1       26.204 -19.658   4.777  0.00  0.00    +0.134 A 
ATOM      7  C   LIG    1       25.294 -20.616   5.263  0.00  0.00    +0.078 A 
ATOM      8  C   LIG    1       23.932 -20.481   4.963  0.00  0.00    +0.116 A 
ATOM      9  C   LIG    1       23.510 -19.417   4.188  0.00  0.00    +0.087 A 
ATOM     10  N   LIG    1       22.167 -19.633   4.065  0.00  0.00    -0.257 N 
ATOM     11  H   LIG    1       21.473 -19.101   3.554  0.00  0.00    +0.191 HD
ATOM     12  N   LIG    1       21.775 -20.722   4.748  0.00  0.00    -0.067 NA
ATOM     13  N   LIG    1       22.856 -21.255   5.304  0.00  0.00    -0.130 NA
ATOM     14  C   LIG    1       24.369 -18.418   3.728  0.00  0.00    +0.046 A 
BRANCH   6  15
ATOM     15  O   LIG    1       27.561 -19.785   4.982  0.00  0.00    -0.494 OA
ATOM     16  C   LIG    1       27.967 -20.081   6.320  0.00  0.00    +0.277 C 
ENDBRANCH   6  15
ENDBRANCH   3   5
BRANCH   1  17
ATOM     17  C   LIG    1       26.647 -14.986   2.890  0.00  0.00    +0.123 C 
BRANCH  17  19
ATOM     18  N   LIG    1       24.738 -13.509   3.954  0.00  0.00    -0.294 NA
ATOM     19  C   LIG    1       26.111 -13.635   3.445  0.00  0.00    +0.074 C 
ATOM     20  C   LIG    1       26.127 -12.531   2.386  0.00  0.00    +0.021 C 
ATOM     21  C   LIG    1       24.717 -12.510   1.812  0.00  0.00    +0.017 C 
ATOM     22  C   LIG    1       23.857 -13.262   2.819  0.00  0.00    +0.085 C 
BRANCH  18  23
ATOM     23  C   LIG    1       24.288 -14.556   4.865  0.00  0.00    +0.111 C 
BRANCH  23  25
ATOM     24  C   LIG    1       22.214 -15.981   5.128  0.00  0.00    +0.005 C 
ATOM     25  C   LIG    1       23.000 -15.182   4.395  0.00  0.00    -0.019 C 
ENDBRANCH  23  25
ENDBRANCH  18  23
ENDBRANCH  17  19
ENDBRANCH   1  17
TORSDOF 6
ENDMDL
MODEL 4
REMARK VINA RESULT:      -3.6      2.638      3.963
REMARK  Name = *****
REMARK                            x       y       z     vdW  Elec       q    Type
REMARK                         _______ _______ _______ _____ _____    ______ ____
ROOT
ATOM      1  N   LIG    1       26.565 -16.278   3.691  0.00  0.00    -0.310 N 
ATOM      2  H   LIG    1       26.952 -16.079   4.602  0.00  0.00    +0.149 HD
ATOM      3  C   LIG    1       26.234 -17.588   3.409  0.00  0.00    +0.248 C 
ATOM      4  O   LIG    1       25.659 -17.913   2.383  0.00  0.00    -0.270 OA
ENDROOT
BRANCH   3   5
ATOM      5  C   LIG    1       26.554 -18.638   4.435  0.00  0.00    +0.080 A 
ATOM      6  C   LIG    1       25.652 -19.623   4.892  0.00  0.00    +0.134 A 
ATOM      7  C   LIG    1       26.109 -20.678   5.706  0.00  0.00    +0.078 A 
ATOM      8  C   LIG    1       27.443 -20.684   6.134  0.00  0.00    +0.116 A 
ATOM      9  C   LIG    1       28.281 -19.650   5.760  0.00  0.00    +0.087 A 
ATOM     10  N   LIG    1       29.456 -19.956   6.386  0.00  0.00    -0.257 N 
ATOM     11  H   LIG    1       30.331 -19.448   6.397  0.00  0.00    +0.191 HD
ATOM     12  N   LIG    1       29.370 -21.115   7.061  0.00  0.00    -0.067 NA
ATOM     13  N   LIG    1       28.132 -21.571   6.915  0.00  0.00    -0.130 NA
ATOM     14  C   LIG    1       27.885 -18.612   4.915  0.00  0.00    +0.046 A 
BRANCH   6  15
ATOM     15  O   LIG    1       24.333 -19.533   4.505  0.00  0.00    -0.494 OA
ATOM     16  C   LIG    1       23.377 -20.099   5.405  0.00  0.00    +0.277 C 
ENDBRANCH   6  15
ENDBRANCH   3   5
BRANCH   1  17
ATOM     17  C   LIG    1       26.275 -15.177   2.791  0.00  0.00    +0.123 C 
BRANCH  17  19
ATOM     18  N   LIG    1       24.759 -13.444   4.079  0.00  0.00    -0.294 NA
ATOM     19  C   LIG    1       26.046 -13.790   3.458  0.00  0.00    +0.074 C 
ATOM     20  C   LIG    1       26.204 -12.639   2.462  0.00  0.00    +0.021 C 
ATOM     21  C   LIG    1       24.789 -12.316   2.002  0.00  0.00    +0.017 C 
ATOM     22  C   LIG    1       23.869 -12.960   3.030  0.00  0.00    +0.085 C 
BRANCH  18  23
ATOM     23  C   LIG    1       24.178 -14.447   4.964  0.00  0.00    +0.111 C 
BRANCH  23  25
ATOM     24  C   LIG    1       22.424 -16.263   4.798  0.00  0.00    +0.005 C 
ATOM     25  C   LIG    1       23.064 -15.203   4.286  0.00  0.00    -0.019 C 
ENDBRANCH  23  25
ENDBRANCH  18  23
ENDBRANCH  17  19
ENDBRANCH   1  17
TORSDOF 6
ENDMDL
MODEL 5
REMARK VINA RESULT:      -3.6      2.049      7.006
REMARK  Name = *****
REMARK                            x       y       z     vdW  Elec       q    Type
REMARK                         _______ _______ _______ _____ _____    ______ ____
ROOT
ATOM      1  N   LIG    1       24.096 -17.503   3.900  0.00  0.00    -0.310 N 
ATOM      2  H   LIG    1       23.574 -16.788   4.387  0.00  0.00    +0.149 HD
ATOM      3  C   LIG    1       25.351 -17.173   3.430  0.00  0.00    +0.248 C 
ATOM      4  O   LIG    1       26.102 -17.993   2.930  0.00  0.00    -0.270 OA
ENDROOT
BRANCH   3   5
ATOM      5  C   LIG    1       25.818 -15.754   3.592  0.00  0.00    +0.080 A 
ATOM      6  C   LIG    1       24.998 -14.670   3.972  0.00  0.00    +0.134 A 
ATOM      7  C   LIG    1       25.572 -13.423   4.285  0.00  0.00    +0.078 A 
ATOM      8  C   LIG    1       26.952 -13.244   4.121  0.00  0.00    +0.116 A 
ATOM      9  C   LIG    1       27.720 -14.290   3.645  0.00  0.00    +0.087 A 
ATOM     10  N   LIG    1       28.973 -13.750   3.569  0.00  0.00    -0.257 N 
ATOM     11  H   LIG    1       29.836 -14.168   3.245  0.00  0.00    +0.191 HD
ATOM     12  N   LIG    1       28.992 -12.479   4.006  0.00  0.00    -0.067 NA
ATOM     13  N   LIG    1       27.750 -12.156   4.347  0.00  0.00    -0.130 NA
ATOM     14  C   LIG    1       27.202 -15.556   3.370  0.00  0.00    +0.046 A 
BRANCH   6  15
ATOM     15  O   LIG    1       23.637 -14.874   4.047  0.00  0.00    -0.494 OA
ATOM     16  C   LIG    1       22.987 -14.343   5.203  0.00  0.00    +0.277 C 
ENDBRANCH   6  15
ENDBRANCH   3   5
BRANCH   1  17
ATOM     17  C   LIG    1       23.552 -18.847   3.829  0.00  0.00    +0.123 C 
BRANCH  17  19
ATOM     18  N   LIG    1       22.997 -20.234   6.003  0.00  0.00    -0.294 NA
ATOM     19  C   LIG    1       22.591 -19.259   4.980  0.00  0.00    +0.074 C 
ATOM     20  C   LIG    1       21.309 -19.909   4.456  0.00  0.00    +0.021 C 
ATOM     21  C   LIG    1       21.563 -21.408   4.536  0.00  0.00    +0.017 C 
ATOM     22  C   LIG    1       22.752 -21.571   5.473  0.00  0.00    +0.085 C 
BRANCH  18  23
ATOM     23  C   LIG    1       24.317 -20.040   6.593  0.00  0.00    +0.111 C 
BRANCH  23  25
ATOM     24  C   LIG    1       26.615 -20.318   5.573  0.00  0.00    +0.005 C 
ATOM     25  C   LIG    1       25.382 -20.777   5.822  0.00  0.00    -0.019 C 
ENDBRANCH  23  25
ENDBRANCH  18  23
ENDBRANCH  17  19
ENDBRANCH   1  17
TORSDOF 6
ENDMDL
MODEL 6
REMARK VINA RESULT:      -3.4      1.851      6.574
REMARK  Name = *****
REMARK                            x       y       z     vdW  Elec       q    Type
REMARK                         _______ _______ _______ _____ _____    ______ ____
ROOT
ATOM      1  N   LIG    1       25.655 -17.505   3.503  0.00  0.00    -0.310 N 
ATOM      2  H   LIG    1       24.730 -17.175   3.265  0.00  0.00    +0.149 HD
ATOM      3  C   LIG    1       26.651 -16.561   3.657  0.00  0.00    +0.248 C 
ATOM      4  O   LIG    1       27.769 -16.846   4.051  0.00  0.00    -0.270 OA
ENDROOT
BRANCH   3   5
ATOM      5  C   LIG    1       26.317 -15.124   3.374  0.00  0.00    +0.080 A 
ATOM      6  C   LIG    1       27.259 -14.075   3.298  0.00  0.00    +0.134 A 
ATOM      7  C   LIG    1       26.867 -12.804   2.834  0.00  0.00    +0.078 A 
ATOM      8  C   LIG    1       25.518 -12.568   2.543  0.00  0.00    +0.116 A 
ATOM      9  C   LIG    1       24.595 -13.582   2.727  0.00  0.00    +0.087 A 
ATOM     10  N   LIG    1       23.409 -12.989   2.399  0.00  0.00    -0.257 N 
ATOM     11  H   LIG    1       22.472 -13.371   2.417  0.00  0.00    +0.191 HD
ATOM     12  N   LIG    1       23.583 -11.718   1.999  0.00  0.00    -0.067 NA
ATOM     13  N   LIG    1       24.880 -11.447   2.086  0.00  0.00    -0.130 NA
ATOM     14  C   LIG    1       24.946 -14.869   3.136  0.00  0.00    +0.046 A 
BRANCH   6  15
ATOM     15  O   LIG    1       28.561 -14.336   3.668  0.00  0.00    -0.494 OA
ATOM     16  C   LIG    1       29.395 -13.193   3.871  0.00  0.00    +0.277 C 
ENDBRANCH   6  15
ENDBRANCH   3   5
BRANCH   1  17
ATOM     17  C   LIG    1       25.851 -18.916   3.779  0.00  0.00    +0.123 C 
BRANCH  17  19
ATOM     18  N   LIG    1       23.273 -19.444   3.961  0.00  0.00    -0.294 NA
ATOM     19  C   LIG    1       24.624 -19.839   3.534  0.00  0.00    +0.074 C 
ATOM     20  C   LIG    1       24.766 -21.187   4.244  0.00  0.00    +0.021 C 
ATOM     21  C   LIG    1       24.007 -21.028   5.554  0.00  0.00    +0.017 C 
ATOM     22  C   LIG    1       23.121 -19.804   5.366  0.00  0.00    +0.085 C 
BRANCH  18  23
ATOM     23  C   LIG    1       22.862 -18.085   3.627  0.00  0.00    +0.111 C 
BRANCH  23  25
ATOM     24  C   LIG    1       22.217 -16.123   5.088  0.00  0.00    +0.005 C 
ATOM     25  C   LIG    1       22.149 -17.424   4.779  0.00  0.00    -0.019 C 
ENDBRANCH  23  25
ENDBRANCH  18  23
ENDBRANCH  17  19
ENDBRANCH   1  17
TORSDOF 6
ENDMDL
MODEL 7
REMARK VINA RESULT:      -3.2      1.871      6.639
REMARK  Name = *****
REMARK                            x       y       z     vdW  Elec       q    Type
REMARK                         _______ _______ _______ _____ _____    ______ ____
ROOT
ATOM      1  N   LIG    1       25.722 -19.497   3.619  0.00  0.00    -0.310 N 
ATOM      2  H   LIG    1       26.720 -19.567   3.759  0.00  0.00    +0.149 HD
ATOM      3  C   LIG    1       25.176 -18.233   3.521  0.00  0.00    +0.248 C 
ATOM      4  O   LIG    1       24.004 -18.045   3.241  0.00  0.00    -0.270 OA
ENDROOT
BRANCH   3   5
ATOM      5  C   LIG    1       26.082 -17.051   3.721  0.00  0.00    +0.080 A 
ATOM      6  C   LIG    1       27.414 -17.122   4.182  0.00  0.00    +0.134 A 
ATOM      7  C   LIG    1       28.237 -15.980   4.146  0.00  0.00    +0.078 A 
ATOM      8  C   LIG    1       27.690 -14.755   3.742  0.00  0.00    +0.116 A 
ATOM      9  C   LIG    1       26.353 -14.688   3.396  0.00  0.00    +0.087 A 
ATOM     10  N   LIG    1       26.168 -13.365   3.113  0.00  0.00    -0.257 N 
ATOM     11  H   LIG    1       25.325 -12.877   2.839  0.00  0.00    +0.191 HD
ATOM     12  N   LIG    1       27.311 -12.668   3.229  0.00  0.00    -0.067 NA
ATOM     13  N   LIG    1       28.257 -13.515   3.619  0.00  0.00    -0.130 NA
ATOM     14  C   LIG    1       25.515 -15.803   3.369  0.00  0.00    +0.046 A 
BRANCH   6  15
ATOM     15  O   LIG    1       27.885 -18.333   4.641  0.00  0.00    -0.494 OA
ATOM     16  C   LIG    1       29.099 -18.288   5.394  0.00  0.00    +0.277 C 
ENDBRANCH   6  15
ENDBRANCH   3   5
BRANCH   1  17
ATOM     17  C   LIG    1       24.953 -20.711   3.412  0.00  0.00    +0.123 C 
BRANCH  17  19
ATOM     18  N   LIG    1       23.577 -21.251   5.597  0.00  0.00    -0.294 NA
ATOM     19  C   LIG    1       24.679 -21.571   4.678  0.00  0.00    +0.074 C 
ATOM     20  C   LIG    1       25.866 -21.571   5.643  0.00  0.00    +0.021 C 
ATOM     21  C   LIG    1       25.542 -20.496   6.672  0.00  0.00    +0.017 C 
ATOM     22  C   LIG    1       24.048 -20.234   6.530  0.00  0.00    +0.085 C 
BRANCH  18  23
ATOM     23  C   LIG    1       22.284 -20.968   4.982  0.00  0.00    +0.111 C 
BRANCH  23  25
ATOM     24  C   LIG    1       21.332 -18.830   4.022  0.00  0.00    +0.005 C 
ATOM     25  C   LIG    1       21.978 -19.493   4.990  0.00  0.00    -0.019 C 
ENDBRANCH  23  25
ENDBRANCH  18  23
ENDBRANCH  17  19
ENDBRANCH   1  17
TORSDOF 6
ENDMDL
MODEL 8
REMARK VINA RESULT:      -3.1      2.262      7.034
REMARK  Name = *****
REMARK                            x       y       z     vdW  Elec       q    Type
REMARK                         _______ _______ _______ _____ _____    ______ ____
ROOT
ATOM      1  N   LIG    1       25.736 -18.732   3.863  0.00  0.00    -0.310 N 
ATOM      2  H   LIG    1       26.702 -18.471   3.999  0.00  0.00    +0.149 HD
ATOM      3  C   LIG    1       24.822 -17.719   3.655  0.00  0.00    +0.248 C 
ATOM      4  O   LIG    1       23.656 -17.935   3.371  0.00  0.00    -0.270 OA
ENDROOT
BRANCH   3   5
ATOM      5  C   LIG    1       25.307 -16.299   3.734  0.00  0.00    +0.080 A 
ATOM      6  C   LIG    1       24.497 -15.185   4.044  0.00  0.00    +0.134 A 
ATOM      7  C   LIG    1       25.086 -13.928   4.286  0.00  0.00    +0.078 A 
ATOM      8  C   LIG    1       26.468 -13.776   4.119  0.00  0.00    +0.116 A 
ATOM      9  C   LIG    1       27.226 -14.858   3.711  0.00  0.00    +0.087 A 
ATOM     10  N   LIG    1       28.485 -14.338   3.610  0.00  0.00    -0.257 N 
ATOM     11  H   LIG    1       29.345 -14.785   3.317  0.00  0.00    +0.191 HD
ATOM     12  N   LIG    1       28.518 -13.044   3.971  0.00  0.00    -0.067 NA
ATOM     13  N   LIG    1       27.279 -12.686   4.284  0.00  0.00    -0.130 NA
ATOM     14  C   LIG    1       26.693 -16.132   3.509  0.00  0.00    +0.046 A 
BRANCH   6  15
ATOM     15  O   LIG    1       23.134 -15.367   4.123  0.00  0.00    -0.494 OA
ATOM     16  C   LIG    1       22.553 -15.199   5.418  0.00  0.00    +0.277 C 
ENDBRANCH   6  15
ENDBRANCH   3   5
BRANCH   1  17
ATOM     17  C   LIG    1       25.391 -20.140   3.779  0.00  0.00    +0.123 C 
BRANCH  17  19
ATOM     18  N   LIG    1       25.324 -21.274   6.160  0.00  0.00    -0.294 NA
ATOM     19  C   LIG    1       26.001 -21.061   4.873  0.00  0.00    +0.074 C 
ATOM     20  C   LIG    1       27.369 -20.564   5.347  0.00  0.00    +0.021 C 
ATOM     21  C   LIG    1       27.084 -19.762   6.609  0.00  0.00    +0.017 C 
ATOM     22  C   LIG    1       25.685 -20.173   7.047  0.00  0.00    +0.085 C 
BRANCH  18  23
ATOM     23  C   LIG    1       23.896 -21.569   6.098  0.00  0.00    +0.111 C 
BRANCH  23  25
ATOM     24  C   LIG    1       22.203 -19.940   5.162  0.00  0.00    +0.005 C 
ATOM     25  C   LIG    1       23.070 -20.309   6.113  0.00  0.00    -0.019 C 
ENDBRANCH  23  25
ENDBRANCH  18  23
ENDBRANCH  17  19
ENDBRANCH   1  17
TORSDOF 6
ENDMDL
MODEL 9
REMARK VINA RESULT:      -3.1      2.166      6.788
REMARK  Name = *****
REMARK                            x       y       z     vdW  Elec       q    Type
REMARK                         _______ _______ _______ _____ _____    ______ ____
ROOT
ATOM      1  N   LIG    1       23.416 -17.951   4.385  0.00  0.00    -0.310 N 
ATOM      2  H   LIG    1       24.221 -18.164   3.814  0.00  0.00    +0.149 HD
ATOM      3  C   LIG    1       23.067 -16.624   4.530  0.00  0.00    +0.248 C 
ATOM      4  O   LIG    1       22.050 -16.271   5.104  0.00  0.00    -0.270 OA
ENDROOT
BRANCH   3   5
ATOM      5  C   LIG    1       23.956 -15.584   3.908  0.00  0.00    +0.080 A 
ATOM      6  C   LIG    1       25.220 -15.840   3.334  0.00  0.00    +0.134 A 
ATOM      7  C   LIG    1       25.883 -14.833   2.605  0.00  0.00    +0.078 A 
ATOM      8  C   LIG    1       25.320 -13.552   2.539  0.00  0.00    +0.116 A 
ATOM      9  C   LIG    1       24.132 -13.297   3.199  0.00  0.00    +0.087 A 
ATOM     10  N   LIG    1       23.919 -11.969   2.961  0.00  0.00    -0.257 N 
ATOM     11  H   LIG    1       23.170 -11.369   3.282  0.00  0.00    +0.191 HD
ATOM     12  N   LIG    1       24.876 -11.447   2.175  0.00  0.00    -0.067 NA
ATOM     13  N   LIG    1       25.747 -12.414   1.911  0.00  0.00    -0.130 NA
ATOM     14  C   LIG    1       23.417 -14.276   3.891  0.00  0.00    +0.046 A 
BRANCH   6  15
ATOM     15  O   LIG    1       25.769 -17.094   3.490  0.00  0.00    -0.494 OA
ATOM     16  C   LIG    1       27.184 -17.139   3.681  0.00  0.00    +0.277 C 
ENDBRANCH   6  15
ENDBRANCH   3   5
BRANCH   1  17
ATOM     17  C   LIG    1       22.618 -19.042   4.914  0.00  0.00    +0.123 C 
BRANCH  17  19
ATOM     18  N   LIG    1       24.241 -21.111   5.127  0.00  0.00    -0.294 NA
ATOM     19  C   LIG    1       23.066 -20.476   4.512  0.00  0.00    +0.074 C 
ATOM     20  C   LIG    1       23.431 -20.571   3.029  0.00  0.00    +0.021 C 
ATOM     21  C   LIG    1       24.944 -20.410   2.982  0.00  0.00    +0.017 C 
ATOM     22  C   LIG    1       25.425 -20.661   4.405  0.00  0.00    +0.085 C 
BRANCH  18  23
ATOM     23  C   LIG    1       24.336 -21.022   6.580  0.00  0.00    +0.111 C 
BRANCH  23  25
ATOM     24  C   LIG    1       26.767 -20.473   7.016  0.00  0.00    +0.005 C 
ATOM     25  C   LIG    1       25.732 -21.322   7.061  0.00  0.00    -0.019 C 
ENDBRANCH  23  25
ENDBRANCH  18  23
ENDBRANCH  17  19
ENDBRANCH   1  17
TORSDOF 6
ENDMDL
