MODEL 1
REMARK VINA RESULT:      -4.4      0.000      0.000
REMARK  Name = *****
REMARK                            x       y       z     vdW  Elec       q    Type
REMARK                         _______ _______ _______ _____ _____    ______ ____
ROOT
ATOM      1  C   LIG    1       23.483 -15.793   4.314  0.00  0.00    +0.180 C 
ATOM      2  O   LIG    1       22.546 -15.487   5.037  0.00  0.00    -0.290 OA
ENDROOT
BRANCH   1   3
ATOM      3  C   LIG    1       23.743 -17.261   4.054  0.00  0.00    +0.020 A 
ATOM      4  C   LIG    1       22.764 -18.195   4.435  0.00  0.00    +0.031 A 
ATOM      5  C   LIG    1       23.041 -19.564   4.389  0.00  0.00    +0.042 A 
ATOM      6 CL   LIG    1       21.863 -20.701   4.916  0.00  0.00    -0.084 Cl
ATOM      7  C   LIG    1       24.283 -20.020   3.952  0.00  0.00    +0.020 A 
ATOM      8  C   LIG    1       25.225 -19.106   3.487  0.00  0.00    +0.002 A 
ATOM      9  C   LIG    1       24.949 -17.735   3.518  0.00  0.00    +0.011 A 
ENDBRANCH   1   3
BRANCH   1  11
ATOM     10  C   LIG    1       23.582 -13.506   3.307  0.00  0.00    +0.032 C 
ATOM     11  C   LIG    1       24.422 -14.741   3.664  0.00  0.00    +0.123 C 
BRANCH  11  12
ATOM     12  N   LIG    1       25.526 -14.269   4.542  0.00  0.00    -0.302 NA
ATOM     13  H   LIG    1       25.551 -14.867   5.372  0.00  0.00    +0.123 HD
BRANCH  12  14
ATOM     14  C   LIG    1       26.891 -14.126   3.998  0.00  0.00    +0.011 C 
ATOM     15  C   LIG    1       27.738 -13.131   4.810  0.00  0.00    +0.027 C 
ATOM     16  C   LIG    1       26.895 -13.745   2.513  0.00  0.00    +0.027 C 
ATOM     17  C   LIG    1       27.594 -15.503   4.107  0.00  0.00    +0.027 C 
ENDBRANCH  12  14
ENDBRANCH  11  12
ENDBRANCH   1  11
TORSDOF 4
ENDMDL
MODEL 2
REMARK VINA RESULT:      -4.0      1.565      2.421
REMARK  Name = *****
REMARK                            x       y       z     vdW  Elec       q    Type
REMARK                         _______ _______ _______ _____ _____    ______ ____
ROOT
ATOM      1  C   LIG    1       24.171 -14.412   4.051  0.00  0.00    +0.180 C 
ATOM      2  O   LIG    1       23.702 -13.568   4.802  0.00  0.00    -0.290 OA
ENDROOT
BRANCH   1   3
ATOM      3  C   LIG    1       23.731 -15.850   4.220  0.00  0.00    +0.020 A 
ATOM      4  C   LIG    1       24.609 -16.873   3.822  0.00  0.00    +0.031 A 
ATOM      5  C   LIG    1       24.172 -18.200   3.782  0.00  0.00    +0.042 A 
ATOM      6 CL   LIG    1       25.229 -19.441   3.232  0.00  0.00    -0.084 Cl
ATOM      7  C   LIG    1       22.869 -18.527   4.151  0.00  0.00    +0.020 A 
ATOM      8  C   LIG    1       22.022 -17.533   4.634  0.00  0.00    +0.002 A 
ATOM      9  C   LIG    1       22.458 -16.204   4.689  0.00  0.00    +0.011 A 
ENDBRANCH   1   3
BRANCH   1  11
ATOM     10  C   LIG    1       24.468 -13.339   1.812  0.00  0.00    +0.032 C 
ATOM     11  C   LIG    1       25.203 -14.071   2.944  0.00  0.00    +0.123 C 
BRANCH  11  12
ATOM     12  N   LIG    1       26.311 -13.180   3.382  0.00  0.00    -0.302 NA
ATOM     13  H   LIG    1       25.901 -12.371   3.854  0.00  0.00    +0.123 HD
BRANCH  12  14
ATOM     14  C   LIG    1       27.413 -13.721   4.202  0.00  0.00    +0.011 C 
ATOM     15  C   LIG    1       27.603 -15.233   3.994  0.00  0.00    +0.027 C 
ATOM     16  C   LIG    1       27.248 -13.402   5.692  0.00  0.00    +0.027 C 
ATOM     17  C   LIG    1       28.727 -13.039   3.744  0.00  0.00    +0.027 C 
ENDBRANCH  12  14
ENDBRANCH  11  12
ENDBRANCH   1  11
TORSDOF 4
ENDMDL
MODEL 3
REMARK VINA RESULT:      -3.9      2.018      3.093
REMARK  Name = *****
REMARK                            x       y       z     vdW  Elec       q    Type
REMARK                         _______ _______ _______ _____ _____    ______ ____
ROOT
ATOM      1  C   LIG    1       25.515 -18.086   3.286  0.00  0.00    +0.180 C 
ATOM      2  O   LIG    1       25.790 -18.562   2.194  0.00  0.00    -0.290 OA
ENDROOT
BRANCH   1   3
ATOM      3  C   LIG    1       24.454 -18.770   4.123  0.00  0.00    +0.020 A 
ATOM      4  C   LIG    1       24.864 -19.653   5.137  0.00  0.00    +0.031 A 
ATOM      5  C   LIG    1       23.924 -20.446   5.802  0.00  0.00    +0.042 A 
ATOM      6 CL   LIG    1       24.437 -21.572   6.998  0.00  0.00    -0.084 Cl
ATOM      7  C   LIG    1       22.572 -20.361   5.479  0.00  0.00    +0.020 A 
ATOM      8  C   LIG    1       22.147 -19.424   4.541  0.00  0.00    +0.002 A 
ATOM      9  C   LIG    1       23.082 -18.617   3.881  0.00  0.00    +0.011 A 
ENDBRANCH   1   3
BRANCH   1  11
ATOM     10  C   LIG    1       27.672 -17.133   4.117  0.00  0.00    +0.032 C 
ATOM     11  C   LIG    1       26.196 -16.808   3.843  0.00  0.00    +0.123 C 
BRANCH  11  12
ATOM     12  N   LIG    1       26.178 -15.643   2.919  0.00  0.00    -0.302 NA
ATOM     13  H   LIG    1       25.692 -15.923   2.064  0.00  0.00    +0.123 HD
BRANCH  12  14
ATOM     14  C   LIG    1       25.653 -14.343   3.380  0.00  0.00    +0.011 C 
ATOM     15  C   LIG    1       26.644 -13.610   4.301  0.00  0.00    +0.027 C 
ATOM     16  C   LIG    1       24.284 -14.470   4.060  0.00  0.00    +0.027 C 
ATOM     17  C   LIG    1       25.449 -13.442   2.136  0.00  0.00    +0.027 C 
ENDBRANCH  12  14
ENDBRANCH  11  12
ENDBRANCH   1  11
TORSDOF 4
ENDMDL
MODEL 4
REMARK VINA RESULT:      -3.8      3.334      6.160
REMARK  Name = *****
REMARK                            x       y       z     vdW  Elec       q    Type
REMARK                         _______ _______ _______ _____ _____    ______ ____
ROOT
ATOM      1  C   LIG    1       25.634 -17.960   3.631  0.00  0.00    +0.180 C 
ATOM      2  O   LIG    1       26.817 -18.267   3.663  0.00  0.00    -0.290 OA
ENDROOT
BRANCH   1   3
ATOM      3  C   LIG    1       25.271 -16.491   3.616  0.00  0.00    +0.020 A 
ATOM      4  C   LIG    1       26.267 -15.556   3.281  0.00  0.00    +0.031 A 
ATOM      5  C   LIG    1       26.029 -14.188   3.439  0.00  0.00    +0.042 A 
ATOM      6 CL   LIG    1       27.271 -13.050   3.090  0.00  0.00    -0.084 Cl
ATOM      7  C   LIG    1       24.801 -13.734   3.915  0.00  0.00    +0.020 A 
ATOM      8  C   LIG    1       23.779 -14.647   4.161  0.00  0.00    +0.002 A 
ATOM      9  C   LIG    1       24.007 -16.018   3.992  0.00  0.00    +0.011 A 
ENDBRANCH   1   3
BRANCH   1  11
ATOM     10  C   LIG    1       24.669 -19.894   2.372  0.00  0.00    +0.032 C 
ATOM     11  C   LIG    1       24.493 -19.012   3.617  0.00  0.00    +0.123 C 
BRANCH  11  12
ATOM     12  N   LIG    1       24.478 -19.926   4.791  0.00  0.00    -0.302 NA
ATOM     13  H   LIG    1       25.165 -19.586   5.467  0.00  0.00    +0.123 HD
BRANCH  12  14
ATOM     14  C   LIG    1       23.207 -20.215   5.484  0.00  0.00    +0.011 C 
ATOM     15  C   LIG    1       23.397 -20.372   7.003  0.00  0.00    +0.027 C 
ATOM     16  C   LIG    1       22.487 -21.440   4.906  0.00  0.00    +0.027 C 
ATOM     17  C   LIG    1       22.263 -19.005   5.274  0.00  0.00    +0.027 C 
ENDBRANCH  12  14
ENDBRANCH  11  12
ENDBRANCH   1  11
TORSDOF 4
ENDMDL
MODEL 5
REMARK VINA RESULT:      -3.8      2.046      3.114
REMARK  Name = *****
REMARK                            x       y       z     vdW  Elec       q    Type
REMARK                         _______ _______ _______ _____ _____    ______ ____
ROOT
ATOM      1  C   LIG    1       25.935 -18.347   3.350  0.00  0.00    +0.180 C 
ATOM      2  O   LIG    1       25.860 -18.521   2.142  0.00  0.00    -0.290 OA
ENDROOT
BRANCH   1   3
ATOM      3  C   LIG    1       25.429 -19.440   4.267  0.00  0.00    +0.020 A 
ATOM      4  C   LIG    1       24.079 -19.823   4.177  0.00  0.00    +0.031 A 
ATOM      5  C   LIG    1       23.528 -20.686   5.128  0.00  0.00    +0.042 A 
ATOM      6 CL   LIG    1       21.860 -21.101   5.052  0.00  0.00    -0.084 Cl
ATOM      7  C   LIG    1       24.310 -21.190   6.165  0.00  0.00    +0.020 A 
ATOM      8  C   LIG    1       25.669 -20.889   6.208  0.00  0.00    +0.002 A 
ATOM      9  C   LIG    1       26.230 -20.036   5.252  0.00  0.00    +0.011 A 
ENDBRANCH   1   3
BRANCH   1  11
ATOM     10  C   LIG    1       27.980 -17.313   4.349  0.00  0.00    +0.032 C 
ATOM     11  C   LIG    1       26.513 -17.052   3.980  0.00  0.00    +0.123 C 
BRANCH  11  12
ATOM     12  N   LIG    1       26.502 -15.867   3.080  0.00  0.00    -0.302 NA
ATOM     13  H   LIG    1       26.049 -16.137   2.204  0.00  0.00    +0.123 HD
BRANCH  12  14
ATOM     14  C   LIG    1       25.935 -14.588   3.552  0.00  0.00    +0.011 C 
ATOM     15  C   LIG    1       26.801 -13.937   4.644  0.00  0.00    +0.027 C 
ATOM     16  C   LIG    1       24.485 -14.728   4.030  0.00  0.00    +0.027 C 
ATOM     17  C   LIG    1       25.915 -13.605   2.354  0.00  0.00    +0.027 C 
ENDBRANCH  12  14
ENDBRANCH  11  12
ENDBRANCH   1  11
TORSDOF 4
ENDMDL
MODEL 6
REMARK VINA RESULT:      -3.5      3.261      6.097
REMARK  Name = *****
REMARK                            x       y       z     vdW  Elec       q    Type
REMARK                         _______ _______ _______ _____ _____    ______ ____
ROOT
ATOM      1  C   LIG    1       25.082 -17.210   3.544  0.00  0.00    +0.180 C 
ATOM      2  O   LIG    1       25.902 -17.828   2.880  0.00  0.00    -0.290 OA
ENDROOT
BRANCH   1   3
ATOM      3  C   LIG    1       25.260 -15.715   3.699  0.00  0.00    +0.020 A 
ATOM      4  C   LIG    1       26.543 -15.168   3.523  0.00  0.00    +0.031 A 
ATOM      5  C   LIG    1       26.787 -13.830   3.843  0.00  0.00    +0.042 A 
ATOM      6 CL   LIG    1       28.373 -13.182   3.688  0.00  0.00    -0.084 Cl
ATOM      7  C   LIG    1       25.762 -13.018   4.322  0.00  0.00    +0.020 A 
ATOM      8  C   LIG    1       24.469 -13.527   4.412  0.00  0.00    +0.002 A 
ATOM      9  C   LIG    1       24.215 -14.863   4.081  0.00  0.00    +0.011 A 
ENDBRANCH   1   3
BRANCH   1  11
ATOM     10  C   LIG    1       22.655 -16.978   4.099  0.00  0.00    +0.032 C 
ATOM     11  C   LIG    1       23.878 -17.896   4.242  0.00  0.00    +0.123 C 
BRANCH  11  12
ATOM     12  N   LIG    1       23.494 -19.213   3.665  0.00  0.00    -0.302 NA
ATOM     13  H   LIG    1       23.951 -19.306   2.754  0.00  0.00    +0.123 HD
BRANCH  12  14
ATOM     14  C   LIG    1       23.699 -20.449   4.446  0.00  0.00    +0.011 C 
ATOM     15  C   LIG    1       22.406 -20.921   5.133  0.00  0.00    +0.027 C 
ATOM     16  C   LIG    1       24.832 -20.316   5.471  0.00  0.00    +0.027 C 
ATOM     17  C   LIG    1       24.118 -21.570   3.463  0.00  0.00    +0.027 C 
ENDBRANCH  12  14
ENDBRANCH  11  12
ENDBRANCH   1  11
TORSDOF 4
ENDMDL
MODEL 7
REMARK VINA RESULT:      -3.1      1.854      2.340
REMARK  Name = *****
REMARK                            x       y       z     vdW  Elec       q    Type
REMARK                         _______ _______ _______ _____ _____    ______ ____
ROOT
ATOM      1  C   LIG    1       25.364 -17.494   3.321  0.00  0.00    +0.180 C 
ATOM      2  O   LIG    1       26.272 -18.157   2.843  0.00  0.00    -0.290 OA
ENDROOT
BRANCH   1   3
ATOM      3  C   LIG    1       24.204 -18.222   3.967  0.00  0.00    +0.020 A 
ATOM      4  C   LIG    1       24.475 -19.348   4.762  0.00  0.00    +0.031 A 
ATOM      5  C   LIG    1       23.430 -20.157   5.217  0.00  0.00    +0.042 A 
ATOM      6 CL   LIG    1       23.771 -21.571   6.136  0.00  0.00    -0.084 Cl
ATOM      7  C   LIG    1       22.109 -19.849   4.902  0.00  0.00    +0.020 A 
ATOM      8  C   LIG    1       21.825 -18.685   4.192  0.00  0.00    +0.002 A 
ATOM      9  C   LIG    1       22.866 -17.864   3.745  0.00  0.00    +0.011 A 
ENDBRANCH   1   3
BRANCH   1  11
ATOM     10  C   LIG    1       24.316 -15.451   4.312  0.00  0.00    +0.032 C 
ATOM     11  C   LIG    1       25.345 -15.943   3.285  0.00  0.00    +0.123 C 
BRANCH  11  12
ATOM     12  N   LIG    1       26.640 -15.299   3.635  0.00  0.00    -0.302 NA
ATOM     13  H   LIG    1       27.357 -15.662   3.002  0.00  0.00    +0.123 HD
BRANCH  12  14
ATOM     14  C   LIG    1       26.739 -13.827   3.698  0.00  0.00    +0.011 C 
ATOM     15  C   LIG    1       26.195 -13.266   5.023  0.00  0.00    +0.027 C 
ATOM     16  C   LIG    1       26.062 -13.140   2.506  0.00  0.00    +0.027 C 
ATOM     17  C   LIG    1       28.240 -13.448   3.636  0.00  0.00    +0.027 C 
ENDBRANCH  12  14
ENDBRANCH  11  12
ENDBRANCH   1  11
TORSDOF 4
ENDMDL
MODEL 8
REMARK VINA RESULT:      -3.0      2.965      5.914
REMARK  Name = *****
REMARK                            x       y       z     vdW  Elec       q    Type
REMARK                         _______ _______ _______ _____ _____    ______ ____
ROOT
ATOM      1  C   LIG    1       25.640 -18.998   3.419  0.00  0.00    +0.180 C 
ATOM      2  O   LIG    1       25.286 -19.389   2.316  0.00  0.00    -0.290 OA
ENDROOT
BRANCH   1   3
ATOM      3  C   LIG    1       25.863 -17.515   3.621  0.00  0.00    +0.020 A 
ATOM      4  C   LIG    1       24.741 -16.678   3.755  0.00  0.00    +0.031 A 
ATOM      5  C   LIG    1       24.895 -15.289   3.750  0.00  0.00    +0.042 A 
ATOM      6 CL   LIG    1       23.514 -14.268   3.849  0.00  0.00    -0.084 Cl
ATOM      7  C   LIG    1       26.159 -14.717   3.629  0.00  0.00    +0.020 A 
ATOM      8  C   LIG    1       27.283 -15.539   3.588  0.00  0.00    +0.002 A 
ATOM      9  C   LIG    1       27.137 -16.930   3.606  0.00  0.00    +0.011 A 
ENDBRANCH   1   3
BRANCH   1  11
ATOM     10  C   LIG    1       27.276 -19.672   5.186  0.00  0.00    +0.032 C 
ATOM     11  C   LIG    1       25.880 -19.959   4.614  0.00  0.00    +0.123 C 
BRANCH  11  12
ATOM     12  N   LIG    1       24.917 -19.805   5.737  0.00  0.00    -0.302 NA
ATOM     13  H   LIG    1       24.791 -18.806   5.914  0.00  0.00    +0.123 HD
BRANCH  12  14
ATOM     14  C   LIG    1       23.596 -20.463   5.672  0.00  0.00    +0.011 C 
ATOM     15  C   LIG    1       22.484 -19.490   5.247  0.00  0.00    +0.027 C 
ATOM     16  C   LIG    1       23.223 -21.162   6.985  0.00  0.00    +0.027 C 
ATOM     17  C   LIG    1       23.666 -21.565   4.585  0.00  0.00    +0.027 C 
ENDBRANCH  12  14
ENDBRANCH  11  12
ENDBRANCH   1  11
TORSDOF 4
ENDMDL
MODEL 9
REMARK VINA RESULT:      -2.9      2.935      5.317
REMARK  Name = *****
REMARK                            x       y       z     vdW  Elec       q    Type
REMARK                         _______ _______ _______ _____ _____    ______ ____
ROOT
ATOM      1  C   LIG    1       22.786 -16.254   4.807  0.00  0.00    +0.180 C 
ATOM      2  O   LIG    1       21.997 -15.662   5.529  0.00  0.00    -0.290 OA
ENDROOT
BRANCH   1   3
ATOM      3  C   LIG    1       23.909 -15.465   4.167  0.00  0.00    +0.020 A 
ATOM      4  C   LIG    1       23.661 -14.136   3.779  0.00  0.00    +0.031 A 
ATOM      5  C   LIG    1       24.602 -13.438   3.018  0.00  0.00    +0.042 A 
ATOM      6 CL   LIG    1       24.267 -11.836   2.490  0.00  0.00    -0.084 Cl
ATOM      7  C   LIG    1       25.801 -14.042   2.648  0.00  0.00    +0.020 A 
ATOM      8  C   LIG    1       26.094 -15.324   3.105  0.00  0.00    +0.002 A 
ATOM      9  C   LIG    1       25.161 -16.024   3.879  0.00  0.00    +0.011 A 
ENDBRANCH   1   3
BRANCH   1  11
ATOM     10  C   LIG    1       21.459 -18.000   3.605  0.00  0.00    +0.032 C 
ATOM     11  C   LIG    1       22.678 -17.773   4.511  0.00  0.00    +0.123 C 
BRANCH  11  12
ATOM     12  N   LIG    1       23.852 -18.352   3.802  0.00  0.00    -0.302 NA
ATOM     13  H   LIG    1       24.626 -17.688   3.875  0.00  0.00    +0.123 HD
BRANCH  12  14
ATOM     14  C   LIG    1       24.330 -19.705   4.149  0.00  0.00    +0.011 C 
ATOM     15  C   LIG    1       25.830 -19.722   4.489  0.00  0.00    +0.027 C 
ATOM     16  C   LIG    1       24.016 -20.736   3.058  0.00  0.00    +0.027 C 
ATOM     17  C   LIG    1       23.578 -20.164   5.423  0.00  0.00    +0.027 C 
ENDBRANCH  12  14
ENDBRANCH  11  12
ENDBRANCH   1  11
TORSDOF 4
ENDMDL
