MODEL 1
REMARK VINA RESULT:      -6.3      0.000      0.000
REMARK  Name = *****
REMARK                            x       y       z     vdW  Elec       q    Type
REMARK                         _______ _______ _______ _____ _____    ______ ____
ROOT
ATOM      1  C   LIG    1       25.591 -23.575   6.482  0.00  0.00    +0.012 C 
ATOM      2  C   LIG    1       24.436 -22.568   6.651  0.00  0.00    -0.020 C 
ATOM      3  C   LIG    1       23.142 -23.401   6.740  0.00  0.00    +0.012 C 
ATOM      4  C   LIG    1       24.408 -21.429   5.594  0.00  0.00    +0.032 C 
ATOM      5  C   LIG    1       24.321 -21.824   4.139  0.00  0.00    +0.019 C 
ATOM      6  C   LIG    1       25.686 -20.670   5.970  0.00  0.00    +0.140 C 
ATOM      7  O   LIG    1       26.392 -20.032   5.207  0.00  0.00    -0.297 OA
ATOM      8  C   LIG    1       25.908 -20.789   7.464  0.00  0.00    +0.079 C 
ATOM      9  C   LIG    1       23.286 -20.492   6.097  0.00  0.00    +0.015 C 
ATOM     10  C   LIG    1       23.428 -20.589   7.634  0.00  0.00    +0.005 C 
ATOM     11  C   LIG    1       24.618 -21.566   7.823  0.00  0.00    +0.003 C 
ENDROOT
TORSDOF 0
ENDMDL
MODEL 2
REMARK VINA RESULT:      -6.3      1.534      2.839
REMARK  Name = *****
REMARK                            x       y       z     vdW  Elec       q    Type
REMARK                         _______ _______ _______ _____ _____    ______ ____
ROOT
ATOM      1  C   LIG    1       27.135 -21.009   6.483  0.00  0.00    +0.012 C 
ATOM      2  C   LIG    1       25.712 -21.105   7.069  0.00  0.00    -0.020 C 
ATOM      3  C   LIG    1       25.803 -20.590   8.519  0.00  0.00    +0.012 C 
ATOM      4  C   LIG    1       25.037 -22.496   6.912  0.00  0.00    +0.032 C 
ATOM      5  C   LIG    1       25.744 -23.690   7.507  0.00  0.00    +0.019 C 
ATOM      6  C   LIG    1       24.870 -22.553   5.388  0.00  0.00    +0.140 C 
ATOM      7  O   LIG    1       24.868 -23.562   4.704  0.00  0.00    -0.297 OA
ATOM      8  C   LIG    1       24.647 -21.149   4.865  0.00  0.00    +0.079 C 
ATOM      9  C   LIG    1       23.594 -22.261   7.411  0.00  0.00    +0.015 C 
ATOM     10  C   LIG    1       23.303 -20.816   6.940  0.00  0.00    +0.005 C 
ATOM     11  C   LIG    1       24.616 -20.403   6.222  0.00  0.00    +0.003 C 
ENDROOT
TORSDOF 0
ENDMDL
MODEL 3
REMARK VINA RESULT:      -6.2      1.566      2.915
REMARK  Name = *****
REMARK                            x       y       z     vdW  Elec       q    Type
REMARK                         _______ _______ _______ _____ _____    ______ ____
ROOT
ATOM      1  C   LIG    1       26.080 -20.566   5.592  0.00  0.00    +0.012 C 
ATOM      2  C   LIG    1       25.009 -21.665   5.742  0.00  0.00    -0.020 C 
ATOM      3  C   LIG    1       24.170 -21.634   4.449  0.00  0.00    +0.012 C 
ATOM      4  C   LIG    1       24.185 -21.592   7.057  0.00  0.00    +0.032 C 
ATOM      5  C   LIG    1       23.424 -20.319   7.340  0.00  0.00    +0.019 C 
ATOM      6  C   LIG    1       25.274 -21.922   8.086  0.00  0.00    +0.140 C 
ATOM      7  O   LIG    1       25.314 -21.529   9.239  0.00  0.00    -0.297 OA
ATOM      8  C   LIG    1       26.275 -22.870   7.457  0.00  0.00    +0.079 C 
ATOM      9  C   LIG    1       23.335 -22.882   7.027  0.00  0.00    +0.015 C 
ATOM     10  C   LIG    1       24.287 -23.901   6.357  0.00  0.00    +0.005 C 
ATOM     11  C   LIG    1       25.571 -23.070   6.092  0.00  0.00    +0.003 C 
ENDROOT
TORSDOF 0
ENDMDL
MODEL 4
REMARK VINA RESULT:      -6.2      1.568      2.786
REMARK  Name = *****
REMARK                            x       y       z     vdW  Elec       q    Type
REMARK                         _______ _______ _______ _____ _____    ______ ____
ROOT
ATOM      1  C   LIG    1       21.739 -21.570   5.001  0.00  0.00    +0.012 C 
ATOM      2  C   LIG    1       22.927 -20.873   5.692  0.00  0.00    -0.020 C 
ATOM      3  C   LIG    1       22.643 -19.359   5.624  0.00  0.00    +0.012 C 
ATOM      4  C   LIG    1       24.326 -21.299   5.167  0.00  0.00    +0.032 C 
ATOM      5  C   LIG    1       24.612 -21.106   3.697  0.00  0.00    +0.019 C 
ATOM      6  C   LIG    1       24.365 -22.759   5.634  0.00  0.00    +0.140 C 
ATOM      7  O   LIG    1       24.964 -23.670   5.090  0.00  0.00    -0.297 OA
ATOM      8  C   LIG    1       23.582 -22.883   6.926  0.00  0.00    +0.079 C 
ATOM      9  C   LIG    1       25.308 -20.598   6.133  0.00  0.00    +0.015 C 
ATOM     10  C   LIG    1       24.554 -20.655   7.483  0.00  0.00    +0.005 C 
ATOM     11  C   LIG    1       23.234 -21.388   7.125  0.00  0.00    +0.003 C 
ENDROOT
TORSDOF 0
ENDMDL
MODEL 5
REMARK VINA RESULT:      -6.2      1.973      3.223
REMARK  Name = *****
REMARK                            x       y       z     vdW  Elec       q    Type
REMARK                         _______ _______ _______ _____ _____    ______ ____
ROOT
ATOM      1  C   LIG    1       23.443 -20.920   4.830  0.00  0.00    +0.012 C 
ATOM      2  C   LIG    1       24.549 -21.292   5.838  0.00  0.00    -0.020 C 
ATOM      3  C   LIG    1       25.837 -20.604   5.344  0.00  0.00    +0.012 C 
ATOM      4  C   LIG    1       24.687 -22.815   6.117  0.00  0.00    +0.032 C 
ATOM      5  C   LIG    1       24.963 -23.722   4.942  0.00  0.00    +0.019 C 
ATOM      6  C   LIG    1       23.357 -23.088   6.830  0.00  0.00    +0.140 C 
ATOM      7  O   LIG    1       22.741 -24.140   6.820  0.00  0.00    -0.297 OA
ATOM      8  C   LIG    1       22.952 -21.852   7.607  0.00  0.00    +0.079 C 
ATOM      9  C   LIG    1       25.718 -22.882   7.266  0.00  0.00    +0.015 C 
ATOM     10  C   LIG    1       25.388 -21.618   8.094  0.00  0.00    +0.005 C 
ATOM     11  C   LIG    1       24.202 -20.984   7.320  0.00  0.00    +0.003 C 
ENDROOT
TORSDOF 0
ENDMDL
MODEL 6
REMARK VINA RESULT:      -6.1      1.474      2.725
REMARK  Name = *****
REMARK                            x       y       z     vdW  Elec       q    Type
REMARK                         _______ _______ _______ _____ _____    ______ ____
ROOT
ATOM      1  C   LIG    1       25.734 -20.547   8.313  0.00  0.00    +0.012 C 
ATOM      2  C   LIG    1       25.556 -21.674   7.276  0.00  0.00    -0.020 C 
ATOM      3  C   LIG    1       26.900 -22.426   7.217  0.00  0.00    +0.012 C 
ATOM      4  C   LIG    1       25.007 -21.208   5.899  0.00  0.00    +0.032 C 
ATOM      5  C   LIG    1       25.792 -20.160   5.148  0.00  0.00    +0.019 C 
ATOM      6  C   LIG    1       23.590 -20.775   6.298  0.00  0.00    +0.140 C 
ATOM      7  O   LIG    1       22.927 -19.906   5.757  0.00  0.00    -0.297 OA
ATOM      8  C   LIG    1       23.114 -21.644   7.444  0.00  0.00    +0.079 C 
ATOM      9  C   LIG    1       24.764 -22.531   5.137  0.00  0.00    +0.015 C 
ATOM     10  C   LIG    1       24.303 -23.490   6.260  0.00  0.00    +0.005 C 
ATOM     11  C   LIG    1       24.332 -22.596   7.528  0.00  0.00    +0.003 C 
ENDROOT
TORSDOF 0
ENDMDL
MODEL 7
REMARK VINA RESULT:      -6.0      1.591      2.537
REMARK  Name = *****
REMARK                            x       y       z     vdW  Elec       q    Type
REMARK                         _______ _______ _______ _____ _____    ______ ____
ROOT
ATOM      1  C   LIG    1       24.940 -23.756   4.945  0.00  0.00    +0.012 C 
ATOM      2  C   LIG    1       24.960 -22.848   6.191  0.00  0.00    -0.020 C 
ATOM      3  C   LIG    1       25.680 -23.644   7.298  0.00  0.00    +0.012 C 
ATOM      4  C   LIG    1       23.574 -22.273   6.597  0.00  0.00    +0.032 C 
ATOM      5  C   LIG    1       22.466 -23.255   6.894  0.00  0.00    +0.019 C 
ATOM      6  C   LIG    1       23.299 -21.348   5.405  0.00  0.00    +0.140 C 
ATOM      7  O   LIG    1       22.200 -21.052   4.966  0.00  0.00    -0.297 OA
ATOM      8  C   LIG    1       24.615 -20.804   4.889  0.00  0.00    +0.079 C 
ATOM      9  C   LIG    1       23.909 -21.284   7.736  0.00  0.00    +0.015 C 
ATOM     10  C   LIG    1       25.275 -20.707   7.293  0.00  0.00    +0.005 C 
ATOM     11  C   LIG    1       25.552 -21.433   5.950  0.00  0.00    +0.003 C 
ENDROOT
TORSDOF 0
ENDMDL
MODEL 8
REMARK VINA RESULT:      -5.9      1.369      2.663
REMARK  Name = *****
REMARK                            x       y       z     vdW  Elec       q    Type
REMARK                         _______ _______ _______ _____ _____    ______ ____
ROOT
ATOM      1  C   LIG    1       24.233 -21.805   4.056  0.00  0.00    +0.012 C 
ATOM      2  C   LIG    1       23.950 -21.229   5.457  0.00  0.00    -0.020 C 
ATOM      3  C   LIG    1       23.255 -19.870   5.236  0.00  0.00    +0.012 C 
ATOM      4  C   LIG    1       25.181 -21.186   6.403  0.00  0.00    +0.032 C 
ATOM      5  C   LIG    1       26.393 -20.411   5.943  0.00  0.00    +0.019 C 
ATOM      6  C   LIG    1       25.427 -22.686   6.607  0.00  0.00    +0.140 C 
ATOM      7  O   LIG    1       26.504 -23.213   6.827  0.00  0.00    -0.297 OA
ATOM      8  C   LIG    1       24.100 -23.414   6.549  0.00  0.00    +0.079 C 
ATOM      9  C   LIG    1       24.585 -20.744   7.759  0.00  0.00    +0.015 C 
ATOM     10  C   LIG    1       23.198 -21.428   7.759  0.00  0.00    +0.005 C 
ATOM     11  C   LIG    1       23.172 -22.184   6.403  0.00  0.00    +0.003 C 
ENDROOT
TORSDOF 0
ENDMDL
MODEL 9
REMARK VINA RESULT:      -5.8      1.517      2.610
REMARK  Name = *****
REMARK                            x       y       z     vdW  Elec       q    Type
REMARK                         _______ _______ _______ _____ _____    ______ ____
ROOT
ATOM      1  C   LIG    1       23.611 -23.574   6.922  0.00  0.00    +0.012 C 
ATOM      2  C   LIG    1       24.306 -22.551   6.001  0.00  0.00    -0.020 C 
ATOM      3  C   LIG    1       24.668 -23.306   4.707  0.00  0.00    +0.012 C 
ATOM      4  C   LIG    1       25.484 -21.781   6.660  0.00  0.00    +0.032 C 
ATOM      5  C   LIG    1       26.631 -22.592   7.213  0.00  0.00    +0.019 C 
ATOM      6  C   LIG    1       24.725 -20.957   7.708  0.00  0.00    +0.140 C 
ATOM      7  O   LIG    1       25.165 -20.584   8.782  0.00  0.00    -0.297 OA
ATOM      8  C   LIG    1       23.348 -20.626   7.171  0.00  0.00    +0.079 C 
ATOM      9  C   LIG    1       25.867 -20.724   5.599  0.00  0.00    +0.015 C 
ATOM     10  C   LIG    1       24.500 -20.358   4.975  0.00  0.00    +0.005 C 
ATOM     11  C   LIG    1       23.499 -21.246   5.761  0.00  0.00    +0.003 C 
ENDROOT
TORSDOF 0
ENDMDL
