MODEL 1
REMARK VINA RESULT:      -4.0      0.000      0.000
REMARK  Name = *****
REMARK                            x       y       z     vdW  Elec       q    Type
REMARK                         _______ _______ _______ _____ _____    ______ ____
ROOT
ATOM      1  C   LIG    1       27.585 -13.987   3.783  0.00  0.00    +0.139 C 
ATOM      2  C   LIG    1       26.917 -13.628   5.135  0.00  0.00    +0.267 C 
ATOM      3  O   LIG    1       25.824 -12.730   4.980  0.00  0.00    -0.342 OA
ATOM      4  C   LIG    1       24.771 -13.214   4.124  0.00  0.00    +0.178 C 
ATOM      5  C   LIG    1       25.295 -13.635   2.738  0.00  0.00    +0.175 C 
ATOM      6  C   LIG    1       26.520 -14.560   2.825  0.00  0.00    +0.167 C 
ENDROOT
BRANCH   1   7
ATOM      7  N   LIG    1       28.271 -12.805   3.185  0.00  0.00    -0.321 NA
ATOM      8  H   LIG    1       29.238 -13.081   2.992  0.00  0.00    +0.119 HD
ATOM      9  H   LIG    1       27.866 -12.626   2.263  0.00  0.00    +0.119 HD
ENDBRANCH   1   7
BRANCH   2  10
ATOM     10  O   LIG    1       27.858 -12.969   5.972  0.00  0.00    -0.366 OA
ATOM     11  H   LIG    1       28.708 -13.324   5.656  0.00  0.00    +0.212 HD
ENDBRANCH   2  10
BRANCH   5  12
ATOM     12  O   LIG    1       25.654 -12.460   1.996  0.00  0.00    -0.387 OA
ATOM     13  H   LIG    1       24.838 -12.162   1.534  0.00  0.00    +0.210 HD
ENDBRANCH   5  12
BRANCH   6  14
ATOM     14  O   LIG    1       26.140 -15.867   3.259  0.00  0.00    -0.387 OA
ATOM     15  H   LIG    1       25.667 -15.766   4.107  0.00  0.00    +0.210 HD
ENDBRANCH   6  14
BRANCH   4  16
ATOM     16  C   LIG    1       23.956 -14.303   4.836  0.00  0.00    +0.190 C 
BRANCH  16  17
ATOM     17  O   LIG    1       23.223 -15.062   3.873  0.00  0.00    -0.392 OA
ATOM     18  H   LIG    1       22.325 -14.678   3.844  0.00  0.00    +0.209 HD
ENDBRANCH  16  17
ENDBRANCH   4  16
TORSDOF 6
ENDMDL
MODEL 2
REMARK VINA RESULT:      -4.0      6.009      6.911
REMARK  Name = *****
REMARK                            x       y       z     vdW  Elec       q    Type
REMARK                         _______ _______ _______ _____ _____    ______ ____
ROOT
ATOM      1  C   LIG    1       25.550 -20.254   3.980  0.00  0.00    +0.139 C 
ATOM      2  C   LIG    1       25.392 -20.832   5.409  0.00  0.00    +0.267 C 
ATOM      3  O   LIG    1       24.431 -20.120   6.181  0.00  0.00    -0.342 OA
ATOM      4  C   LIG    1       23.110 -20.089   5.608  0.00  0.00    +0.178 C 
ATOM      5  C   LIG    1       23.114 -19.553   4.164  0.00  0.00    +0.175 C 
ATOM      6  C   LIG    1       24.173 -20.234   3.284  0.00  0.00    +0.167 C 
ENDROOT
BRANCH   1   7
ATOM      7  N   LIG    1       26.161 -18.893   4.009  0.00  0.00    -0.321 NA
ATOM      8  H   LIG    1       26.794 -18.827   3.207  0.00  0.00    +0.119 HD
ATOM      9  H   LIG    1       25.430 -18.204   3.816  0.00  0.00    +0.119 HD
ENDBRANCH   1   7
BRANCH   2  10
ATOM     10  O   LIG    1       26.625 -20.723   6.108  0.00  0.00    -0.366 OA
ATOM     11  H   LIG    1       27.096 -21.529   5.834  0.00  0.00    +0.212 HD
ENDBRANCH   2  10
BRANCH   5  12
ATOM     12  O   LIG    1       23.371 -18.141   4.191  0.00  0.00    -0.387 OA
ATOM     13  H   LIG    1       24.049 -17.968   3.499  0.00  0.00    +0.210 HD
ENDBRANCH   5  12
BRANCH   6  14
ATOM     14  O   LIG    1       23.782 -21.569   2.960  0.00  0.00    -0.387 OA
ATOM     15  H   LIG    1       22.848 -21.539   2.682  0.00  0.00    +0.210 HD
ENDBRANCH   6  14
BRANCH   4  16
ATOM     16  C   LIG    1       22.425 -21.455   5.761  0.00  0.00    +0.190 C 
BRANCH  16  17
ATOM     17  O   LIG    1       21.368 -21.572   4.806  0.00  0.00    -0.392 OA
ATOM     18  H   LIG    1       21.759 -21.983   4.010  0.00  0.00    +0.209 HD
ENDBRANCH  16  17
ENDBRANCH   4  16
TORSDOF 6
ENDMDL
MODEL 3
REMARK VINA RESULT:      -3.9      1.714      2.820
REMARK  Name = *****
REMARK                            x       y       z     vdW  Elec       q    Type
REMARK                         _______ _______ _______ _____ _____    ______ ____
ROOT
ATOM      1  C   LIG    1       27.374 -14.059   4.573  0.00  0.00    +0.139 C 
ATOM      2  C   LIG    1       27.703 -13.303   3.260  0.00  0.00    +0.267 C 
ATOM      3  O   LIG    1       27.029 -13.853   2.133  0.00  0.00    -0.342 OA
ATOM      4  C   LIG    1       25.593 -13.868   2.244  0.00  0.00    +0.178 C 
ATOM      5  C   LIG    1       25.116 -14.573   3.526  0.00  0.00    +0.175 C 
ATOM      6  C   LIG    1       25.846 -14.073   4.783  0.00  0.00    +0.167 C 
ENDROOT
BRANCH   1   7
ATOM      7  N   LIG    1       27.931 -15.443   4.557  0.00  0.00    -0.321 NA
ATOM      8  H   LIG    1       28.950 -15.361   4.617  0.00  0.00    +0.119 HD
ATOM      9  H   LIG    1       27.660 -15.912   5.425  0.00  0.00    +0.119 HD
ENDBRANCH   1   7
BRANCH   2  10
ATOM     10  O   LIG    1       29.093 -13.408   2.984  0.00  0.00    -0.366 OA
ATOM     11  H   LIG    1       29.297 -12.540   2.592  0.00  0.00    +0.212 HD
ENDBRANCH   2  10
BRANCH   5  12
ATOM     12  O   LIG    1       25.335 -15.985   3.393  0.00  0.00    -0.387 OA
ATOM     13  H   LIG    1       24.775 -16.420   4.075  0.00  0.00    +0.210 HD
ENDBRANCH   5  12
BRANCH   6  14
ATOM     14  O   LIG    1       25.400 -12.764   5.142  0.00  0.00    -0.387 OA
ATOM     15  H   LIG    1       24.628 -12.870   5.729  0.00  0.00    +0.210 HD
ENDBRANCH   6  14
BRANCH   4  16
ATOM     16  C   LIG    1       25.026 -12.451   2.066  0.00  0.00    +0.190 C 
BRANCH  16  17
ATOM     17  O   LIG    1       23.722 -12.381   2.644  0.00  0.00    -0.392 OA
ATOM     18  H   LIG    1       23.845 -12.095   3.571  0.00  0.00    +0.209 HD
ENDBRANCH  16  17
ENDBRANCH   4  16
TORSDOF 6
ENDMDL
MODEL 4
REMARK VINA RESULT:      -3.8      1.513      2.946
REMARK  Name = *****
REMARK                            x       y       z     vdW  Elec       q    Type
REMARK                         _______ _______ _______ _____ _____    ______ ____
ROOT
ATOM      1  C   LIG    1       27.258 -14.905   3.298  0.00  0.00    +0.139 C 
ATOM      2  C   LIG    1       25.864 -15.553   3.101  0.00  0.00    +0.267 C 
ATOM      3  O   LIG    1       24.977 -15.272   4.178  0.00  0.00    -0.342 OA
ATOM      4  C   LIG    1       24.742 -13.870   4.408  0.00  0.00    +0.178 C 
ATOM      5  C   LIG    1       26.053 -13.085   4.600  0.00  0.00    +0.175 C 
ATOM      6  C   LIG    1       27.088 -13.385   3.505  0.00  0.00    +0.167 C 
ENDROOT
BRANCH   1   7
ATOM      7  N   LIG    1       27.990 -15.528   4.439  0.00  0.00    -0.321 NA
ATOM      8  H   LIG    1       27.317 -15.652   5.200  0.00  0.00    +0.119 HD
ATOM      9  H   LIG    1       28.255 -16.480   4.174  0.00  0.00    +0.119 HD
ENDBRANCH   1   7
BRANCH   2  10
ATOM     10  O   LIG    1       25.997 -16.967   3.053  0.00  0.00    -0.366 OA
ATOM     11  H   LIG    1       25.090 -17.259   2.854  0.00  0.00    +0.212 HD
ENDBRANCH   2  10
BRANCH   5  12
ATOM     12  O   LIG    1       26.618 -13.421   5.876  0.00  0.00    -0.387 OA
ATOM     13  H   LIG    1       25.900 -13.851   6.394  0.00  0.00    +0.210 HD
ENDBRANCH   5  12
BRANCH   6  14
ATOM     14  O   LIG    1       26.712 -12.774   2.269  0.00  0.00    -0.387 OA
ATOM     15  H   LIG    1       27.249 -11.965   2.169  0.00  0.00    +0.210 HD
ENDBRANCH   6  14
BRANCH   4  16
ATOM     16  C   LIG    1       23.826 -13.292   3.320  0.00  0.00    +0.190 C 
BRANCH  16  17
ATOM     17  O   LIG    1       23.924 -11.866   3.317  0.00  0.00    -0.392 OA
ATOM     18  H   LIG    1       24.003 -11.596   2.381  0.00  0.00    +0.209 HD
ENDBRANCH  16  17
ENDBRANCH   4  16
TORSDOF 6
ENDMDL
MODEL 5
REMARK VINA RESULT:      -3.8      1.722      3.602
REMARK  Name = *****
REMARK                            x       y       z     vdW  Elec       q    Type
REMARK                         _______ _______ _______ _____ _____    ______ ____
ROOT
ATOM      1  C   LIG    1       23.849 -12.747   3.852  0.00  0.00    +0.139 C 
ATOM      2  C   LIG    1       24.580 -12.586   2.495  0.00  0.00    +0.267 C 
ATOM      3  O   LIG    1       25.978 -12.369   2.653  0.00  0.00    -0.342 OA
ATOM      4  C   LIG    1       26.668 -13.414   3.364  0.00  0.00    +0.178 C 
ATOM      5  C   LIG    1       26.031 -13.704   4.736  0.00  0.00    +0.175 C 
ATOM      6  C   LIG    1       24.508 -13.888   4.654  0.00  0.00    +0.167 C 
ENDROOT
BRANCH   1   7
ATOM      7  N   LIG    1       23.852 -11.470   4.625  0.00  0.00    -0.321 NA
ATOM      8  H   LIG    1       24.079 -11.704   5.596  0.00  0.00    +0.119 HD
ATOM      9  H   LIG    1       24.641 -10.901   4.308  0.00  0.00    +0.119 HD
ENDBRANCH   1   7
BRANCH   2  10
ATOM     10  O   LIG    1       24.075 -11.447   1.812  0.00  0.00    -0.366 OA
ATOM     11  H   LIG    1       23.525 -11.845   1.114  0.00  0.00    +0.212 HD
ENDBRANCH   2  10
BRANCH   5  12
ATOM     12  O   LIG    1       26.318 -12.613   5.625  0.00  0.00    -0.387 OA
ATOM     13  H   LIG    1       27.287 -12.453   5.566  0.00  0.00    +0.210 HD
ENDBRANCH   5  12
BRANCH   6  14
ATOM     14  O   LIG    1       24.180 -15.143   4.055  0.00  0.00    -0.387 OA
ATOM     15  H   LIG    1       23.498 -14.974   3.378  0.00  0.00    +0.210 HD
ENDBRANCH   6  14
BRANCH   4  16
ATOM     16  C   LIG    1       26.821 -14.658   2.476  0.00  0.00    +0.190 C 
BRANCH  16  17
ATOM     17  O   LIG    1       26.925 -15.824   3.297  0.00  0.00    -0.392 OA
ATOM     18  H   LIG    1       27.299 -16.527   2.730  0.00  0.00    +0.209 HD
ENDBRANCH  16  17
ENDBRANCH   4  16
TORSDOF 6
ENDMDL
MODEL 6
REMARK VINA RESULT:      -3.6      1.921      3.531
REMARK  Name = *****
REMARK                            x       y       z     vdW  Elec       q    Type
REMARK                         _______ _______ _______ _____ _____    ______ ____
ROOT
ATOM      1  C   LIG    1       24.672 -13.223   3.345  0.00  0.00    +0.139 C 
ATOM      2  C   LIG    1       25.329 -12.643   4.624  0.00  0.00    +0.267 C 
ATOM      3  O   LIG    1       26.187 -13.578   5.266  0.00  0.00    -0.342 OA
ATOM      4  C   LIG    1       27.264 -14.065   4.443  0.00  0.00    +0.178 C 
ATOM      5  C   LIG    1       26.759 -14.655   3.114  0.00  0.00    +0.175 C 
ATOM      6  C   LIG    1       25.774 -13.724   2.389  0.00  0.00    +0.167 C 
ENDROOT
BRANCH   1   7
ATOM      7  N   LIG    1       23.707 -14.312   3.677  0.00  0.00    -0.321 NA
ATOM      8  H   LIG    1       23.261 -14.062   4.564  0.00  0.00    +0.119 HD
ATOM      9  H   LIG    1       22.947 -14.292   2.993  0.00  0.00    +0.119 HD
ENDBRANCH   1   7
BRANCH   2  10
ATOM     10  O   LIG    1       24.321 -12.310   5.569  0.00  0.00    -0.366 OA
ATOM     11  H   LIG    1       24.840 -12.091   6.363  0.00  0.00    +0.212 HD
ENDBRANCH   2  10
BRANCH   5  12
ATOM     12  O   LIG    1       26.106 -15.907   3.376  0.00  0.00    -0.387 OA
ATOM     13  H   LIG    1       25.265 -15.895   2.865  0.00  0.00    +0.210 HD
ENDBRANCH   5  12
BRANCH   6  14
ATOM     14  O   LIG    1       26.457 -12.606   1.820  0.00  0.00    -0.387 OA
ATOM     15  H   LIG    1       26.358 -12.666   0.851  0.00  0.00    +0.210 HD
ENDBRANCH   6  14
BRANCH   4  16
ATOM     16  C   LIG    1       28.341 -12.983   4.272  0.00  0.00    +0.190 C 
BRANCH  16  17
ATOM     17  O   LIG    1       29.215 -13.342   3.199  0.00  0.00    -0.392 OA
ATOM     18  H   LIG    1       29.604 -14.206   3.437  0.00  0.00    +0.209 HD
ENDBRANCH  16  17
ENDBRANCH   4  16
TORSDOF 6
ENDMDL
MODEL 7
REMARK VINA RESULT:      -3.2      1.607      3.368
REMARK  Name = *****
REMARK                            x       y       z     vdW  Elec       q    Type
REMARK                         _______ _______ _______ _____ _____    ______ ____
ROOT
ATOM      1  C   LIG    1       24.823 -13.193   4.693  0.00  0.00    +0.139 C 
ATOM      2  C   LIG    1       24.552 -14.674   4.321  0.00  0.00    +0.267 C 
ATOM      3  O   LIG    1       25.148 -15.041   3.082  0.00  0.00    -0.342 OA
ATOM      4  C   LIG    1       26.576 -14.865   3.030  0.00  0.00    +0.178 C 
ATOM      5  C   LIG    1       27.000 -13.432   3.403  0.00  0.00    +0.175 C 
ATOM      6  C   LIG    1       26.345 -12.941   4.704  0.00  0.00    +0.167 C 
ENDROOT
BRANCH   1   7
ATOM      7  N   LIG    1       24.127 -12.262   3.757  0.00  0.00    -0.321 NA
ATOM      8  H   LIG    1       23.358 -11.830   4.275  0.00  0.00    +0.119 HD
ATOM      9  H   LIG    1       24.759 -11.487   3.540  0.00  0.00    +0.119 HD
ENDBRANCH   1   7
BRANCH   2  10
ATOM     10  O   LIG    1       23.154 -14.880   4.169  0.00  0.00    -0.366 OA
ATOM     11  H   LIG    1       22.972 -15.582   4.818  0.00  0.00    +0.212 HD
ENDBRANCH   2  10
BRANCH   5  12
ATOM     12  O   LIG    1       26.635 -12.543   2.336  0.00  0.00    -0.387 OA
ATOM     13  H   LIG    1       25.790 -12.118   2.604  0.00  0.00    +0.210 HD
ENDBRANCH   5  12
BRANCH   6  14
ATOM     14  O   LIG    1       26.927 -13.583   5.839  0.00  0.00    -0.387 OA
ATOM     15  H   LIG    1       26.351 -13.400   6.605  0.00  0.00    +0.210 HD
ENDBRANCH   6  14
BRANCH   4  16
ATOM     16  C   LIG    1       27.282 -15.954   3.850  0.00  0.00    +0.190 C 
BRANCH  16  17
ATOM     17  O   LIG    1       26.879 -17.243   3.384  0.00  0.00    -0.392 OA
ATOM     18  H   LIG    1       26.081 -17.102   2.838  0.00  0.00    +0.209 HD
ENDBRANCH  16  17
ENDBRANCH   4  16
TORSDOF 6
ENDMDL
MODEL 8
REMARK VINA RESULT:      -3.1      1.952      3.734
REMARK  Name = *****
REMARK                            x       y       z     vdW  Elec       q    Type
REMARK                         _______ _______ _______ _____ _____    ______ ____
ROOT
ATOM      1  C   LIG    1       24.796 -14.495   4.313  0.00  0.00    +0.139 C 
ATOM      2  C   LIG    1       25.871 -15.432   3.704  0.00  0.00    +0.267 C 
ATOM      3  O   LIG    1       26.408 -14.925   2.488  0.00  0.00    -0.342 OA
ATOM      4  C   LIG    1       27.019 -13.626   2.600  0.00  0.00    +0.178 C 
ATOM      5  C   LIG    1       26.066 -12.586   3.218  0.00  0.00    +0.175 C 
ATOM      6  C   LIG    1       25.398 -13.088   4.508  0.00  0.00    +0.167 C 
ENDROOT
BRANCH   1   7
ATOM      7  N   LIG    1       23.572 -14.448   3.461  0.00  0.00    -0.321 NA
ATOM      8  H   LIG    1       23.046 -13.613   3.733  0.00  0.00    +0.119 HD
ATOM      9  H   LIG    1       23.857 -14.269   2.495  0.00  0.00    +0.119 HD
ENDBRANCH   1   7
BRANCH   2  10
ATOM     10  O   LIG    1       25.287 -16.689   3.390  0.00  0.00    -0.366 OA
ATOM     11  H   LIG    1       24.439 -16.653   3.867  0.00  0.00    +0.212 HD
ENDBRANCH   2  10
BRANCH   5  12
ATOM     12  O   LIG    1       25.045 -12.261   2.263  0.00  0.00    -0.387 OA
ATOM     13  H   LIG    1       24.512 -11.536   2.660  0.00  0.00    +0.210 HD
ENDBRANCH   5  12
BRANCH   6  14
ATOM     14  O   LIG    1       26.333 -13.113   5.587  0.00  0.00    -0.387 OA
ATOM     15  H   LIG    1       26.936 -12.356   5.468  0.00  0.00    +0.210 HD
ENDBRANCH   6  14
BRANCH   4  16
ATOM     16  C   LIG    1       28.374 -13.729   3.316  0.00  0.00    +0.190 C 
BRANCH  16  17
ATOM     17  O   LIG    1       28.782 -12.434   3.761  0.00  0.00    -0.392 OA
ATOM     18  H   LIG    1       28.644 -12.418   4.729  0.00  0.00    +0.209 HD
ENDBRANCH  16  17
ENDBRANCH   4  16
TORSDOF 6
ENDMDL
MODEL 9
REMARK VINA RESULT:      -2.8      6.075      7.065
REMARK  Name = *****
REMARK                            x       y       z     vdW  Elec       q    Type
REMARK                         _______ _______ _______ _____ _____    ______ ____
ROOT
ATOM      1  C   LIG    1       24.772 -21.378   4.799  0.00  0.00    +0.139 C 
ATOM      2  C   LIG    1       23.572 -21.108   5.743  0.00  0.00    +0.267 C 
ATOM      3  O   LIG    1       23.249 -19.725   5.830  0.00  0.00    -0.342 OA
ATOM      4  C   LIG    1       22.921 -19.108   4.570  0.00  0.00    +0.178 C 
ATOM      5  C   LIG    1       24.023 -19.317   3.515  0.00  0.00    +0.175 C 
ATOM      6  C   LIG    1       24.469 -20.783   3.408  0.00  0.00    +0.167 C 
ENDROOT
BRANCH   1   7
ATOM      7  N   LIG    1       26.039 -20.826   5.360  0.00  0.00    -0.321 NA
ATOM      8  H   LIG    1       26.235 -19.952   4.864  0.00  0.00    +0.119 HD
ATOM      9  H   LIG    1       25.868 -20.538   6.327  0.00  0.00    +0.119 HD
ENDBRANCH   1   7
BRANCH   2  10
ATOM     10  O   LIG    1       23.899 -21.525   7.062  0.00  0.00    -0.366 OA
ATOM     11  H   LIG    1       24.142 -22.459   6.934  0.00  0.00    +0.212 HD
ENDBRANCH   2  10
BRANCH   5  12
ATOM     12  O   LIG    1       25.160 -18.510   3.860  0.00  0.00    -0.387 OA
ATOM     13  H   LIG    1       24.836 -17.827   4.490  0.00  0.00    +0.210 HD
ENDBRANCH   5  12
BRANCH   6  14
ATOM     14  O   LIG    1       23.471 -21.572   2.758  0.00  0.00    -0.387 OA
ATOM     15  H   LIG    1       23.919 -22.347   2.371  0.00  0.00    +0.210 HD
ENDBRANCH   6  14
BRANCH   4  16
ATOM     16  C   LIG    1       21.525 -19.547   4.105  0.00  0.00    +0.190 C 
BRANCH  16  17
ATOM     17  O   LIG    1       20.841 -18.435   3.522  0.00  0.00    -0.392 OA
ATOM     18  H   LIG    1       19.942 -18.748   3.300  0.00  0.00    +0.209 HD
ENDBRANCH  16  17
ENDBRANCH   4  16
TORSDOF 6
ENDMDL
