MODEL 1
REMARK VINA RESULT:      25.4      0.000      0.000
REMARK  Name = *****
REMARK                            x       y       z     vdW  Elec       q    Type
REMARK                         _______ _______ _______ _____ _____    ______ ____
ROOT
ATOM      1  C   LIG    1       21.181 -17.416   4.001  0.00  0.00    +0.037 A 
ATOM      2  C   LIG    1       21.908 -17.247   5.186  0.00  0.00    +0.015 A 
ATOM      3  C   LIG    1       22.848 -16.219   5.286  0.00  0.00    +0.030 A 
ATOM      4  C   LIG    1       23.116 -15.388   4.193  0.00  0.00    +0.086 A 
ATOM      5  C   LIG    1       22.366 -15.557   3.018  0.00  0.00    +0.030 A 
ATOM      6  C   LIG    1       21.408 -16.566   2.917  0.00  0.00    +0.015 A 
ENDROOT
BRANCH   1   9
ATOM      7  N   LIG    1       20.143 -19.142   2.619  0.00  0.00    -0.311 N 
ATOM      8  H   LIG    1       20.499 -18.629   1.822  0.00  0.00    +0.149 HD
ATOM      9  C   LIG    1       20.288 -18.590   3.872  0.00  0.00    +0.244 C 
ATOM     10  O   LIG    1       19.821 -19.092   4.891  0.00  0.00    -0.270 OA
BRANCH   7  11
ATOM     11  C   LIG    1       19.384 -20.349   2.315  0.00  0.00    +0.115 C 
BRANCH  11  12
ATOM     12  C   LIG    1       19.660 -21.572   3.178  0.00  0.00    +0.139 C 
BRANCH  12  14
ATOM     13  O   LIG    1       21.169 -21.463   5.050  0.00  0.00    -0.251 OA
ATOM     14  C   LIG    1       21.009 -21.475   3.837  0.00  0.00    +0.306 C 
BRANCH  14  15
ATOM     15  O   LIG    1       22.045 -21.437   2.970  0.00  0.00    -0.481 OA
ATOM     16  H   LIG    1       21.933 -20.733   2.286  0.00  0.00    +0.295 HD
ENDBRANCH  14  15
ENDBRANCH  12  14
ENDBRANCH  11  12
ENDBRANCH   7  11
ENDBRANCH   1   9
BRANCH   4  17
ATOM     17  N   LIG    1       24.169 -14.457   4.298  0.00  0.00    -0.149 NA
ATOM     18  N   LIG    1       24.692 -14.268   3.177  0.00  0.00    -0.149 NA
BRANCH  18  19
ATOM     19  C   LIG    1       25.909 -13.576   3.249  0.00  0.00    +0.087 A 
ATOM     20  C   LIG    1       26.550 -13.488   4.486  0.00  0.00    +0.048 A 
ATOM     21  C   LIG    1       27.740 -12.763   4.629  0.00  0.00    +0.102 A 
ATOM     22  C   LIG    1       28.283 -12.109   3.514  0.00  0.00    +0.131 A 
ATOM     23  C   LIG    1       27.631 -12.150   2.283  0.00  0.00    +0.048 A 
ATOM     24  C   LIG    1       26.449 -12.881   2.156  0.00  0.00    +0.033 A 
BRANCH  21  25
ATOM     25  C   LIG    1       28.343 -12.730   5.992  0.00  0.00    +0.340 C 
ATOM     26  O   LIG    1       29.215 -11.959   6.306  0.00  0.00    -0.245 OA
BRANCH  25  27
ATOM     27  O   LIG    1       27.748 -13.582   6.857  0.00  0.00    -0.477 OA
ATOM     28  H   LIG    1       27.174 -13.123   7.511  0.00  0.00    +0.295 HD
ENDBRANCH  25  27
ENDBRANCH  21  25
BRANCH  22  29
ATOM     29  O   LIG    1       29.475 -11.447   3.625  0.00  0.00    -0.506 OA
ATOM     30  H   LIG    1       29.365 -10.542   3.277  0.00  0.00    +0.292 HD
ENDBRANCH  22  29
ENDBRANCH  18  19
ENDBRANCH   4  17
TORSDOF 10
ENDMDL
