MODEL 1
REMARK VINA RESULT:      -8.9      0.000      0.000
REMARK  Name = *****
REMARK                            x       y       z     vdW  Elec       q    Type
REMARK                         _______ _______ _______ _____ _____    ______ ____
ROOT
ATOM      1  N   LIG    1       24.626 -27.255   6.106  0.00  0.00    -0.298 NA
ATOM      2  C   LIG    1       23.852 -26.134   5.521  0.00  0.00    +0.103 C 
ATOM      3  C   LIG    1       23.950 -24.823   6.329  0.00  0.00    +0.120 C 
ATOM      4  N   LIG    1       25.365 -24.414   6.480  0.00  0.00    -0.327 N 
ATOM      5  C   LIG    1       26.171 -25.494   7.092  0.00  0.00    +0.120 C 
ATOM      6  C   LIG    1       26.028 -26.817   6.308  0.00  0.00    +0.103 C 
ENDROOT
BRANCH   4   7
ATOM      7  C   LIG    1       25.558 -23.104   6.948  0.00  0.00    +0.030 A 
ATOM      8  C   LIG    1       26.853 -22.568   7.064  0.00  0.00    +0.035 A 
ATOM      9  C   LIG    1       27.088 -21.256   7.525  0.00  0.00    +0.057 A 
ATOM     10  C   LIG    1       25.999 -20.469   7.907  0.00  0.00    +0.012 A 
ATOM     11  C   LIG    1       24.711 -20.984   7.837  0.00  0.00    +0.002 A 
ATOM     12  C   LIG    1       24.501 -22.285   7.369  0.00  0.00    +0.023 A 
BRANCH   9  13
ATOM     13  C   LIG    1       28.496 -20.728   7.597  0.00  0.00    +0.417 C 
ATOM     14  F   LIG    1       29.322 -21.540   8.316  0.00  0.00    -0.166 F 
ATOM     15  F   LIG    1       28.572 -19.503   8.188  0.00  0.00    -0.166 F 
ATOM     16  F   LIG    1       29.089 -20.588   6.377  0.00  0.00    -0.166 F 
ENDBRANCH   9  13
ENDBRANCH   4   7
BRANCH   1  17
ATOM     17  C   LIG    1       24.606 -28.443   5.223  0.00  0.00    +0.106 C 
BRANCH  17  18
ATOM     18  C   LIG    1       24.078 -29.719   5.905  0.00  0.00    +0.142 C 
BRANCH  18  21
ATOM     19  O   LIG    1       25.170 -29.605   8.683  0.00  0.00    -0.246 OA
ATOM     20  C   LIG    1       25.573 -30.382   7.828  0.00  0.00    +0.328 C 
ATOM     21  N   LIG    1       25.126 -30.506   6.500  0.00  0.00    -0.291 N 
ATOM     22  C   LIG    1       25.853 -31.523   5.871  0.00  0.00    +0.070 A 
ATOM     23  C   LIG    1       26.759 -32.026   6.805  0.00  0.00    +0.067 A 
ATOM     24  C   LIG    1       27.638 -33.041   6.508  0.00  0.00    +0.028 A 
ATOM     25  C   LIG    1       27.586 -33.557   5.209  0.00  0.00    +0.002 A 
ATOM     26  C   LIG    1       26.674 -33.048   4.258  0.00  0.00    +0.002 A 
ATOM     27  C   LIG    1       25.789 -32.015   4.587  0.00  0.00    +0.028 A 
ATOM     28  N   LIG    1       26.590 -31.330   7.998  0.00  0.00    -0.306 N 
ATOM     29  H   LIG    1       27.102 -31.454   8.855  0.00  0.00    +0.170 HD
ENDBRANCH  18  21
ENDBRANCH  17  18
ENDBRANCH   1  17
TORSDOF 5
ENDMDL
MODEL 2
REMARK VINA RESULT:      -8.8      1.309      2.456
REMARK  Name = *****
REMARK                            x       y       z     vdW  Elec       q    Type
REMARK                         _______ _______ _______ _____ _____    ______ ____
ROOT
ATOM      1  N   LIG    1       24.582 -27.170   6.067  0.00  0.00    -0.298 NA
ATOM      2  C   LIG    1       23.870 -26.022   5.457  0.00  0.00    +0.103 C 
ATOM      3  C   LIG    1       23.970 -24.720   6.277  0.00  0.00    +0.120 C 
ATOM      4  N   LIG    1       25.389 -24.355   6.495  0.00  0.00    -0.327 N 
ATOM      5  C   LIG    1       26.133 -25.463   7.134  0.00  0.00    +0.120 C 
ATOM      6  C   LIG    1       25.986 -26.777   6.334  0.00  0.00    +0.103 C 
ENDROOT
BRANCH   4   7
ATOM      7  C   LIG    1       25.601 -23.055   6.980  0.00  0.00    +0.030 A 
ATOM      8  C   LIG    1       26.902 -22.534   7.093  0.00  0.00    +0.035 A 
ATOM      9  C   LIG    1       27.155 -21.232   7.571  0.00  0.00    +0.057 A 
ATOM     10  C   LIG    1       26.078 -20.439   7.974  0.00  0.00    +0.012 A 
ATOM     11  C   LIG    1       24.784 -20.939   7.908  0.00  0.00    +0.002 A 
ATOM     12  C   LIG    1       24.556 -22.230   7.423  0.00  0.00    +0.023 A 
BRANCH   9  13
ATOM     13  C   LIG    1       28.570 -20.720   7.638  0.00  0.00    +0.417 C 
ATOM     14  F   LIG    1       29.144 -20.611   6.406  0.00  0.00    -0.166 F 
ATOM     15  F   LIG    1       29.392 -21.533   8.359  0.00  0.00    -0.166 F 
ATOM     16  F   LIG    1       28.677 -19.486   8.206  0.00  0.00    -0.166 F 
ENDBRANCH   9  13
ENDBRANCH   4   7
BRANCH   1  17
ATOM     17  C   LIG    1       24.566 -28.351   5.175  0.00  0.00    +0.106 C 
BRANCH  17  18
ATOM     18  C   LIG    1       23.993 -29.621   5.832  0.00  0.00    +0.142 C 
BRANCH  18  21
ATOM     19  O   LIG    1       25.910 -31.600   4.677  0.00  0.00    -0.246 OA
ATOM     20  C   LIG    1       25.865 -31.316   5.866  0.00  0.00    +0.328 C 
ATOM     21  N   LIG    1       24.999 -30.405   6.499  0.00  0.00    -0.291 N 
ATOM     22  C   LIG    1       25.292 -30.379   7.868  0.00  0.00    +0.070 A 
ATOM     23  C   LIG    1       26.334 -31.281   8.088  0.00  0.00    +0.067 A 
ATOM     24  C   LIG    1       26.865 -31.505   9.337  0.00  0.00    +0.028 A 
ATOM     25  C   LIG    1       26.308 -30.780  10.395  0.00  0.00    +0.002 A 
ATOM     26  C   LIG    1       25.250 -29.869  10.178  0.00  0.00    +0.002 A 
ATOM     27  C   LIG    1       24.728 -29.659   8.897  0.00  0.00    +0.028 A 
ATOM     28  N   LIG    1       26.682 -31.853   6.869  0.00  0.00    -0.306 N 
ATOM     29  H   LIG    1       27.392 -32.547   6.700  0.00  0.00    +0.170 HD
ENDBRANCH  18  21
ENDBRANCH  17  18
ENDBRANCH   1  17
TORSDOF 5
ENDMDL
MODEL 3
REMARK VINA RESULT:      -8.8      2.775      3.956
REMARK  Name = *****
REMARK                            x       y       z     vdW  Elec       q    Type
REMARK                         _______ _______ _______ _____ _____    ______ ____
ROOT
ATOM      1  N   LIG    1       25.395 -27.482   5.257  0.00  0.00    -0.298 NA
ATOM      2  C   LIG    1       26.497 -26.769   5.945  0.00  0.00    +0.103 C 
ATOM      3  C   LIG    1       26.342 -25.234   5.944  0.00  0.00    +0.120 C 
ATOM      4  N   LIG    1       25.051 -24.846   6.555  0.00  0.00    -0.327 N 
ATOM      5  C   LIG    1       23.916 -25.510   5.877  0.00  0.00    +0.120 C 
ATOM      6  C   LIG    1       24.103 -27.043   5.837  0.00  0.00    +0.103 C 
ENDROOT
BRANCH   4   7
ATOM      7  C   LIG    1       24.925 -23.481   6.862  0.00  0.00    +0.030 A 
ATOM      8  C   LIG    1       24.074 -22.652   6.109  0.00  0.00    +0.035 A 
ATOM      9  C   LIG    1       23.918 -21.279   6.389  0.00  0.00    +0.057 A 
ATOM     10  C   LIG    1       24.653 -20.713   7.433  0.00  0.00    +0.012 A 
ATOM     11  C   LIG    1       25.529 -21.500   8.171  0.00  0.00    +0.002 A 
ATOM     12  C   LIG    1       25.662 -22.861   7.882  0.00  0.00    +0.023 A 
BRANCH   9  13
ATOM     13  C   LIG    1       22.967 -20.451   5.566  0.00  0.00    +0.417 C 
ATOM     14  F   LIG    1       21.855 -21.147   5.195  0.00  0.00    -0.166 F 
ATOM     15  F   LIG    1       23.525 -19.999   4.408  0.00  0.00    -0.166 F 
ATOM     16  F   LIG    1       22.509 -19.342   6.213  0.00  0.00    -0.166 F 
ENDBRANCH   9  13
ENDBRANCH   4   7
BRANCH   1  17
ATOM     17  C   LIG    1       25.526 -28.949   5.405  0.00  0.00    +0.106 C 
BRANCH  17  18
ATOM     18  C   LIG    1       24.654 -29.543   6.527  0.00  0.00    +0.142 C 
BRANCH  18  21
ATOM     19  O   LIG    1       25.286 -32.462   6.608  0.00  0.00    -0.246 OA
ATOM     20  C   LIG    1       25.671 -31.662   7.450  0.00  0.00    +0.328 C 
ATOM     21  N   LIG    1       25.422 -30.278   7.498  0.00  0.00    -0.291 N 
ATOM     22  C   LIG    1       26.056 -29.743   8.626  0.00  0.00    +0.070 A 
ATOM     23  C   LIG    1       26.691 -30.796   9.286  0.00  0.00    +0.067 A 
ATOM     24  C   LIG    1       27.407 -30.615  10.446  0.00  0.00    +0.028 A 
ATOM     25  C   LIG    1       27.473 -29.311  10.946  0.00  0.00    +0.002 A 
ATOM     26  C   LIG    1       26.828 -28.242  10.285  0.00  0.00    +0.002 A 
ATOM     27  C   LIG    1       26.106 -28.453   9.105  0.00  0.00    +0.028 A 
ATOM     28  N   LIG    1       26.456 -31.966   8.571  0.00  0.00    -0.306 N 
ATOM     29  H   LIG    1       26.773 -32.894   8.796  0.00  0.00    +0.170 HD
ENDBRANCH  18  21
ENDBRANCH  17  18
ENDBRANCH   1  17
TORSDOF 5
ENDMDL
MODEL 4
REMARK VINA RESULT:      -8.7      1.824      3.073
REMARK  Name = *****
REMARK                            x       y       z     vdW  Elec       q    Type
REMARK                         _______ _______ _______ _____ _____    ______ ____
ROOT
ATOM      1  N   LIG    1       25.484 -27.760   5.230  0.00  0.00    -0.298 NA
ATOM      2  C   LIG    1       26.486 -27.001   6.016  0.00  0.00    +0.103 C 
ATOM      3  C   LIG    1       26.251 -25.476   6.017  0.00  0.00    +0.120 C 
ATOM      4  N   LIG    1       24.895 -25.163   6.522  0.00  0.00    -0.327 N 
ATOM      5  C   LIG    1       23.857 -25.876   5.743  0.00  0.00    +0.120 C 
ATOM      6  C   LIG    1       24.127 -27.397   5.704  0.00  0.00    +0.103 C 
ENDROOT
BRANCH   4   7
ATOM      7  C   LIG    1       24.672 -23.812   6.830  0.00  0.00    +0.030 A 
ATOM      8  C   LIG    1       25.730 -22.989   7.257  0.00  0.00    +0.035 A 
ATOM      9  C   LIG    1       25.547 -21.627   7.570  0.00  0.00    +0.057 A 
ATOM     10  C   LIG    1       24.266 -21.078   7.482  0.00  0.00    +0.012 A 
ATOM     11  C   LIG    1       23.195 -21.876   7.098  0.00  0.00    +0.002 A 
ATOM     12  C   LIG    1       23.400 -23.222   6.783  0.00  0.00    +0.023 A 
BRANCH   9  13
ATOM     13  C   LIG    1       26.727 -20.790   7.991  0.00  0.00    +0.417 C 
ATOM     14  F   LIG    1       27.799 -21.548   8.360  0.00  0.00    -0.166 F 
ATOM     15  F   LIG    1       26.453 -19.990   9.059  0.00  0.00    -0.166 F 
ATOM     16  F   LIG    1       27.183 -19.959   7.011  0.00  0.00    -0.166 F 
ENDBRANCH   9  13
ENDBRANCH   4   7
BRANCH   1  17
ATOM     17  C   LIG    1       25.678 -29.220   5.375  0.00  0.00    +0.106 C 
BRANCH  17  18
ATOM     18  C   LIG    1       24.823 -29.857   6.486  0.00  0.00    +0.142 C 
BRANCH  18  21
ATOM     19  O   LIG    1       25.727 -32.698   6.688  0.00  0.00    -0.246 OA
ATOM     20  C   LIG    1       25.999 -31.839   7.517  0.00  0.00    +0.328 C 
ATOM     21  N   LIG    1       25.617 -30.485   7.509  0.00  0.00    -0.291 N 
ATOM     22  C   LIG    1       26.150 -29.858   8.641  0.00  0.00    +0.070 A 
ATOM     23  C   LIG    1       26.856 -30.824   9.359  0.00  0.00    +0.067 A 
ATOM     24  C   LIG    1       27.503 -30.541  10.539  0.00  0.00    +0.028 A 
ATOM     25  C   LIG    1       27.424 -29.222  10.998  0.00  0.00    +0.002 A 
ATOM     26  C   LIG    1       26.707 -28.241  10.277  0.00  0.00    +0.002 A 
ATOM     27  C   LIG    1       26.057 -28.555   9.078  0.00  0.00    +0.028 A 
ATOM     28  N   LIG    1       26.763 -32.032   8.676  0.00  0.00    -0.306 N 
ATOM     29  H   LIG    1       27.158 -32.918   8.944  0.00  0.00    +0.170 HD
ENDBRANCH  18  21
ENDBRANCH  17  18
ENDBRANCH   1  17
TORSDOF 5
ENDMDL
MODEL 5
REMARK VINA RESULT:      -8.7      2.752      3.707
REMARK  Name = *****
REMARK                            x       y       z     vdW  Elec       q    Type
REMARK                         _______ _______ _______ _____ _____    ______ ____
ROOT
ATOM      1  N   LIG    1       25.436 -27.026   6.332  0.00  0.00    -0.298 NA
ATOM      2  C   LIG    1       24.175 -26.598   5.681  0.00  0.00    +0.103 C 
ATOM      3  C   LIG    1       23.681 -25.208   6.136  0.00  0.00    +0.120 C 
ATOM      4  N   LIG    1       24.725 -24.187   5.899  0.00  0.00    -0.327 N 
ATOM      5  C   LIG    1       25.996 -24.558   6.560  0.00  0.00    +0.120 C 
ATOM      6  C   LIG    1       26.459 -25.971   6.140  0.00  0.00    +0.103 C 
ENDROOT
BRANCH   4   7
ATOM      7  C   LIG    1       24.291 -22.856   6.011  0.00  0.00    +0.030 A 
ATOM      8  C   LIG    1       24.475 -21.949   4.951  0.00  0.00    +0.035 A 
ATOM      9  C   LIG    1       24.048 -20.608   5.023  0.00  0.00    +0.057 A 
ATOM     10  C   LIG    1       23.446 -20.152   6.198  0.00  0.00    +0.012 A 
ATOM     11  C   LIG    1       23.284 -21.015   7.275  0.00  0.00    +0.002 A 
ATOM     12  C   LIG    1       23.707 -22.343   7.179  0.00  0.00    +0.023 A 
BRANCH   9  13
ATOM     13  C   LIG    1       24.245 -19.695   3.842  0.00  0.00    +0.417 C 
ATOM     14  F   LIG    1       23.269 -18.747   3.747  0.00  0.00    -0.166 F 
ATOM     15  F   LIG    1       24.233 -20.360   2.653  0.00  0.00    -0.166 F 
ATOM     16  F   LIG    1       25.423 -19.010   3.872  0.00  0.00    -0.166 F 
ENDBRANCH   9  13
ENDBRANCH   4   7
BRANCH   1  17
ATOM     17  C   LIG    1       25.932 -28.299   5.762  0.00  0.00    +0.106 C 
BRANCH  17  18
ATOM     18  C   LIG    1       24.822 -29.322   5.458  0.00  0.00    +0.142 C 
BRANCH  18  21
ATOM     19  O   LIG    1       25.985 -31.925   4.565  0.00  0.00    -0.246 OA
ATOM     20  C   LIG    1       25.544 -31.730   5.689  0.00  0.00    +0.328 C 
ATOM     21  N   LIG    1       24.977 -30.547   6.198  0.00  0.00    -0.291 N 
ATOM     22  C   LIG    1       24.611 -30.758   7.532  0.00  0.00    +0.070 A 
ATOM     23  C   LIG    1       24.941 -32.075   7.852  0.00  0.00    +0.067 A 
ATOM     24  C   LIG    1       24.707 -32.614   9.095  0.00  0.00    +0.028 A 
ATOM     25  C   LIG    1       24.113 -31.774  10.042  0.00  0.00    +0.002 A 
ATOM     26  C   LIG    1       23.772 -30.440   9.722  0.00  0.00    +0.002 A 
ATOM     27  C   LIG    1       24.023 -29.916   8.449  0.00  0.00    +0.028 A 
ATOM     28  N   LIG    1       25.508 -32.669   6.729  0.00  0.00    -0.306 N 
ATOM     29  H   LIG    1       25.840 -33.615   6.640  0.00  0.00    +0.170 HD
ENDBRANCH  18  21
ENDBRANCH  17  18
ENDBRANCH   1  17
TORSDOF 5
ENDMDL
MODEL 6
REMARK VINA RESULT:      -8.6      7.421     10.980
REMARK  Name = *****
REMARK                            x       y       z     vdW  Elec       q    Type
REMARK                         _______ _______ _______ _____ _____    ______ ____
ROOT
ATOM      1  N   LIG    1       28.628 -20.442   7.769  0.00  0.00    -0.298 NA
ATOM      2  C   LIG    1       27.679 -21.420   8.351  0.00  0.00    +0.103 C 
ATOM      3  C   LIG    1       26.202 -21.137   8.006  0.00  0.00    +0.120 C 
ATOM      4  N   LIG    1       26.016 -21.089   6.538  0.00  0.00    -0.327 N 
ATOM      5  C   LIG    1       26.923 -20.098   5.916  0.00  0.00    +0.120 C 
ATOM      6  C   LIG    1       28.395 -20.358   6.308  0.00  0.00    +0.103 C 
ENDROOT
BRANCH   4   7
ATOM      7  C   LIG    1       24.680 -21.117   6.107  0.00  0.00    +0.030 A 
ATOM      8  C   LIG    1       24.110 -20.006   5.460  0.00  0.00    +0.035 A 
ATOM      9  C   LIG    1       22.775 -19.998   5.009  0.00  0.00    +0.057 A 
ATOM     10  C   LIG    1       21.978 -21.123   5.235  0.00  0.00    +0.012 A 
ATOM     11  C   LIG    1       22.503 -22.222   5.904  0.00  0.00    +0.002 A 
ATOM     12  C   LIG    1       23.832 -22.212   6.335  0.00  0.00    +0.023 A 
BRANCH   9  13
ATOM     13  C   LIG    1       22.233 -18.789   4.295  0.00  0.00    +0.417 C 
ATOM     14  F   LIG    1       20.946 -18.962   3.878  0.00  0.00    -0.166 F 
ATOM     15  F   LIG    1       22.945 -18.471   3.178  0.00  0.00    -0.166 F 
ATOM     16  F   LIG    1       22.223 -17.661   5.061  0.00  0.00    -0.166 F 
ENDBRANCH   9  13
ENDBRANCH   4   7
BRANCH   1  17
ATOM     17  C   LIG    1       30.032 -20.837   8.019  0.00  0.00    +0.106 C 
BRANCH  17  18
ATOM     18  C   LIG    1       30.613 -20.283   9.334  0.00  0.00    +0.142 C 
BRANCH  18  21
ATOM     19  O   LIG    1       31.911 -19.194   6.873  0.00  0.00    -0.246 OA
ATOM     20  C   LIG    1       31.889 -18.605   7.946  0.00  0.00    +0.328 C 
ATOM     21  N   LIG    1       31.309 -19.037   9.152  0.00  0.00    -0.291 N 
ATOM     22  C   LIG    1       31.508 -18.053  10.128  0.00  0.00    +0.070 A 
ATOM     23  C   LIG    1       32.220 -17.012   9.531  0.00  0.00    +0.067 A 
ATOM     24  C   LIG    1       32.589 -15.880  10.219  0.00  0.00    +0.028 A 
ATOM     25  C   LIG    1       32.216 -15.814  11.565  0.00  0.00    +0.002 A 
ATOM     26  C   LIG    1       31.499 -16.867  12.176  0.00  0.00    +0.002 A 
ATOM     27  C   LIG    1       31.135 -18.008  11.452  0.00  0.00    +0.028 A 
ATOM     28  N   LIG    1       32.454 -17.348   8.201  0.00  0.00    -0.306 N 
ATOM     29  H   LIG    1       32.951 -16.807   7.513  0.00  0.00    +0.170 HD
ENDBRANCH  18  21
ENDBRANCH  17  18
ENDBRANCH   1  17
TORSDOF 5
ENDMDL
MODEL 7
REMARK VINA RESULT:      -8.6      2.479      3.007
REMARK  Name = *****
REMARK                            x       y       z     vdW  Elec       q    Type
REMARK                         _______ _______ _______ _____ _____    ______ ____
ROOT
ATOM      1  N   LIG    1       24.988 -27.726   6.133  0.00  0.00    -0.298 NA
ATOM      2  C   LIG    1       24.253 -26.813   5.226  0.00  0.00    +0.103 C 
ATOM      3  C   LIG    1       23.910 -25.449   5.860  0.00  0.00    +0.120 C 
ATOM      4  N   LIG    1       25.141 -24.778   6.337  0.00  0.00    -0.327 N 
ATOM      5  C   LIG    1       25.892 -25.643   7.274  0.00  0.00    +0.120 C 
ATOM      6  C   LIG    1       26.188 -27.025   6.651  0.00  0.00    +0.103 C 
ENDROOT
BRANCH   4   7
ATOM      7  C   LIG    1       24.987 -23.423   6.673  0.00  0.00    +0.030 A 
ATOM      8  C   LIG    1       24.099 -22.602   5.955  0.00  0.00    +0.035 A 
ATOM      9  C   LIG    1       23.914 -21.239   6.265  0.00  0.00    +0.057 A 
ATOM     10  C   LIG    1       24.657 -20.675   7.304  0.00  0.00    +0.012 A 
ATOM     11  C   LIG    1       25.568 -21.453   8.008  0.00  0.00    +0.002 A 
ATOM     12  C   LIG    1       25.730 -22.804   7.689  0.00  0.00    +0.023 A 
BRANCH   9  13
ATOM     13  C   LIG    1       22.925 -20.420   5.478  0.00  0.00    +0.417 C 
ATOM     14  F   LIG    1       21.791 -21.116   5.181  0.00  0.00    -0.166 F 
ATOM     15  F   LIG    1       23.423 -19.993   4.284  0.00  0.00    -0.166 F 
ATOM     16  F   LIG    1       22.508 -19.297   6.129  0.00  0.00    -0.166 F 
ENDBRANCH   9  13
ENDBRANCH   4   7
BRANCH   1  17
ATOM     17  C   LIG    1       25.407 -28.961   5.433  0.00  0.00    +0.106 C 
BRANCH  17  18
ATOM     18  C   LIG    1       24.572 -30.201   5.800  0.00  0.00    +0.142 C 
BRANCH  18  21
ATOM     19  O   LIG    1       23.621 -29.908   8.618  0.00  0.00    -0.246 OA
ATOM     20  C   LIG    1       24.529 -30.657   8.283  0.00  0.00    +0.328 C 
ATOM     21  N   LIG    1       25.046 -30.858   6.990  0.00  0.00    -0.291 N 
ATOM     22  C   LIG    1       26.073 -31.806   7.056  0.00  0.00    +0.070 A 
ATOM     23  C   LIG    1       26.203 -32.189   8.392  0.00  0.00    +0.067 A 
ATOM     24  C   LIG    1       27.134 -33.111   8.809  0.00  0.00    +0.028 A 
ATOM     25  C   LIG    1       27.960 -33.659   7.823  0.00  0.00    +0.002 A 
ATOM     26  C   LIG    1       27.837 -33.272   6.470  0.00  0.00    +0.002 A 
ATOM     27  C   LIG    1       26.879 -32.332   6.071  0.00  0.00    +0.028 A 
ATOM     28  N   LIG    1       25.263 -31.487   9.141  0.00  0.00    -0.306 N 
ATOM     29  H   LIG    1       25.114 -31.537  10.135  0.00  0.00    +0.170 HD
ENDBRANCH  18  21
ENDBRANCH  17  18
ENDBRANCH   1  17
TORSDOF 5
ENDMDL
MODEL 8
REMARK VINA RESULT:      -8.5      2.153      3.281
REMARK  Name = *****
REMARK                            x       y       z     vdW  Elec       q    Type
REMARK                         _______ _______ _______ _____ _____    ______ ____
ROOT
ATOM      1  N   LIG    1       25.564 -27.855   5.647  0.00  0.00    -0.298 NA
ATOM      2  C   LIG    1       25.903 -27.292   6.976  0.00  0.00    +0.103 C 
ATOM      3  C   LIG    1       25.919 -25.749   7.012  0.00  0.00    +0.120 C 
ATOM      4  N   LIG    1       24.614 -25.209   6.571  0.00  0.00    -0.327 N 
ATOM      5  C   LIG    1       24.249 -25.720   5.231  0.00  0.00    +0.120 C 
ATOM      6  C   LIG    1       24.284 -27.264   5.188  0.00  0.00    +0.103 C 
ENDROOT
BRANCH   4   7
ATOM      7  C   LIG    1       24.419 -23.842   6.828  0.00  0.00    +0.030 A 
ATOM      8  C   LIG    1       25.463 -23.052   7.341  0.00  0.00    +0.035 A 
ATOM      9  C   LIG    1       25.307 -21.676   7.607  0.00  0.00    +0.057 A 
ATOM     10  C   LIG    1       24.064 -21.081   7.382  0.00  0.00    +0.012 A 
ATOM     11  C   LIG    1       23.004 -21.844   6.910  0.00  0.00    +0.002 A 
ATOM     12  C   LIG    1       23.183 -23.205   6.644  0.00  0.00    +0.023 A 
BRANCH   9  13
ATOM     13  C   LIG    1       26.474 -20.877   8.125  0.00  0.00    +0.417 C 
ATOM     14  F   LIG    1       26.944 -19.986   7.208  0.00  0.00    -0.166 F 
ATOM     15  F   LIG    1       27.538 -21.656   8.466  0.00  0.00    -0.166 F 
ATOM     16  F   LIG    1       26.181 -20.143   9.236  0.00  0.00    -0.166 F 
ENDBRANCH   9  13
ENDBRANCH   4   7
BRANCH   1  17
ATOM     17  C   LIG    1       25.431 -29.328   5.703  0.00  0.00    +0.106 C 
BRANCH  17  18
ATOM     18  C   LIG    1       24.011 -29.814   6.050  0.00  0.00    +0.142 C 
BRANCH  18  21
ATOM     19  O   LIG    1       23.755 -32.711   5.363  0.00  0.00    -0.246 OA
ATOM     20  C   LIG    1       23.888 -32.294   6.506  0.00  0.00    +0.328 C 
ATOM     21  N   LIG    1       24.013 -30.957   6.925  0.00  0.00    -0.291 N 
ATOM     22  C   LIG    1       24.153 -30.930   8.317  0.00  0.00    +0.070 A 
ATOM     23  C   LIG    1       24.107 -32.250   8.767  0.00  0.00    +0.067 A 
ATOM     24  C   LIG    1       24.211 -32.582  10.097  0.00  0.00    +0.028 A 
ATOM     25  C   LIG    1       24.366 -31.523  10.997  0.00  0.00    +0.002 A 
ATOM     26  C   LIG    1       24.409 -30.184  10.549  0.00  0.00    +0.002 A 
ATOM     27  C   LIG    1       24.302 -29.874   9.188  0.00  0.00    +0.028 A 
ATOM     28  N   LIG    1       23.944 -33.082   7.663  0.00  0.00    -0.306 N 
ATOM     29  H   LIG    1       23.867 -34.086   7.661  0.00  0.00    +0.170 HD
ENDBRANCH  18  21
ENDBRANCH  17  18
ENDBRANCH   1  17
TORSDOF 5
ENDMDL
MODEL 9
REMARK VINA RESULT:      -8.5      3.035      3.932
REMARK  Name = *****
REMARK                            x       y       z     vdW  Elec       q    Type
REMARK                         _______ _______ _______ _____ _____    ______ ____
ROOT
ATOM      1  N   LIG    1       26.023 -26.660   5.703  0.00  0.00    -0.298 NA
ATOM      2  C   LIG    1       25.851 -25.968   7.003  0.00  0.00    +0.103 C 
ATOM      3  C   LIG    1       25.731 -24.435   6.882  0.00  0.00    +0.120 C 
ATOM      4  N   LIG    1       24.610 -24.074   5.984  0.00  0.00    -0.327 N 
ATOM      5  C   LIG    1       24.758 -24.718   4.659  0.00  0.00    +0.120 C 
ATOM      6  C   LIG    1       24.929 -26.248   4.792  0.00  0.00    +0.103 C 
ENDROOT
BRANCH   4   7
ATOM      7  C   LIG    1       24.232 -22.723   6.019  0.00  0.00    +0.030 A 
ATOM      8  C   LIG    1       24.435 -21.891   4.903  0.00  0.00    +0.035 A 
ATOM      9  C   LIG    1       24.064 -20.531   4.898  0.00  0.00    +0.057 A 
ATOM     10  C   LIG    1       23.499 -19.980   6.051  0.00  0.00    +0.012 A 
ATOM     11  C   LIG    1       23.319 -20.768   7.181  0.00  0.00    +0.002 A 
ATOM     12  C   LIG    1       23.687 -22.117   7.161  0.00  0.00    +0.023 A 
BRANCH   9  13
ATOM     13  C   LIG    1       24.278 -19.701   3.661  0.00  0.00    +0.417 C 
ATOM     14  F   LIG    1       25.454 -19.011   3.692  0.00  0.00    -0.166 F 
ATOM     15  F   LIG    1       23.305 -18.765   3.476  0.00  0.00    -0.166 F 
ATOM     16  F   LIG    1       24.311 -20.433   2.511  0.00  0.00    -0.166 F 
ENDBRANCH   9  13
ENDBRANCH   4   7
BRANCH   1  17
ATOM     17  C   LIG    1       25.997 -28.130   5.866  0.00  0.00    +0.106 C 
BRANCH  17  18
ATOM     18  C   LIG    1       24.668 -28.673   6.425  0.00  0.00    +0.142 C 
BRANCH  18  21
ATOM     19  O   LIG    1       23.611 -31.468   6.453  0.00  0.00    -0.246 OA
ATOM     20  C   LIG    1       24.320 -31.002   7.335  0.00  0.00    +0.328 C 
ATOM     21  N   LIG    1       24.860 -29.705   7.410  0.00  0.00    -0.291 N 
ATOM     22  C   LIG    1       25.617 -29.597   8.582  0.00  0.00    +0.070 A 
ATOM     23  C   LIG    1       25.542 -30.824   9.242  0.00  0.00    +0.067 A 
ATOM     24  C   LIG    1       26.175 -31.059  10.440  0.00  0.00    +0.028 A 
ATOM     25  C   LIG    1       26.909 -29.998  10.980  0.00  0.00    +0.002 A 
ATOM     26  C   LIG    1       26.985 -28.752  10.319  0.00  0.00    +0.002 A 
ATOM     27  C   LIG    1       26.332 -28.540   9.100  0.00  0.00    +0.028 A 
ATOM     28  N   LIG    1       24.751 -31.681   8.483  0.00  0.00    -0.306 N 
ATOM     29  H   LIG    1       24.501 -32.632   8.697  0.00  0.00    +0.170 HD
ENDBRANCH  18  21
ENDBRANCH  17  18
ENDBRANCH   1  17
TORSDOF 5
ENDMDL
