MODEL 1
REMARK VINA RESULT:      -6.2      0.000      0.000
REMARK  Name = *****
REMARK                            x       y       z     vdW  Elec       q    Type
REMARK                         _______ _______ _______ _____ _____    ______ ____
ROOT
ATOM      1  C   LIG    1       24.399 -29.477   7.726  0.00  0.00    +0.011 C 
ATOM      2  C   LIG    1       24.125 -30.578   8.748  0.00  0.00    +0.027 C 
ATOM      3  C   LIG    1       25.355 -31.006   9.598  0.00  0.00    +0.142 C 
ATOM      4  C   LIG    1       24.680 -31.580  10.895  0.00  0.00    +0.010 C 
ATOM      5  C   LIG    1       23.532 -30.568  11.161  0.00  0.00    +0.005 C 
ATOM      6  C   LIG    1       23.873 -29.305  12.002  0.00  0.00    +0.036 C 
ATOM      7  C   LIG    1       24.802 -29.568  13.212  0.00  0.00    +0.153 C 
ATOM      8  C   LIG    1       26.020 -30.424  12.808  0.00  0.00    +0.154 C 
ATOM      9  F   LIG    1       24.061 -30.360  14.073  0.00  0.00    -0.238 F 
ATOM     10  C   LIG    1       25.147 -28.213  13.993  0.00  0.00    +0.047 C 
ATOM     11  C   LIG    1       23.959 -27.242  13.876  0.00  0.00    -0.020 C 
ATOM     12  C   LIG    1       24.078 -25.915  13.698  0.00  0.00    +0.054 C 
ATOM     13  C   LIG    1       25.399 -25.286  13.495  0.00  0.00    +0.179 C 
ATOM     14  C   LIG    1       26.549 -26.198  13.320  0.00  0.00    +0.047 C 
ATOM     15  O   LIG    1       25.525 -24.075  13.407  0.00  0.00    -0.288 OA
ATOM     16  C   LIG    1       22.621 -27.910  13.804  0.00  0.00    +0.194 C 
ATOM     17  F   LIG    1       21.597 -27.013  13.858  0.00  0.00    -0.241 F 
ATOM     18  C   LIG    1       25.358 -28.502  15.500  0.00  0.00    +0.023 C 
ATOM     19  C   LIG    1       26.425 -27.519  13.524  0.00  0.00    -0.009 C 
ATOM     20  C   LIG    1       22.535 -28.647  12.469  0.00  0.00    +0.048 C 
ATOM     21  C   LIG    1       24.043 -32.978  10.646  0.00  0.00    +0.015 C 
ATOM     22  C   LIG    1       25.596 -31.725  12.127  0.00  0.00    +0.044 C 
ATOM     23  C   LIG    1       23.038 -30.161   9.755  0.00  0.00    +0.011 C 
ENDROOT
BRANCH   3  24
ATOM     24  O   LIG    1       26.081 -29.831   9.951  0.00  0.00    -0.379 OA
ATOM     25  H   LIG    1       25.976 -29.172   9.233  0.00  0.00    +0.211 HD
ENDBRANCH   3  24
BRANCH   3  26
ATOM     26  C   LIG    1       26.206 -32.060   8.817  0.00  0.00    +0.224 C 
ATOM     27  O   LIG    1       27.343 -32.395   9.125  0.00  0.00    -0.282 OA
BRANCH  26  28
ATOM     28  S   LIG    1       25.443 -32.800   7.413  0.00  0.00    -0.052 S 
BRANCH  28  29
ATOM     29  C   LIG    1       26.691 -32.325   6.210  0.00  0.00    +0.290 C 
ATOM     30  F   LIG    1       26.275 -31.205   5.556  0.00  0.00    -0.237 F 
ENDBRANCH  28  29
ENDBRANCH  26  28
ENDBRANCH   3  26
BRANCH   8  31
ATOM     31  O   LIG    1       26.803 -30.780  13.955  0.00  0.00    -0.389 OA
ATOM     32  H   LIG    1       27.642 -30.285  13.894  0.00  0.00    +0.210 HD
ENDBRANCH   8  31
TORSDOF 5
ENDMDL
MODEL 2
REMARK VINA RESULT:      -6.0      3.536      6.528
REMARK  Name = *****
REMARK                            x       y       z     vdW  Elec       q    Type
REMARK                         _______ _______ _______ _____ _____    ______ ____
ROOT
ATOM      1  C   LIG    1       20.687 -26.674  12.884  0.00  0.00    +0.011 C 
ATOM      2  C   LIG    1       21.356 -27.753  13.732  0.00  0.00    +0.027 C 
ATOM      3  C   LIG    1       21.093 -29.214  13.266  0.00  0.00    +0.142 C 
ATOM      4  C   LIG    1       22.341 -29.976  13.835  0.00  0.00    +0.010 C 
ATOM      5  C   LIG    1       23.506 -28.987  13.552  0.00  0.00    +0.005 C 
ATOM      6  C   LIG    1       24.195 -29.074  12.160  0.00  0.00    +0.036 C 
ATOM      7  C   LIG    1       24.426 -30.515  11.645  0.00  0.00    +0.153 C 
ATOM      8  C   LIG    1       23.151 -31.373  11.789  0.00  0.00    +0.154 C 
ATOM      9  F   LIG    1       25.348 -31.070  12.516  0.00  0.00    -0.238 F 
ATOM     10  C   LIG    1       25.089 -30.518  10.187  0.00  0.00    +0.047 C 
ATOM     11  C   LIG    1       25.989 -29.279  10.036  0.00  0.00    -0.020 C 
ATOM     12  C   LIG    1       26.089 -28.546   8.913  0.00  0.00    +0.054 C 
ATOM     13  C   LIG    1       25.240 -28.827   7.739  0.00  0.00    +0.179 C 
ATOM     14  C   LIG    1       24.165 -29.825   7.920  0.00  0.00    +0.047 C 
ATOM     15  O   LIG    1       25.375 -28.216   6.690  0.00  0.00    -0.288 OA
ATOM     16  C   LIG    1       26.639 -28.830  11.308  0.00  0.00    +0.194 C 
ATOM     17  F   LIG    1       27.542 -27.831  11.097  0.00  0.00    -0.241 F 
ATOM     18  C   LIG    1       25.991 -31.765  10.012  0.00  0.00    +0.023 C 
ATOM     19  C   LIG    1       24.088 -30.568   9.034  0.00  0.00    -0.009 C 
ATOM     20  C   LIG    1       25.546 -28.293  12.230  0.00  0.00    +0.048 C 
ATOM     21  C   LIG    1       22.245 -30.178  15.375  0.00  0.00    +0.015 C 
ATOM     22  C   LIG    1       22.624 -31.364  13.224  0.00  0.00    +0.044 C 
ATOM     23  C   LIG    1       22.887 -27.587  13.759  0.00  0.00    +0.011 C 
ENDROOT
BRANCH   3  24
ATOM     24  O   LIG    1       21.157 -29.243  11.842  0.00  0.00    -0.379 OA
ATOM     25  H   LIG    1       21.054 -28.328  11.506  0.00  0.00    +0.211 HD
ENDBRANCH   3  24
BRANCH   3  26
ATOM     26  C   LIG    1       19.732 -29.723  13.844  0.00  0.00    +0.224 C 
ATOM     27  O   LIG    1       19.131 -30.707  13.431  0.00  0.00    -0.282 OA
BRANCH  26  28
ATOM     28  S   LIG    1       19.053 -28.801  15.182  0.00  0.00    -0.052 S 
BRANCH  28  29
ATOM     29  C   LIG    1       17.493 -28.385  14.391  0.00  0.00    +0.290 C 
ATOM     30  F   LIG    1       17.525 -27.080  14.004  0.00  0.00    -0.237 F 
ENDBRANCH  28  29
ENDBRANCH  26  28
ENDBRANCH   3  26
BRANCH   8  31
ATOM     31  O   LIG    1       23.408 -32.740  11.440  0.00  0.00    -0.389 OA
ATOM     32  H   LIG    1       24.159 -32.740  10.818  0.00  0.00    +0.210 HD
ENDBRANCH   8  31
TORSDOF 5
ENDMDL
MODEL 3
REMARK VINA RESULT:      -5.9      3.494      6.308
REMARK  Name = *****
REMARK                            x       y       z     vdW  Elec       q    Type
REMARK                         _______ _______ _______ _____ _____    ______ ____
ROOT
ATOM      1  C   LIG    1       20.670 -26.722  12.886  0.00  0.00    +0.011 C 
ATOM      2  C   LIG    1       21.339 -27.813  13.719  0.00  0.00    +0.027 C 
ATOM      3  C   LIG    1       21.088 -29.266  13.223  0.00  0.00    +0.142 C 
ATOM      4  C   LIG    1       22.336 -30.032  13.788  0.00  0.00    +0.010 C 
ATOM      5  C   LIG    1       23.498 -29.031  13.534  0.00  0.00    +0.005 C 
ATOM      6  C   LIG    1       24.199 -29.088  12.147  0.00  0.00    +0.036 C 
ATOM      7  C   LIG    1       24.442 -30.518  11.606  0.00  0.00    +0.153 C 
ATOM      8  C   LIG    1       23.172 -31.385  11.724  0.00  0.00    +0.154 C 
ATOM      9  F   LIG    1       25.361 -31.083  12.474  0.00  0.00    -0.238 F 
ATOM     10  C   LIG    1       25.118 -30.489  10.154  0.00  0.00    +0.047 C 
ATOM     11  C   LIG    1       26.012 -29.243  10.034  0.00  0.00    -0.020 C 
ATOM     12  C   LIG    1       26.117 -28.488   8.926  0.00  0.00    +0.054 C 
ATOM     13  C   LIG    1       25.279 -28.751   7.740  0.00  0.00    +0.179 C 
ATOM     14  C   LIG    1       24.209 -29.759   7.893  0.00  0.00    +0.047 C 
ATOM     15  O   LIG    1       25.419 -28.120   6.704  0.00  0.00    -0.288 OA
ATOM     16  C   LIG    1       26.649 -28.813  11.320  0.00  0.00    +0.194 C 
ATOM     17  F   LIG    1       27.547 -27.806  11.136  0.00  0.00    -0.241 F 
ATOM     18  C   LIG    1       26.029 -31.727   9.963  0.00  0.00    +0.023 C 
ATOM     19  C   LIG    1       24.127 -30.524   8.992  0.00  0.00    -0.009 C 
ATOM     20  C   LIG    1       25.545 -28.300  12.242  0.00  0.00    +0.048 C 
ATOM     21  C   LIG    1       22.228 -30.264  15.323  0.00  0.00    +0.015 C 
ATOM     22  C   LIG    1       22.632 -31.406  13.154  0.00  0.00    +0.044 C 
ATOM     23  C   LIG    1       22.868 -27.638  13.762  0.00  0.00    +0.011 C 
ENDROOT
BRANCH   3  24
ATOM     24  O   LIG    1       21.165 -29.268  11.799  0.00  0.00    -0.379 OA
ATOM     25  H   LIG    1       20.396 -29.761  11.446  0.00  0.00    +0.211 HD
ENDBRANCH   3  24
BRANCH   3  26
ATOM     26  C   LIG    1       19.726 -29.793  13.780  0.00  0.00    +0.224 C 
ATOM     27  O   LIG    1       19.150 -29.326  14.755  0.00  0.00    -0.282 OA
BRANCH  26  28
ATOM     28  S   LIG    1       18.994 -31.143  12.916  0.00  0.00    -0.052 S 
BRANCH  28  29
ATOM     29  C   LIG    1       17.280 -30.680  13.199  0.00  0.00    +0.290 C 
ATOM     30  F   LIG    1       16.589 -30.798  12.032  0.00  0.00    -0.237 F 
ENDBRANCH  28  29
ENDBRANCH  26  28
ENDBRANCH   3  26
BRANCH   8  31
ATOM     31  O   LIG    1       23.439 -32.744  11.351  0.00  0.00    -0.389 OA
ATOM     32  H   LIG    1       22.964 -32.909  10.514  0.00  0.00    +0.210 HD
ENDBRANCH   8  31
TORSDOF 5
ENDMDL
MODEL 4
REMARK VINA RESULT:      -5.8      3.469      5.907
REMARK  Name = *****
REMARK                            x       y       z     vdW  Elec       q    Type
REMARK                         _______ _______ _______ _____ _____    ______ ____
ROOT
ATOM      1  C   LIG    1       20.711 -28.061  12.641  0.00  0.00    +0.011 C 
ATOM      2  C   LIG    1       21.430 -29.340  13.066  0.00  0.00    +0.027 C 
ATOM      3  C   LIG    1       21.263 -30.543  12.094  0.00  0.00    +0.142 C 
ATOM      4  C   LIG    1       22.545 -31.396  12.396  0.00  0.00    +0.010 C 
ATOM      5  C   LIG    1       23.653 -30.316  12.534  0.00  0.00    +0.005 C 
ATOM      6  C   LIG    1       24.370 -29.857  11.232  0.00  0.00    +0.036 C 
ATOM      7  C   LIG    1       24.696 -30.999  10.239  0.00  0.00    +0.153 C 
ATOM      8  C   LIG    1       23.473 -31.914  10.016  0.00  0.00    +0.154 C 
ATOM      9  F   LIG    1       25.635 -31.785  10.886  0.00  0.00    -0.238 F 
ATOM     10  C   LIG    1       25.383 -30.440   8.906  0.00  0.00    +0.047 C 
ATOM     11  C   LIG    1       26.209 -29.187   9.246  0.00  0.00    -0.020 C 
ATOM     12  C   LIG    1       26.284 -28.092   8.469  0.00  0.00    +0.054 C 
ATOM     13  C   LIG    1       25.473 -27.970   7.241  0.00  0.00    +0.179 C 
ATOM     14  C   LIG    1       24.458 -29.018   7.009  0.00  0.00    +0.047 C 
ATOM     15  O   LIG    1       25.589 -27.015   6.490  0.00  0.00    -0.288 OA
ATOM     16  C   LIG    1       26.809 -29.198  10.618  0.00  0.00    +0.194 C 
ATOM     17  F   LIG    1       27.653 -28.147  10.817  0.00  0.00    -0.241 F 
ATOM     18  C   LIG    1       26.362 -31.491   8.326  0.00  0.00    +0.023 C 
ATOM     19  C   LIG    1       24.407 -30.118   7.775  0.00  0.00    -0.009 C 
ATOM     20  C   LIG    1       25.670 -29.088  11.630  0.00  0.00    +0.048 C 
ATOM     21  C   LIG    1       22.435 -32.148  13.754  0.00  0.00    +0.015 C 
ATOM     22  C   LIG    1       22.921 -32.452  11.336  0.00  0.00    +0.044 C 
ATOM     23  C   LIG    1       22.947 -29.118  13.209  0.00  0.00    +0.011 C 
ENDROOT
BRANCH   3  24
ATOM     24  O   LIG    1       21.354 -30.050  10.760  0.00  0.00    -0.379 OA
ATOM     25  H   LIG    1       20.891 -29.187  10.713  0.00  0.00    +0.211 HD
ENDBRANCH   3  24
BRANCH   3  26
ATOM     26  C   LIG    1       19.926 -31.294  12.397  0.00  0.00    +0.224 C 
ATOM     27  O   LIG    1       19.248 -31.120  13.403  0.00  0.00    -0.282 OA
BRANCH  26  28
ATOM     28  S   LIG    1       19.383 -32.452  11.186  0.00  0.00    -0.052 S 
BRANCH  28  29
ATOM     29  C   LIG    1       17.961 -31.515  10.610  0.00  0.00    +0.290 C 
ATOM     30  F   LIG    1       18.336 -30.739   9.556  0.00  0.00    -0.237 F 
ENDBRANCH  28  29
ENDBRANCH  26  28
ENDBRANCH   3  26
BRANCH   8  31
ATOM     31  O   LIG    1       23.817 -33.046   9.207  0.00  0.00    -0.389 OA
ATOM     32  H   LIG    1       23.268 -33.792   9.512  0.00  0.00    +0.210 HD
ENDBRANCH   8  31
TORSDOF 5
ENDMDL
MODEL 5
REMARK VINA RESULT:      -5.5      2.392      3.664
REMARK  Name = *****
REMARK                            x       y       z     vdW  Elec       q    Type
REMARK                         _______ _______ _______ _____ _____    ______ ____
ROOT
ATOM      1  C   LIG    1       25.408 -29.552   5.211  0.00  0.00    +0.011 C 
ATOM      2  C   LIG    1       24.781 -30.867   5.668  0.00  0.00    +0.027 C 
ATOM      3  C   LIG    1       25.767 -31.869   6.334  0.00  0.00    +0.142 C 
ATOM      4  C   LIG    1       24.811 -32.729   7.235  0.00  0.00    +0.010 C 
ATOM      5  C   LIG    1       23.851 -31.663   7.831  0.00  0.00    +0.005 C 
ATOM      6  C   LIG    1       24.299 -30.947   9.138  0.00  0.00    +0.036 C 
ATOM      7  C   LIG    1       24.971 -31.872  10.181  0.00  0.00    +0.153 C 
ATOM      8  C   LIG    1       26.050 -32.762   9.528  0.00  0.00    +0.154 C 
ATOM      9  F   LIG    1       23.974 -32.740  10.593  0.00  0.00    -0.238 F 
ATOM     10  C   LIG    1       25.450 -31.053  11.470  0.00  0.00    +0.047 C 
ATOM     11  C   LIG    1       24.499 -29.864  11.699  0.00  0.00    -0.020 C 
ATOM     12  C   LIG    1       24.895 -28.641  12.094  0.00  0.00    +0.054 C 
ATOM     13  C   LIG    1       26.326 -28.312  12.244  0.00  0.00    +0.179 C 
ATOM     14  C   LIG    1       27.293 -29.326  11.774  0.00  0.00    +0.047 C 
ATOM     15  O   LIG    1       26.693 -27.230  12.673  0.00  0.00    -0.288 OA
ATOM     16  C   LIG    1       23.084 -30.117  11.281  0.00  0.00    +0.194 C 
ATOM     17  F   LIG    1       22.253 -29.099  11.643  0.00  0.00    -0.241 F 
ATOM     18  C   LIG    1       25.376 -31.949  12.732  0.00  0.00    +0.023 C 
ATOM     19  C   LIG    1       26.891 -30.551  11.405  0.00  0.00    -0.009 C 
ATOM     20  C   LIG    1       23.057 -30.231   9.758  0.00  0.00    +0.048 C 
ATOM     21  C   LIG    1       23.962 -33.726   6.395  0.00  0.00    +0.015 C 
ATOM     22  C   LIG    1       25.491 -33.554   8.347  0.00  0.00    +0.044 C 
ATOM     23  C   LIG    1       23.657 -30.634   6.694  0.00  0.00    +0.011 C 
ENDROOT
BRANCH   3  24
ATOM     24  O   LIG    1       26.644 -31.131   7.182  0.00  0.00    -0.379 OA
ATOM     25  H   LIG    1       27.357 -30.744   6.632  0.00  0.00    +0.211 HD
ENDBRANCH   3  24
BRANCH   3  26
ATOM     26  C   LIG    1       26.507 -32.701   5.236  0.00  0.00    +0.224 C 
ATOM     27  O   LIG    1       27.551 -33.314   5.421  0.00  0.00    -0.282 OA
BRANCH  26  28
ATOM     28  S   LIG    1       25.755 -32.745   3.644  0.00  0.00    -0.052 S 
BRANCH  28  29
ATOM     29  C   LIG    1       27.198 -33.320   2.737  0.00  0.00    +0.290 C 
ATOM     30  F   LIG    1       27.564 -32.368   1.835  0.00  0.00    -0.237 F 
ENDBRANCH  28  29
ENDBRANCH  26  28
ENDBRANCH   3  26
BRANCH   8  31
ATOM     31  O   LIG    1       26.572 -33.711  10.467  0.00  0.00    -0.389 OA
ATOM     32  H   LIG    1       26.871 -34.486   9.954  0.00  0.00    +0.210 HD
ENDBRANCH   8  31
TORSDOF 5
ENDMDL
MODEL 6
REMARK VINA RESULT:      -5.0      2.512      3.531
REMARK  Name = *****
REMARK                            x       y       z     vdW  Elec       q    Type
REMARK                         _______ _______ _______ _____ _____    ______ ____
ROOT
ATOM      1  C   LIG    1       22.200 -32.857   9.124  0.00  0.00    +0.011 C 
ATOM      2  C   LIG    1       23.713 -32.743   8.946  0.00  0.00    +0.027 C 
ATOM      3  C   LIG    1       24.220 -31.337   8.514  0.00  0.00    +0.142 C 
ATOM      4  C   LIG    1       25.698 -31.339   9.042  0.00  0.00    +0.010 C 
ATOM      5  C   LIG    1       25.565 -32.015  10.435  0.00  0.00    +0.005 C 
ATOM      6  C   LIG    1       25.225 -31.099  11.645  0.00  0.00    +0.036 C 
ATOM      7  C   LIG    1       25.963 -29.739  11.650  0.00  0.00    +0.153 C 
ATOM      8  C   LIG    1       25.878 -29.049  10.273  0.00  0.00    +0.154 C 
ATOM      9  F   LIG    1       27.301 -30.052  11.827  0.00  0.00    -0.238 F 
ATOM     10  C   LIG    1       25.521 -28.835  12.896  0.00  0.00    +0.047 C 
ATOM     11  C   LIG    1       25.159 -29.746  14.082  0.00  0.00    -0.020 C 
ATOM     12  C   LIG    1       24.133 -29.526  14.923  0.00  0.00    +0.054 C 
ATOM     13  C   LIG    1       23.189 -28.413  14.702  0.00  0.00    +0.179 C 
ATOM     14  C   LIG    1       23.321 -27.673  13.429  0.00  0.00    +0.047 C 
ATOM     15  O   LIG    1       22.300 -28.159  15.499  0.00  0.00    -0.288 OA
ATOM     16  C   LIG    1       25.943 -31.021  14.143  0.00  0.00    +0.194 C 
ATOM     17  F   LIG    1       25.699 -31.718  15.287  0.00  0.00    -0.241 F 
ATOM     18  C   LIG    1       26.697 -27.935  13.350  0.00  0.00    +0.023 C 
ATOM     19  C   LIG    1       24.361 -27.883  12.608  0.00  0.00    -0.009 C 
ATOM     20  C   LIG    1       25.519 -31.889  12.960  0.00  0.00    +0.048 C 
ATOM     21  C   LIG    1       26.626 -32.226   8.163  0.00  0.00    +0.015 C 
ATOM     22  C   LIG    1       26.379 -29.960   9.152  0.00  0.00    +0.044 C 
ATOM     23  C   LIG    1       24.466 -33.085  10.245  0.00  0.00    +0.011 C 
ENDROOT
BRANCH   3  24
ATOM     24  O   LIG    1       23.482 -30.358   9.242  0.00  0.00    -0.379 OA
ATOM     25  H   LIG    1       23.526 -30.579  10.196  0.00  0.00    +0.211 HD
ENDBRANCH   3  24
BRANCH   3  26
ATOM     26  C   LIG    1       24.110 -31.182   6.963  0.00  0.00    +0.224 C 
ATOM     27  O   LIG    1       24.052 -32.120   6.176  0.00  0.00    -0.282 OA
BRANCH  26  28
ATOM     28  S   LIG    1       24.056 -29.535   6.340  0.00  0.00    -0.052 S 
BRANCH  28  29
ATOM     29  C   LIG    1       25.575 -29.616   5.380  0.00  0.00    +0.290 C 
ATOM     30  F   LIG    1       25.951 -28.352   5.037  0.00  0.00    -0.237 F 
ENDBRANCH  28  29
ENDBRANCH  26  28
ENDBRANCH   3  26
BRANCH   8  31
ATOM     31  O   LIG    1       26.677 -27.859  10.242  0.00  0.00    -0.389 OA
ATOM     32  H   LIG    1       26.897 -27.687   9.307  0.00  0.00    +0.210 HD
ENDBRANCH   8  31
TORSDOF 5
ENDMDL
MODEL 7
REMARK VINA RESULT:      -4.9      2.317      3.330
REMARK  Name = *****
REMARK                            x       y       z     vdW  Elec       q    Type
REMARK                         _______ _______ _______ _____ _____    ______ ____
ROOT
ATOM      1  C   LIG    1       22.528 -32.668   8.873  0.00  0.00    +0.011 C 
ATOM      2  C   LIG    1       24.051 -32.560   8.907  0.00  0.00    +0.027 C 
ATOM      3  C   LIG    1       24.616 -31.141   8.614  0.00  0.00    +0.142 C 
ATOM      4  C   LIG    1       26.009 -31.181   9.337  0.00  0.00    +0.010 C 
ATOM      5  C   LIG    1       25.686 -31.919  10.666  0.00  0.00    +0.005 C 
ATOM      6  C   LIG    1       25.187 -31.056  11.860  0.00  0.00    +0.036 C 
ATOM      7  C   LIG    1       25.922 -29.705  12.029  0.00  0.00    +0.153 C 
ATOM      8  C   LIG    1       26.027 -28.951  10.687  0.00  0.00    +0.154 C 
ATOM      9  F   LIG    1       27.222 -30.039  12.371  0.00  0.00    -0.238 F 
ATOM     10  C   LIG    1       25.317 -28.856  13.245  0.00  0.00    +0.047 C 
ATOM     11  C   LIG    1       24.795 -29.817  14.327  0.00  0.00    -0.020 C 
ATOM     12  C   LIG    1       23.665 -29.627  15.030  0.00  0.00    +0.054 C 
ATOM     13  C   LIG    1       22.763 -28.495  14.735  0.00  0.00    +0.179 C 
ATOM     14  C   LIG    1       23.069 -27.699  13.529  0.00  0.00    +0.047 C 
ATOM     15  O   LIG    1       21.774 -28.271  15.416  0.00  0.00    -0.288 OA
ATOM     16  C   LIG    1       25.559 -31.100  14.433  0.00  0.00    +0.194 C 
ATOM     17  F   LIG    1       25.161 -31.848  15.500  0.00  0.00    -0.241 F 
ATOM     18  C   LIG    1       26.424 -27.989  13.896  0.00  0.00    +0.023 C 
ATOM     19  C   LIG    1       24.210 -27.880  12.848  0.00  0.00    -0.009 C 
ATOM     20  C   LIG    1       25.298 -31.909  13.164  0.00  0.00    +0.048 C 
ATOM     21  C   LIG    1       27.045 -32.035   8.552  0.00  0.00    +0.015 C 
ATOM     22  C   LIG    1       26.673 -29.814   9.603  0.00  0.00    +0.044 C 
ATOM     23  C   LIG    1       24.619 -32.968  10.278  0.00  0.00    +0.011 C 
ENDROOT
BRANCH   3  24
ATOM     24  O   LIG    1       23.789 -30.189   9.281  0.00  0.00    -0.379 OA
ATOM     25  H   LIG    1       23.883 -29.324   8.830  0.00  0.00    +0.211 HD
ENDBRANCH   3  24
BRANCH   3  26
ATOM     26  C   LIG    1       24.718 -30.913   7.071  0.00  0.00    +0.224 C 
ATOM     27  O   LIG    1       24.959 -29.832   6.547  0.00  0.00    -0.282 OA
BRANCH  26  28
ATOM     28  S   LIG    1       24.476 -32.327   6.050  0.00  0.00    -0.052 S 
BRANCH  28  29
ATOM     29  C   LIG    1       25.753 -31.947   4.843  0.00  0.00    +0.290 C 
ATOM     30  F   LIG    1       26.913 -32.556   5.217  0.00  0.00    -0.237 F 
ENDBRANCH  28  29
ENDBRANCH  26  28
ENDBRANCH   3  26
BRANCH   8  31
ATOM     31  O   LIG    1       26.827 -27.769  10.821  0.00  0.00    -0.389 OA
ATOM     32  H   LIG    1       27.349 -27.683  10.001  0.00  0.00    +0.210 HD
ENDBRANCH   8  31
TORSDOF 5
ENDMDL
MODEL 8
REMARK VINA RESULT:      -4.7      2.758      4.246
REMARK  Name = *****
REMARK                            x       y       z     vdW  Elec       q    Type
REMARK                         _______ _______ _______ _____ _____    ______ ____
ROOT
ATOM      1  C   LIG    1       22.919 -32.857   7.427  0.00  0.00    +0.011 C 
ATOM      2  C   LIG    1       24.264 -32.601   8.104  0.00  0.00    +0.027 C 
ATOM      3  C   LIG    1       24.589 -31.104   8.375  0.00  0.00    +0.142 C 
ATOM      4  C   LIG    1       25.593 -31.193   9.578  0.00  0.00    +0.010 C 
ATOM      5  C   LIG    1       24.964 -32.300  10.470  0.00  0.00    +0.005 C 
ATOM      6  C   LIG    1       23.893 -31.858  11.508  0.00  0.00    +0.036 C 
ATOM      7  C   LIG    1       24.216 -30.536  12.244  0.00  0.00    +0.153 C 
ATOM      8  C   LIG    1       24.650 -29.434  11.254  0.00  0.00    +0.154 C 
ATOM      9  F   LIG    1       25.338 -30.810  13.008  0.00  0.00    -0.238 F 
ATOM     10  C   LIG    1       23.044 -30.124  13.254  0.00  0.00    +0.047 C 
ATOM     11  C   LIG    1       22.371 -31.396  13.798  0.00  0.00    -0.020 C 
ATOM     12  C   LIG    1       21.048 -31.529  14.000  0.00  0.00    +0.054 C 
ATOM     13  C   LIG    1       20.105 -30.463  13.607  0.00  0.00    +0.179 C 
ATOM     14  C   LIG    1       20.662 -29.337  12.829  0.00  0.00    +0.047 C 
ATOM     15  O   LIG    1       18.912 -30.542  13.854  0.00  0.00    -0.288 OA
ATOM     16  C   LIG    1       23.291 -32.570  13.935  0.00  0.00    +0.194 C 
ATOM     17  F   LIG    1       22.691 -33.621  14.561  0.00  0.00    -0.241 F 
ATOM     18  C   LIG    1       23.626 -29.358  14.468  0.00  0.00    +0.023 C 
ATOM     19  C   LIG    1       21.985 -29.201  12.654  0.00  0.00    -0.009 C 
ATOM     20  C   LIG    1       23.689 -33.021  12.531  0.00  0.00    +0.048 C 
ATOM     21  C   LIG    1       26.999 -31.682   9.125  0.00  0.00    +0.015 C 
ATOM     22  C   LIG    1       25.813 -29.891  10.374  0.00  0.00    +0.044 C 
ATOM     23  C   LIG    1       24.358 -33.309   9.468  0.00  0.00    +0.011 C 
ENDROOT
BRANCH   3  24
ATOM     24  O   LIG    1       23.397 -30.467   8.828  0.00  0.00    -0.379 OA
ATOM     25  H   LIG    1       23.171 -29.745   8.204  0.00  0.00    +0.211 HD
ENDBRANCH   3  24
BRANCH   3  26
ATOM     26  C   LIG    1       25.203 -30.450   7.095  0.00  0.00    +0.224 C 
ATOM     27  O   LIG    1       25.701 -31.078   6.168  0.00  0.00    -0.282 OA
BRANCH  26  28
ATOM     28  S   LIG    1       25.150 -28.691   7.009  0.00  0.00    -0.052 S 
BRANCH  28  29
ATOM     29  C   LIG    1       24.428 -28.575   5.366  0.00  0.00    +0.290 C 
ATOM     30  F   LIG    1       25.150 -27.690   4.625  0.00  0.00    -0.237 F 
ENDBRANCH  28  29
ENDBRANCH  26  28
ENDBRANCH   3  26
BRANCH   8  31
ATOM     31  O   LIG    1       25.080 -28.256  11.949  0.00  0.00    -0.389 OA
ATOM     32  H   LIG    1       24.887 -28.397  12.895  0.00  0.00    +0.210 HD
ENDBRANCH   8  31
TORSDOF 5
ENDMDL
MODEL 9
REMARK VINA RESULT:      -4.7      1.929      2.765
REMARK  Name = *****
REMARK                            x       y       z     vdW  Elec       q    Type
REMARK                         _______ _______ _______ _____ _____    ______ ____
ROOT
ATOM      1  C   LIG    1       25.616 -28.885   6.496  0.00  0.00    +0.011 C 
ATOM      2  C   LIG    1       24.898 -30.201   6.784  0.00  0.00    +0.027 C 
ATOM      3  C   LIG    1       25.771 -31.290   7.470  0.00  0.00    +0.142 C 
ATOM      4  C   LIG    1       24.696 -32.171   8.200  0.00  0.00    +0.010 C 
ATOM      5  C   LIG    1       23.715 -31.110   8.772  0.00  0.00    +0.005 C 
ATOM      6  C   LIG    1       24.046 -30.510  10.169  0.00  0.00    +0.036 C 
ATOM      7  C   LIG    1       24.571 -31.536  11.202  0.00  0.00    +0.153 C 
ATOM      8  C   LIG    1       25.681 -32.422  10.600  0.00  0.00    +0.154 C 
ATOM      9  F   LIG    1       23.505 -32.387  11.442  0.00  0.00    -0.238 F 
ATOM     10  C   LIG    1       24.937 -30.832  12.594  0.00  0.00    +0.047 C 
ATOM     11  C   LIG    1       24.010 -29.624  12.812  0.00  0.00    -0.020 C 
ATOM     12  C   LIG    1       24.404 -28.450  13.337  0.00  0.00    +0.054 C 
ATOM     13  C   LIG    1       25.822 -28.195  13.660  0.00  0.00    +0.179 C 
ATOM     14  C   LIG    1       26.798 -29.212  13.217  0.00  0.00    +0.047 C 
ATOM     15  O   LIG    1       26.178 -27.162  14.206  0.00  0.00    -0.288 OA
ATOM     16  C   LIG    1       22.639 -29.785  12.232  0.00  0.00    +0.194 C 
ATOM     17  F   LIG    1       21.811 -28.762  12.581  0.00  0.00    -0.241 F 
ATOM     18  C   LIG    1       24.699 -31.813  13.769  0.00  0.00    +0.023 C 
ATOM     19  C   LIG    1       26.394 -30.390  12.716  0.00  0.00    -0.009 C 
ATOM     20  C   LIG    1       22.771 -29.788  10.710  0.00  0.00    +0.048 C 
ATOM     21  C   LIG    1       23.907 -33.067   7.202  0.00  0.00    +0.015 C 
ATOM     22  C   LIG    1       25.223 -33.102   9.310  0.00  0.00    +0.044 C 
ATOM     23  C   LIG    1       23.679 -29.995   7.703  0.00  0.00    +0.011 C 
ENDROOT
BRANCH   3  24
ATOM     24  O   LIG    1       26.578 -30.653   8.458  0.00  0.00    -0.379 OA
ATOM     25  H   LIG    1       27.357 -30.254   8.016  0.00  0.00    +0.211 HD
ENDBRANCH   3  24
BRANCH   3  26
ATOM     26  C   LIG    1       26.595 -32.072   6.395  0.00  0.00    +0.224 C 
ATOM     27  O   LIG    1       27.613 -32.709   6.634  0.00  0.00    -0.282 OA
BRANCH  26  28
ATOM     28  S   LIG    1       25.982 -32.018   4.745  0.00  0.00    -0.052 S 
BRANCH  28  29
ATOM     29  C   LIG    1       26.613 -33.620   4.226  0.00  0.00    +0.290 C 
ATOM     30  F   LIG    1       27.765 -33.437   3.523  0.00  0.00    -0.237 F 
ENDBRANCH  28  29
ENDBRANCH  26  28
ENDBRANCH   3  26
BRANCH   8  31
ATOM     31  O   LIG    1       26.067 -33.458  11.513  0.00  0.00    -0.389 OA
ATOM     32  H   LIG    1       26.159 -33.044  12.392  0.00  0.00    +0.210 HD
ENDBRANCH   8  31
TORSDOF 5
ENDMDL
