MODEL 1
REMARK VINA RESULT:      19.9      0.000      0.000
REMARK  Name = *****
REMARK                            x       y       z     vdW  Elec       q    Type
REMARK                         _______ _______ _______ _____ _____    ______ ____
ROOT
ATOM      1  C   LIG    1       25.242 -18.438   3.863  0.00  0.00    +0.268 C 
ATOM      2  N   LIG    1       26.488 -18.077   3.353  0.00  0.00    -0.296 N 
ATOM      3  H   LIG    1       27.068 -18.822   2.976  0.00  0.00    +0.150 HD
ATOM      4  O   LIG    1       24.346 -17.635   4.075  0.00  0.00    -0.268 OA
ENDROOT
BRANCH   2   5
ATOM      5  CA  LIG    1       26.726 -16.663   3.004  0.00  0.00    +0.191 C 
ATOM      6  C   LIG    1       25.674 -15.567   3.288  0.00  0.00    +0.169 C 
ATOM      7  N   LIG    1       26.673 -14.924   4.121  0.00  0.00    -0.249 N 
ATOM      8  CA  LIG    1       26.518 -13.680   4.640  0.00  0.00    +0.128 C 
ATOM      9  C   LIG    1       25.259 -13.157   4.690  0.00  0.00    +0.033 C 
ATOM     10  C   LIG    1       23.996 -14.029   4.582  0.00  0.00    +0.110 C 
ATOM     11  S   LIG    1       24.289 -15.830   4.407  0.00  0.00    -0.131 S 
ATOM     12  C   LIG    1       27.628 -15.870   3.993  0.00  0.00    +0.244 C 
ATOM     13  O   LIG    1       28.692 -15.948   4.528  0.00  0.00    -0.273 OA
BRANCH   8  14
ATOM     14  C   LIG    1       27.727 -12.892   5.056  0.00  0.00    +0.352 C 
ATOM     15  O   LIG    1       28.302 -12.146   4.277  0.00  0.00    -0.244 OA
BRANCH  14  16
ATOM     16  OXT LIG    1       28.143 -13.009   6.320  0.00  0.00    -0.476 OA
ATOM     17  HXT LIG    1       29.109 -12.988   6.523  0.00  0.00    +0.295 HD
ENDBRANCH  14  16
ENDBRANCH   8  14
BRANCH   9  18
ATOM     18  C   LIG    1       24.934 -11.676   4.879  0.00  0.00    +0.392 C 
BRANCH  18  19
ATOM     19  N   LIG    1       23.502 -11.535   5.314  0.00  0.00    -0.200 N 
ATOM     20  C   LIG    1       22.509 -11.475   4.392  0.00  0.00    +0.309 A 
ATOM     21  C   LIG    1       21.173 -11.451   4.772  0.00  0.00    +0.070 A 
ATOM     22  C   LIG    1       20.849 -11.447   6.119  0.00  0.00    +0.012 A 
ATOM     23  C   LIG    1       21.871 -11.448   7.058  0.00  0.00    +0.070 A 
ATOM     24  C   LIG    1       23.197 -11.482   6.634  0.00  0.00    +0.309 A 
ENDBRANCH  18  19
ENDBRANCH   9  18
ENDBRANCH   2   5
BRANCH   1  26
ATOM     25  N   LIG    1       24.224 -20.720   3.748  0.00  0.00    -0.077 NA
ATOM     26  C   LIG    1       25.110 -19.906   4.222  0.00  0.00    +0.190 C 
BRANCH  26  27
ATOM     27  C   LIG    1       26.089 -20.551   5.100  0.00  0.00    +0.107 A 
ATOM     28  N   LIG    1       27.377 -20.790   4.618  0.00  0.00    -0.223 NA
ATOM     29  C   LIG    1       28.143 -21.296   5.545  0.00  0.00    +0.156 A 
ATOM     30  S   LIG    1       27.377 -21.554   7.056  0.00  0.00    -0.060 S 
ATOM     31  C   LIG    1       25.912 -20.912   6.422  0.00  0.00    +0.078 A 
BRANCH  29  32
ATOM     32  N   LIG    1       29.446 -21.540   5.350  0.00  0.00    -0.338 N 
ATOM     33  H   LIG    1       29.669 -22.335   4.761  0.00  0.00    +0.144 HD
ATOM     34  H   LIG    1       30.086 -20.761   5.268  0.00  0.00    +0.144 HD
ENDBRANCH  29  32
ENDBRANCH  26  27
BRANCH  25  35
ATOM     35  O   LIG    1       23.304 -20.234   2.804  0.00  0.00    -0.376 OA
BRANCH  35  37
ATOM     36  C   LIG    1       21.311 -18.832   2.715  0.00  0.00    +0.070 C 
ATOM     37  C   LIG    1       22.122 -19.843   3.552  0.00  0.00    +0.228 C 
ATOM     38  C   LIG    1       21.278 -21.103   3.816  0.00  0.00    +0.070 C 
BRANCH  37  39
ATOM     39  C   LIG    1       22.463 -19.239   4.933  0.00  0.00    +0.351 C 
ATOM     40  O   LIG    1       22.945 -19.827   5.891  0.00  0.00    -0.246 OA
BRANCH  39  41
ATOM     41  O   LIG    1       22.092 -17.944   5.082  0.00  0.00    -0.478 OA
ATOM     42  H   LIG    1       21.129 -17.971   5.259  0.00  0.00    +0.295 HD
ENDBRANCH  39  41
ENDBRANCH  37  39
ENDBRANCH  35  37
ENDBRANCH  25  35
ENDBRANCH   1  26
TORSDOF 12
ENDMDL
