MODEL 1
REMARK VINA RESULT:      -6.1      0.000      0.000
REMARK  Name = *****
REMARK                            x       y       z     vdW  Elec       q    Type
REMARK                         _______ _______ _______ _____ _____    ______ ____
ROOT
ATOM      1  C   LIG    1       26.236 -18.525   3.632  0.00  0.00    +0.178 C 
ENDROOT
BRANCH   1   6
ATOM      2 CL   LIG    1       21.090 -21.548   4.820  0.00  0.00    -0.084 Cl
ATOM      3  C   LIG    1       22.550 -20.695   4.491  0.00  0.00    +0.041 A 
ATOM      4  C   LIG    1       23.745 -21.384   4.367  0.00  0.00    +0.020 A 
ATOM      5  C   LIG    1       24.933 -20.690   4.095  0.00  0.00    +0.008 A 
ATOM      6  C   LIG    1       24.937 -19.290   3.941  0.00  0.00    -0.014 A 
ATOM      7  C   LIG    1       23.714 -18.615   4.066  0.00  0.00    +0.008 A 
ATOM      8  C   LIG    1       22.526 -19.306   4.345  0.00  0.00    +0.020 A 
ENDBRANCH   1   6
BRANCH   1   9
ATOM      9  C   LIG    1       27.327 -18.764   4.679  0.00  0.00    -0.015 A 
ATOM     10  C   LIG    1       27.234 -19.854   5.563  0.00  0.00    +0.006 A 
ATOM     11  C   LIG    1       28.220 -20.087   6.524  0.00  0.00    +0.000 A 
ATOM     12  C   LIG    1       29.346 -19.267   6.585  0.00  0.00    +0.000 A 
ATOM     13  C   LIG    1       29.472 -18.206   5.693  0.00  0.00    +0.000 A 
ATOM     14  C   LIG    1       28.463 -17.941   4.762  0.00  0.00    +0.006 A 
ENDBRANCH   1   9
BRANCH   1  15
ATOM     15  O   LIG    1       25.945 -17.118   3.491  0.00  0.00    -0.366 OA
BRANCH  15  16
ATOM     16  C   LIG    1       27.089 -16.269   3.680  0.00  0.00    +0.176 C 
BRANCH  16  17
ATOM     17  C   LIG    1       26.949 -15.003   2.805  0.00  0.00    +0.112 C 
BRANCH  17  18
ATOM     18  N   LIG    1       26.745 -13.739   3.550  0.00  0.00    -0.300 NA
ATOM     19  C   LIG    1       26.294 -12.649   2.663  0.00  0.00    +0.084 C 
ATOM     20  C   LIG    1       24.851 -12.804   2.168  0.00  0.00    +0.015 C 
ATOM     21  C   LIG    1       23.877 -13.004   3.325  0.00  0.00    +0.002 C 
ATOM     22  C   LIG    1       24.366 -14.079   4.292  0.00  0.00    +0.015 C 
ATOM     23  C   LIG    1       25.825 -13.849   4.692  0.00  0.00    +0.084 C 
ENDBRANCH  17  18
ENDBRANCH  16  17
ENDBRANCH  15  16
ENDBRANCH   1  15
TORSDOF 6
ENDMDL
MODEL 2
REMARK VINA RESULT:      -5.2      0.721      1.642
REMARK  Name = *****
REMARK                            x       y       z     vdW  Elec       q    Type
REMARK                         _______ _______ _______ _____ _____    ______ ____
ROOT
ATOM      1  C   LIG    1       26.440 -19.031   3.702  0.00  0.00    +0.178 C 
ENDROOT
BRANCH   1   6
ATOM      2 CL   LIG    1       20.889 -21.245   4.848  0.00  0.00    -0.084 Cl
ATOM      3  C   LIG    1       22.464 -20.621   4.531  0.00  0.00    +0.041 A 
ATOM      4  C   LIG    1       23.551 -21.476   4.469  0.00  0.00    +0.020 A 
ATOM      5  C   LIG    1       24.831 -20.970   4.207  0.00  0.00    +0.008 A 
ATOM      6  C   LIG    1       25.039 -19.592   4.000  0.00  0.00    -0.014 A 
ATOM      7  C   LIG    1       23.921 -18.746   4.064  0.00  0.00    +0.008 A 
ATOM      8  C   LIG    1       22.641 -19.249   4.333  0.00  0.00    +0.020 A 
ENDBRANCH   1   6
BRANCH   1   9
ATOM      9  C   LIG    1       27.405 -19.192   4.879  0.00  0.00    -0.015 A 
ATOM     10  C   LIG    1       28.583 -18.428   4.939  0.00  0.00    +0.006 A 
ATOM     11  C   LIG    1       29.475 -18.562   6.006  0.00  0.00    +0.000 A 
ATOM     12  C   LIG    1       29.179 -19.424   7.062  0.00  0.00    +0.000 A 
ATOM     13  C   LIG    1       27.999 -20.161   7.037  0.00  0.00    +0.000 A 
ATOM     14  C   LIG    1       27.128 -20.065   5.947  0.00  0.00    +0.006 A 
ENDBRANCH   1   9
BRANCH   1  15
ATOM     15  O   LIG    1       26.331 -17.649   3.300  0.00  0.00    -0.366 OA
BRANCH  15  16
ATOM     16  C   LIG    1       27.199 -16.764   4.027  0.00  0.00    +0.176 C 
BRANCH  16  17
ATOM     17  C   LIG    1       26.979 -15.310   3.554  0.00  0.00    +0.112 C 
BRANCH  17  18
ATOM     18  N   LIG    1       25.680 -15.050   2.891  0.00  0.00    -0.300 NA
ATOM     19  C   LIG    1       24.571 -14.999   3.864  0.00  0.00    +0.084 C 
ATOM     20  C   LIG    1       24.577 -13.748   4.750  0.00  0.00    +0.015 C 
ATOM     21  C   LIG    1       24.635 -12.469   3.920  0.00  0.00    +0.002 C 
ATOM     22  C   LIG    1       25.730 -12.536   2.860  0.00  0.00    +0.015 C 
ATOM     23  C   LIG    1       25.654 -13.837   2.060  0.00  0.00    +0.084 C 
ENDBRANCH  17  18
ENDBRANCH  16  17
ENDBRANCH  15  16
ENDBRANCH   1  15
TORSDOF 6
ENDMDL
MODEL 3
REMARK VINA RESULT:      -4.2      1.374      2.376
REMARK  Name = *****
REMARK                            x       y       z     vdW  Elec       q    Type
REMARK                         _______ _______ _______ _____ _____    ______ ____
ROOT
ATOM      1  C   LIG    1       25.455 -19.051   4.096  0.00  0.00    +0.178 C 
ENDROOT
BRANCH   1   6
ATOM      2 CL   LIG    1       19.442 -19.987   4.087  0.00  0.00    -0.084 Cl
ATOM      3  C   LIG    1       21.144 -19.719   4.081  0.00  0.00    +0.041 A 
ATOM      4  C   LIG    1       21.650 -18.461   3.801  0.00  0.00    +0.020 A 
ATOM      5  C   LIG    1       23.034 -18.242   3.801  0.00  0.00    +0.008 A 
ATOM      6  C   LIG    1       23.935 -19.288   4.085  0.00  0.00    -0.014 A 
ATOM      7  C   LIG    1       23.399 -20.552   4.370  0.00  0.00    +0.008 A 
ATOM      8  C   LIG    1       22.015 -20.775   4.364  0.00  0.00    +0.020 A 
ENDBRANCH   1   6
BRANCH   1   9
ATOM      9  C   LIG    1       26.180 -19.916   5.130  0.00  0.00    -0.015 A 
ATOM     10  C   LIG    1       27.579 -19.842   5.259  0.00  0.00    +0.006 A 
ATOM     11  C   LIG    1       28.257 -20.624   6.196  0.00  0.00    +0.000 A 
ATOM     12  C   LIG    1       27.546 -21.455   7.061  0.00  0.00    +0.000 A 
ATOM     13  C   LIG    1       26.158 -21.513   6.972  0.00  0.00    +0.000 A 
ATOM     14  C   LIG    1       25.481 -20.768   6.002  0.00  0.00    +0.006 A 
ENDBRANCH   1   9
BRANCH   1  15
ATOM     15  O   LIG    1       25.723 -17.648   4.307  0.00  0.00    -0.366 OA
BRANCH  15  16
ATOM     16  C   LIG    1       26.268 -16.983   3.155  0.00  0.00    +0.176 C 
BRANCH  16  17
ATOM     17  C   LIG    1       27.219 -15.852   3.606  0.00  0.00    +0.112 C 
BRANCH  17  18
ATOM     18  N   LIG    1       26.964 -14.529   2.991  0.00  0.00    -0.300 NA
ATOM     19  C   LIG    1       25.528 -14.190   2.999  0.00  0.00    +0.084 C 
ATOM     20  C   LIG    1       24.975 -13.855   4.389  0.00  0.00    +0.015 C 
ATOM     21  C   LIG    1       25.796 -12.767   5.076  0.00  0.00    +0.002 C 
ATOM     22  C   LIG    1       27.291 -13.068   5.012  0.00  0.00    +0.015 C 
ATOM     23  C   LIG    1       27.728 -13.424   3.590  0.00  0.00    +0.084 C 
ENDBRANCH  17  18
ENDBRANCH  16  17
ENDBRANCH  15  16
ENDBRANCH   1  15
TORSDOF 6
ENDMDL
MODEL 4
REMARK VINA RESULT:      -4.1      3.575      7.168
REMARK  Name = *****
REMARK                            x       y       z     vdW  Elec       q    Type
REMARK                         _______ _______ _______ _____ _____    ______ ____
ROOT
ATOM      1  C   LIG    1       25.580 -16.749   3.063  0.00  0.00    +0.178 C 
ENDROOT
BRANCH   1   6
ATOM      2 CL   LIG    1       29.076 -11.857   3.995  0.00  0.00    -0.084 Cl
ATOM      3  C   LIG    1       28.093 -13.247   3.729  0.00  0.00    +0.041 A 
ATOM      4  C   LIG    1       28.293 -14.394   4.479  0.00  0.00    +0.020 A 
ATOM      5  C   LIG    1       27.490 -15.523   4.266  0.00  0.00    +0.008 A 
ATOM      6  C   LIG    1       26.471 -15.516   3.294  0.00  0.00    -0.014 A 
ATOM      7  C   LIG    1       26.284 -14.341   2.550  0.00  0.00    +0.008 A 
ATOM      8  C   LIG    1       27.090 -13.213   2.757  0.00  0.00    +0.020 A 
ENDBRANCH   1   6
BRANCH   1   9
ATOM      9  C   LIG    1       24.242 -16.659   3.800  0.00  0.00    -0.015 A 
ATOM     10  C   LIG    1       23.828 -15.443   4.371  0.00  0.00    +0.006 A 
ATOM     11  C   LIG    1       22.610 -15.343   5.048  0.00  0.00    +0.000 A 
ATOM     12  C   LIG    1       21.757 -16.444   5.120  0.00  0.00    +0.000 A 
ATOM     13  C   LIG    1       22.135 -17.645   4.529  0.00  0.00    +0.000 A 
ATOM     14  C   LIG    1       23.375 -17.762   3.893  0.00  0.00    +0.006 A 
ENDBRANCH   1   9
BRANCH   1  15
ATOM     15  O   LIG    1       26.303 -17.943   3.433  0.00  0.00    -0.366 OA
BRANCH  15  16
ATOM     16  C   LIG    1       25.455 -19.061   3.743  0.00  0.00    +0.176 C 
BRANCH  16  17
ATOM     17  C   LIG    1       26.021 -19.824   4.962  0.00  0.00    +0.112 C 
BRANCH  17  18
ATOM     18  N   LIG    1       25.564 -21.226   5.098  0.00  0.00    -0.300 NA
ATOM     19  C   LIG    1       25.275 -21.572   6.504  0.00  0.00    +0.084 C 
ATOM     20  C   LIG    1       24.008 -20.912   7.060  0.00  0.00    +0.015 C 
ATOM     21  C   LIG    1       22.796 -21.179   6.172  0.00  0.00    +0.002 C 
ATOM     22  C   LIG    1       23.102 -20.896   4.704  0.00  0.00    +0.015 C 
ATOM     23  C   LIG    1       24.403 -21.570   4.264  0.00  0.00    +0.084 C 
ENDBRANCH  17  18
ENDBRANCH  16  17
ENDBRANCH  15  16
ENDBRANCH   1  15
TORSDOF 6
ENDMDL
MODEL 5
REMARK VINA RESULT:      -3.7      2.186      4.728
REMARK  Name = *****
REMARK                            x       y       z     vdW  Elec       q    Type
REMARK                         _______ _______ _______ _____ _____    ______ ____
ROOT
ATOM      1  C   LIG    1       25.015 -18.396   4.401  0.00  0.00    +0.178 C 
ENDROOT
BRANCH   1   6
ATOM      2 CL   LIG    1       29.475 -21.567   7.062  0.00  0.00    -0.084 Cl
ATOM      3  C   LIG    1       28.214 -20.662   6.313  0.00  0.00    +0.041 A 
ATOM      4  C   LIG    1       28.517 -19.543   5.557  0.00  0.00    +0.020 A 
ATOM      5  C   LIG    1       27.492 -18.809   4.944  0.00  0.00    +0.008 A 
ATOM      6  C   LIG    1       26.143 -19.191   5.080  0.00  0.00    -0.014 A 
ATOM      7  C   LIG    1       25.862 -20.332   5.848  0.00  0.00    +0.008 A 
ATOM      8  C   LIG    1       26.885 -21.063   6.468  0.00  0.00    +0.020 A 
ENDBRANCH   1   6
BRANCH   1   9
ATOM      9  C   LIG    1       23.678 -19.141   4.408  0.00  0.00    -0.015 A 
ATOM     10  C   LIG    1       22.491 -18.470   4.065  0.00  0.00    +0.006 A 
ATOM     11  C   LIG    1       21.263 -19.135   4.067  0.00  0.00    +0.000 A 
ATOM     12  C   LIG    1       21.204 -20.497   4.358  0.00  0.00    +0.000 A 
ATOM     13  C   LIG    1       22.374 -21.185   4.664  0.00  0.00    +0.000 A 
ATOM     14  C   LIG    1       23.599 -20.512   4.711  0.00  0.00    +0.006 A 
ENDBRANCH   1   9
BRANCH   1  15
ATOM     15  O   LIG    1       25.413 -18.046   3.058  0.00  0.00    -0.366 OA
BRANCH  15  16
ATOM     16  C   LIG    1       25.930 -16.711   2.937  0.00  0.00    +0.176 C 
BRANCH  16  17
ATOM     17  C   LIG    1       25.021 -15.726   3.706  0.00  0.00    +0.112 C 
BRANCH  17  18
ATOM     18  N   LIG    1       25.193 -14.299   3.353  0.00  0.00    -0.300 NA
ATOM     19  C   LIG    1       25.197 -13.436   4.551  0.00  0.00    +0.084 C 
ATOM     20  C   LIG    1       26.460 -13.566   5.409  0.00  0.00    +0.015 C 
ATOM     21  C   LIG    1       27.727 -13.358   4.583  0.00  0.00    +0.002 C 
ATOM     22  C   LIG    1       27.706 -14.188   3.303  0.00  0.00    +0.015 C 
ATOM     23  C   LIG    1       26.389 -14.013   2.545  0.00  0.00    +0.084 C 
ENDBRANCH  17  18
ENDBRANCH  16  17
ENDBRANCH  15  16
ENDBRANCH   1  15
TORSDOF 6
ENDMDL
MODEL 6
REMARK VINA RESULT:      -3.4      3.081      5.723
REMARK  Name = *****
REMARK                            x       y       z     vdW  Elec       q    Type
REMARK                         _______ _______ _______ _____ _____    ______ ____
ROOT
ATOM      1  C   LIG    1       25.920 -18.899   4.300  0.00  0.00    +0.178 C 
ENDROOT
BRANCH   1   6
ATOM      2 CL   LIG    1       26.122 -13.010   2.780  0.00  0.00    -0.084 Cl
ATOM      3  C   LIG    1       26.069 -14.680   3.202  0.00  0.00    +0.041 A 
ATOM      4  C   LIG    1       27.244 -15.394   3.362  0.00  0.00    +0.020 A 
ATOM      5  C   LIG    1       27.201 -16.751   3.711  0.00  0.00    +0.008 A 
ATOM      6  C   LIG    1       25.973 -17.412   3.907  0.00  0.00    -0.014 A 
ATOM      7  C   LIG    1       24.796 -16.666   3.745  0.00  0.00    +0.008 A 
ATOM      8  C   LIG    1       24.836 -15.311   3.389  0.00  0.00    +0.020 A 
ENDBRANCH   1   6
BRANCH   1   9
ATOM      9  C   LIG    1       27.135 -19.337   5.122  0.00  0.00    -0.015 A 
ATOM     10  C   LIG    1       28.323 -18.587   5.084  0.00  0.00    +0.006 A 
ATOM     11  C   LIG    1       29.442 -18.972   5.827  0.00  0.00    +0.000 A 
ATOM     12  C   LIG    1       29.376 -20.085   6.665  0.00  0.00    +0.000 A 
ATOM     13  C   LIG    1       28.196 -20.818   6.741  0.00  0.00    +0.000 A 
ATOM     14  C   LIG    1       27.091 -20.463   5.962  0.00  0.00    +0.006 A 
ENDBRANCH   1   9
BRANCH   1  15
ATOM     15  O   LIG    1       25.771 -19.707   3.113  0.00  0.00    -0.366 OA
BRANCH  15  16
ATOM     16  C   LIG    1       24.478 -20.321   2.989  0.00  0.00    +0.176 C 
BRANCH  16  17
ATOM     17  C   LIG    1       24.343 -21.467   4.016  0.00  0.00    +0.112 C 
BRANCH  17  18
ATOM     18  N   LIG    1       23.030 -21.558   4.693  0.00  0.00    -0.300 NA
ATOM     19  C   LIG    1       23.172 -21.571   6.162  0.00  0.00    +0.084 C 
ATOM     20  C   LIG    1       23.592 -20.224   6.760  0.00  0.00    +0.015 C 
ATOM     21  C   LIG    1       22.668 -19.095   6.312  0.00  0.00    +0.002 C 
ATOM     22  C   LIG    1       22.452 -19.113   4.802  0.00  0.00    +0.015 C 
ATOM     23  C   LIG    1       22.073 -20.510   4.307  0.00  0.00    +0.084 C 
ENDBRANCH  17  18
ENDBRANCH  16  17
ENDBRANCH  15  16
ENDBRANCH   1  15
TORSDOF 6
ENDMDL
