MODEL 1
REMARK VINA RESULT:      -2.6      0.000      0.000
REMARK  Name = *****
REMARK                            x       y       z     vdW  Elec       q    Type
REMARK                         _______ _______ _______ _____ _____    ______ ____
ROOT
ATOM      1  N   LIG    1       25.983 -19.418   4.673  0.00  0.00    -0.309 N 
ATOM      2  C   LIG    1       24.960 -20.113   5.316  0.00  0.00    +0.199 A 
ATOM      3  N   LIG    1       25.474 -20.865   6.263  0.00  0.00    -0.214 NA
ATOM      4  C   LIG    1       26.832 -20.636   6.269  0.00  0.00    +0.091 A 
ATOM      5  C   LIG    1       27.855 -21.182   7.061  0.00  0.00    +0.030 A 
ATOM      6  C   LIG    1       29.173 -20.728   6.889  0.00  0.00    +0.002 A 
ATOM      7  C   LIG    1       29.472 -19.744   5.948  0.00  0.00    +0.002 A 
ATOM      8  C   LIG    1       28.475 -19.205   5.135  0.00  0.00    +0.028 A 
ATOM      9  C   LIG    1       27.169 -19.687   5.314  0.00  0.00    +0.070 A 
ENDROOT
BRANCH   2  10
ATOM     10  N   LIG    1       23.633 -19.901   5.024  0.00  0.00    -0.300 N 
ATOM     11  C   LIG    1       23.266 -18.574   4.488  0.00  0.00    +0.123 C 
ATOM     12  C   LIG    1       21.753 -18.255   4.471  0.00  0.00    +0.103 C 
ATOM     13  N   LIG    1       21.008 -19.023   3.464  0.00  0.00    -0.304 NA
ATOM     14  C   LIG    1       19.903 -18.240   2.910  0.00  0.00    +0.105 C 
ATOM     15  C   LIG    1       20.520 -20.301   3.998  0.00  0.00    +0.086 C 
ATOM     16  C   LIG    1       21.527 -21.118   4.816  0.00  0.00    +0.034 C 
ATOM     17  C   LIG    1       22.972 -21.019   4.320  0.00  0.00    +0.109 C 
ENDBRANCH   2  10
BRANCH   1  18
ATOM     18  C   LIG    1       25.888 -18.563   3.510  0.00  0.00    +0.153 C 
BRANCH  18  19
ATOM     19  C   LIG    1       26.735 -17.307   3.686  0.00  0.00    +0.181 C 
BRANCH  19  20
ATOM     20  O   LIG    1       26.037 -16.173   3.174  0.00  0.00    -0.378 OA
BRANCH  20  22
ATOM     21  C   LIG    1       25.843 -13.893   3.862  0.00  0.00    +0.034 C 
ATOM     22  C   LIG    1       26.788 -14.979   3.395  0.00  0.00    +0.156 C 
ENDBRANCH  20  22
ENDBRANCH  19  20
ENDBRANCH  18  19
ENDBRANCH   1  18
TORSDOF 5
ENDMDL
MODEL 2
REMARK VINA RESULT:      -2.5      2.029      5.362
REMARK  Name = *****
REMARK                            x       y       z     vdW  Elec       q    Type
REMARK                         _______ _______ _______ _____ _____    ______ ____
ROOT
ATOM      1  N   LIG    1       25.527 -16.010   3.426  0.00  0.00    -0.309 N 
ATOM      2  C   LIG    1       24.337 -16.393   4.042  0.00  0.00    +0.199 A 
ATOM      3  N   LIG    1       23.568 -15.339   4.199  0.00  0.00    -0.214 NA
ATOM      4  C   LIG    1       24.237 -14.266   3.651  0.00  0.00    +0.091 A 
ATOM      5  C   LIG    1       23.884 -12.910   3.560  0.00  0.00    +0.030 A 
ATOM      6  C   LIG    1       24.744 -12.020   2.895  0.00  0.00    +0.002 A 
ATOM      7  C   LIG    1       25.934 -12.470   2.326  0.00  0.00    +0.002 A 
ATOM      8  C   LIG    1       26.315 -13.808   2.426  0.00  0.00    +0.028 A 
ATOM      9  C   LIG    1       25.448 -14.674   3.109  0.00  0.00    +0.070 A 
ENDROOT
BRANCH   2  10
ATOM     10  N   LIG    1       24.039 -17.709   4.305  0.00  0.00    -0.300 N 
ATOM     11  C   LIG    1       22.679 -18.005   4.802  0.00  0.00    +0.123 C 
ATOM     12  C   LIG    1       22.473 -19.422   5.386  0.00  0.00    +0.103 C 
ATOM     13  N   LIG    1       22.482 -20.479   4.365  0.00  0.00    -0.304 NA
ATOM     14  C   LIG    1       21.565 -21.564   4.718  0.00  0.00    +0.105 C 
ATOM     15  C   LIG    1       23.833 -21.000   4.126  0.00  0.00    +0.086 C 
ATOM     16  C   LIG    1       24.943 -19.953   3.977  0.00  0.00    +0.034 C 
ATOM     17  C   LIG    1       24.506 -18.664   3.278  0.00  0.00    +0.109 C 
ENDBRANCH   2  10
BRANCH   1  18
ATOM     18  C   LIG    1       26.695 -16.818   3.158  0.00  0.00    +0.153 C 
BRANCH  18  19
ATOM     19  C   LIG    1       27.620 -16.858   4.371  0.00  0.00    +0.181 C 
BRANCH  19  20
ATOM     20  O   LIG    1       27.985 -18.207   4.661  0.00  0.00    -0.378 OA
BRANCH  20  22
ATOM     21  C   LIG    1       29.229 -19.555   6.192  0.00  0.00    +0.034 C 
ATOM     22  C   LIG    1       29.186 -18.247   5.432  0.00  0.00    +0.156 C 
ENDBRANCH  20  22
ENDBRANCH  19  20
ENDBRANCH  18  19
ENDBRANCH   1  18
TORSDOF 5
ENDMDL
MODEL 3
REMARK VINA RESULT:      -2.1      2.649      5.563
REMARK  Name = *****
REMARK                            x       y       z     vdW  Elec       q    Type
REMARK                         _______ _______ _______ _____ _____    ______ ____
ROOT
ATOM      1  N   LIG    1       25.325 -15.386   3.375  0.00  0.00    -0.309 N 
ATOM      2  C   LIG    1       24.156 -15.848   3.977  0.00  0.00    +0.199 A 
ATOM      3  N   LIG    1       23.292 -14.862   4.063  0.00  0.00    -0.214 NA
ATOM      4  C   LIG    1       23.877 -13.759   3.482  0.00  0.00    +0.091 A 
ATOM      5  C   LIG    1       23.407 -12.447   3.315  0.00  0.00    +0.030 A 
ATOM      6  C   LIG    1       24.204 -11.514   2.631  0.00  0.00    +0.002 A 
ATOM      7  C   LIG    1       25.446 -11.878   2.116  0.00  0.00    +0.002 A 
ATOM      8  C   LIG    1       25.942 -13.170   2.290  0.00  0.00    +0.028 A 
ATOM      9  C   LIG    1       25.136 -14.080   2.992  0.00  0.00    +0.070 A 
ENDROOT
BRANCH   2  10
ATOM     10  N   LIG    1       23.970 -17.173   4.296  0.00  0.00    -0.300 N 
ATOM     11  C   LIG    1       22.603 -17.589   4.671  0.00  0.00    +0.123 C 
ATOM     12  C   LIG    1       22.484 -18.985   5.323  0.00  0.00    +0.103 C 
ATOM     13  N   LIG    1       22.712 -20.090   4.382  0.00  0.00    -0.304 NA
ATOM     14  C   LIG    1       21.880 -21.248   4.711  0.00  0.00    +0.105 C 
ATOM     15  C   LIG    1       24.128 -20.471   4.315  0.00  0.00    +0.086 C 
ATOM     16  C   LIG    1       25.133 -19.318   4.211  0.00  0.00    +0.034 C 
ATOM     17  C   LIG    1       24.642 -18.125   3.387  0.00  0.00    +0.109 C 
ENDBRANCH   2  10
BRANCH   1  18
ATOM     18  C   LIG    1       26.569 -16.096   3.178  0.00  0.00    +0.153 C 
BRANCH  18  19
ATOM     19  C   LIG    1       27.579 -15.740   4.265  0.00  0.00    +0.181 C 
BRANCH  19  20
ATOM     20  O   LIG    1       28.208 -14.497   3.957  0.00  0.00    -0.378 OA
BRANCH  20  22
ATOM     21  C   LIG    1       28.714 -12.271   4.662  0.00  0.00    +0.034 C 
ATOM     22  C   LIG    1       27.943 -13.533   4.977  0.00  0.00    +0.156 C 
ENDBRANCH  20  22
ENDBRANCH  19  20
ENDBRANCH  18  19
ENDBRANCH   1  18
TORSDOF 5
ENDMDL
MODEL 4
REMARK VINA RESULT:      -2.1      2.454      5.512
REMARK  Name = *****
REMARK                            x       y       z     vdW  Elec       q    Type
REMARK                         _______ _______ _______ _____ _____    ______ ____
ROOT
ATOM      1  N   LIG    1       25.099 -18.055   3.801  0.00  0.00    -0.309 N 
ATOM      2  C   LIG    1       24.154 -17.048   3.990  0.00  0.00    +0.199 A 
ATOM      3  N   LIG    1       23.019 -17.584   4.378  0.00  0.00    -0.214 NA
ATOM      4  C   LIG    1       23.227 -18.942   4.483  0.00  0.00    +0.091 A 
ATOM      5  C   LIG    1       22.356 -19.983   4.843  0.00  0.00    +0.030 A 
ATOM      6  C   LIG    1       22.850 -21.295   4.918  0.00  0.00    +0.002 A 
ATOM      7  C   LIG    1       24.188 -21.572   4.645  0.00  0.00    +0.002 A 
ATOM      8  C   LIG    1       25.065 -20.556   4.263  0.00  0.00    +0.028 A 
ATOM      9  C   LIG    1       24.545 -19.255   4.179  0.00  0.00    +0.070 A 
ENDROOT
BRANCH   2  10
ATOM     10  N   LIG    1       24.471 -15.715   3.880  0.00  0.00    -0.300 N 
ATOM     11  C   LIG    1       25.335 -15.320   2.748  0.00  0.00    +0.123 C 
ATOM     12  C   LIG    1       25.930 -13.895   2.826  0.00  0.00    +0.103 C 
ATOM     13  N   LIG    1       24.934 -12.836   2.617  0.00  0.00    -0.304 NA
ATOM     14  C   LIG    1       25.518 -11.687   1.924  0.00  0.00    +0.105 C 
ATOM     15  C   LIG    1       24.305 -12.417   3.875  0.00  0.00    +0.086 C 
ATOM     16  C   LIG    1       23.858 -13.544   4.814  0.00  0.00    +0.034 C 
ATOM     17  C   LIG    1       23.337 -14.792   4.099  0.00  0.00    +0.109 C 
ENDBRANCH   2  10
BRANCH   1  18
ATOM     18  C   LIG    1       26.442 -17.933   3.278  0.00  0.00    +0.153 C 
BRANCH  18  19
ATOM     19  C   LIG    1       27.438 -17.640   4.396  0.00  0.00    +0.181 C 
BRANCH  19  20
ATOM     20  O   LIG    1       28.060 -18.851   4.823  0.00  0.00    -0.378 OA
BRANCH  20  22
ATOM     21  C   LIG    1       29.423 -19.613   6.632  0.00  0.00    +0.034 C 
ATOM     22  C   LIG    1       29.259 -18.570   5.548  0.00  0.00    +0.156 C 
ENDBRANCH  20  22
ENDBRANCH  19  20
ENDBRANCH  18  19
ENDBRANCH   1  18
TORSDOF 5
ENDMDL
MODEL 5
REMARK VINA RESULT:      -1.6      2.526      6.416
REMARK  Name = *****
REMARK                            x       y       z     vdW  Elec       q    Type
REMARK                         _______ _______ _______ _____ _____    ______ ____
ROOT
ATOM      1  N   LIG    1       25.187 -17.431   3.677  0.00  0.00    -0.309 N 
ATOM      2  C   LIG    1       24.613 -16.170   3.826  0.00  0.00    +0.199 A 
ATOM      3  N   LIG    1       23.336 -16.303   4.104  0.00  0.00    -0.214 NA
ATOM      4  C   LIG    1       23.076 -17.654   4.177  0.00  0.00    +0.091 A 
ATOM      5  C   LIG    1       21.884 -18.350   4.430  0.00  0.00    +0.030 A 
ATOM      6  C   LIG    1       21.909 -19.753   4.497  0.00  0.00    +0.002 A 
ATOM      7  C   LIG    1       23.101 -20.454   4.321  0.00  0.00    +0.002 A 
ATOM      8  C   LIG    1       24.292 -19.783   4.046  0.00  0.00    +0.028 A 
ATOM      9  C   LIG    1       24.239 -18.383   3.967  0.00  0.00    +0.070 A 
ENDROOT
BRANCH   2  10
ATOM     10  N   LIG    1       25.360 -15.016   3.789  0.00  0.00    -0.300 N 
ATOM     11  C   LIG    1       26.491 -14.915   4.734  0.00  0.00    +0.123 C 
ATOM     12  C   LIG    1       27.106 -13.505   4.893  0.00  0.00    +0.103 C 
ATOM     13  N   LIG    1       27.868 -13.067   3.716  0.00  0.00    -0.304 NA
ATOM     14  C   LIG    1       29.012 -12.239   4.103  0.00  0.00    +0.105 C 
ATOM     15  C   LIG    1       27.023 -12.360   2.746  0.00  0.00    +0.086 C 
ATOM     16  C   LIG    1       25.670 -13.011   2.431  0.00  0.00    +0.034 C 
ATOM     17  C   LIG    1       25.691 -14.541   2.429  0.00  0.00    +0.109 C 
ENDBRANCH   2  10
BRANCH   1  18
ATOM     18  C   LIG    1       26.535 -17.756   3.267  0.00  0.00    +0.153 C 
BRANCH  18  19
ATOM     19  C   LIG    1       27.282 -18.488   4.378  0.00  0.00    +0.181 C 
BRANCH  19  20
ATOM     20  O   LIG    1       28.513 -17.822   4.656  0.00  0.00    -0.378 OA
BRANCH  20  22
ATOM     21  C   LIG    1       28.490 -19.781   6.025  0.00  0.00    +0.034 C 
ATOM     22  C   LIG    1       29.298 -18.583   5.576  0.00  0.00    +0.156 C 
ENDBRANCH  20  22
ENDBRANCH  19  20
ENDBRANCH  18  19
ENDBRANCH   1  18
TORSDOF 5
ENDMDL
MODEL 6
REMARK VINA RESULT:      -1.4      2.862      5.165
REMARK  Name = *****
REMARK                            x       y       z     vdW  Elec       q    Type
REMARK                         _______ _______ _______ _____ _____    ______ ____
ROOT
ATOM      1  N   LIG    1       25.341 -14.876   4.208  0.00  0.00    -0.309 N 
ATOM      2  C   LIG    1       25.723 -16.075   3.609  0.00  0.00    +0.199 A 
ATOM      3  N   LIG    1       26.975 -15.989   3.221  0.00  0.00    -0.214 NA
ATOM      4  C   LIG    1       27.431 -14.745   3.601  0.00  0.00    +0.091 A 
ATOM      5  C   LIG    1       28.680 -14.129   3.426  0.00  0.00    +0.030 A 
ATOM      6  C   LIG    1       28.896 -12.850   3.964  0.00  0.00    +0.002 A 
ATOM      7  C   LIG    1       27.890 -12.193   4.669  0.00  0.00    +0.002 A 
ATOM      8  C   LIG    1       26.634 -12.777   4.834  0.00  0.00    +0.028 A 
ATOM      9  C   LIG    1       26.436 -14.048   4.273  0.00  0.00    +0.070 A 
ENDROOT
BRANCH   2  10
ATOM     10  N   LIG    1       24.895 -17.172   3.572  0.00  0.00    -0.300 N 
ATOM     11  C   LIG    1       25.537 -18.502   3.620  0.00  0.00    +0.123 C 
ATOM     12  C   LIG    1       24.627 -19.699   3.261  0.00  0.00    +0.103 C 
ATOM     13  N   LIG    1       23.620 -19.993   4.288  0.00  0.00    -0.304 NA
ATOM     14  C   LIG    1       23.353 -21.430   4.373  0.00  0.00    +0.105 C 
ATOM     15  C   LIG    1       22.374 -19.248   4.068  0.00  0.00    +0.086 C 
ATOM     16  C   LIG    1       22.530 -17.761   3.727  0.00  0.00    +0.034 C 
ATOM     17  C   LIG    1       23.698 -17.070   4.434  0.00  0.00    +0.109 C 
ENDBRANCH   2  10
BRANCH   1  18
ATOM     18  C   LIG    1       24.030 -14.492   4.681  0.00  0.00    +0.153 C 
BRANCH  18  19
ATOM     19  C   LIG    1       23.335 -13.577   3.677  0.00  0.00    +0.181 C 
BRANCH  19  20
ATOM     20  O   LIG    1       23.585 -12.212   4.008  0.00  0.00    -0.378 OA
BRANCH  20  22
ATOM     21  C   LIG    1       24.524 -12.340   1.814  0.00  0.00    +0.034 C 
ATOM     22  C   LIG    1       23.841 -11.448   2.828  0.00  0.00    +0.156 C 
ENDBRANCH  20  22
ENDBRANCH  19  20
ENDBRANCH  18  19
ENDBRANCH   1  18
TORSDOF 5
ENDMDL
MODEL 7
REMARK VINA RESULT:      -1.4      3.180      6.513
REMARK  Name = *****
REMARK                            x       y       z     vdW  Elec       q    Type
REMARK                         _______ _______ _______ _____ _____    ______ ____
ROOT
ATOM      1  N   LIG    1       24.285 -16.476   4.081  0.00  0.00    -0.309 N 
ATOM      2  C   LIG    1       25.638 -16.318   3.786  0.00  0.00    +0.199 A 
ATOM      3  N   LIG    1       26.150 -17.482   3.455  0.00  0.00    -0.214 NA
ATOM      4  C   LIG    1       25.124 -18.401   3.495  0.00  0.00    +0.091 A 
ATOM      5  C   LIG    1       25.115 -19.783   3.247  0.00  0.00    +0.030 A 
ATOM      6  C   LIG    1       23.900 -20.484   3.311  0.00  0.00    +0.002 A 
ATOM      7  C   LIG    1       22.711 -19.824   3.613  0.00  0.00    +0.002 A 
ATOM      8  C   LIG    1       22.701 -18.456   3.886  0.00  0.00    +0.028 A 
ATOM      9  C   LIG    1       23.929 -17.780   3.832  0.00  0.00    +0.070 A 
ENDROOT
BRANCH   2  10
ATOM     10  N   LIG    1       26.242 -15.084   3.755  0.00  0.00    -0.300 N 
ATOM     11  C   LIG    1       27.147 -14.749   4.874  0.00  0.00    +0.123 C 
ATOM     12  C   LIG    1       27.556 -13.262   4.982  0.00  0.00    +0.103 C 
ATOM     13  N   LIG    1       28.481 -12.834   3.923  0.00  0.00    -0.304 NA
ATOM     14  C   LIG    1       29.425 -11.831   4.417  0.00  0.00    +0.105 C 
ATOM     15  C   LIG    1       27.769 -12.337   2.740  0.00  0.00    +0.086 C 
ATOM     16  C   LIG    1       26.587 -13.186   2.257  0.00  0.00    +0.034 C 
ATOM     17  C   LIG    1       26.779 -14.694   2.434  0.00  0.00    +0.109 C 
ENDBRANCH   2  10
BRANCH   1  18
ATOM     18  C   LIG    1       23.360 -15.487   4.590  0.00  0.00    +0.153 C 
BRANCH  18  19
ATOM     19  C   LIG    1       23.581 -14.136   3.916  0.00  0.00    +0.181 C 
BRANCH  19  20
ATOM     20  O   LIG    1       24.047 -13.186   4.872  0.00  0.00    -0.378 OA
BRANCH  20  22
ATOM     21  C   LIG    1       23.836 -11.847   2.904  0.00  0.00    +0.034 C 
ATOM     22  C   LIG    1       23.802 -11.854   4.417  0.00  0.00    +0.156 C 
ENDBRANCH  20  22
ENDBRANCH  19  20
ENDBRANCH  18  19
ENDBRANCH   1  18
TORSDOF 5
ENDMDL
MODEL 8
REMARK VINA RESULT:      -0.6      2.471      6.910
REMARK  Name = *****
REMARK                            x       y       z     vdW  Elec       q    Type
REMARK                         _______ _______ _______ _____ _____    ______ ____
ROOT
ATOM      1  N   LIG    1       24.926 -15.149   3.885  0.00  0.00    -0.309 N 
ATOM      2  C   LIG    1       26.063 -15.680   3.278  0.00  0.00    +0.199 A 
ATOM      3  N   LIG    1       26.553 -14.805   2.430  0.00  0.00    -0.214 NA
ATOM      4  C   LIG    1       25.761 -13.681   2.505  0.00  0.00    +0.091 A 
ATOM      5  C   LIG    1       25.823 -12.462   1.812  0.00  0.00    +0.030 A 
ATOM      6  C   LIG    1       24.903 -11.447   2.123  0.00  0.00    +0.002 A 
ATOM      7  C   LIG    1       23.938 -11.637   3.111  0.00  0.00    +0.002 A 
ATOM      8  C   LIG    1       23.844 -12.849   3.796  0.00  0.00    +0.028 A 
ATOM      9  C   LIG    1       24.763 -13.854   3.455  0.00  0.00    +0.070 A 
ENDROOT
BRANCH   2  10
ATOM     10  N   LIG    1       26.593 -16.893   3.651  0.00  0.00    -0.300 N 
ATOM     11  C   LIG    1       27.770 -16.867   4.544  0.00  0.00    +0.123 C 
ATOM     12  C   LIG    1       28.530 -18.206   4.687  0.00  0.00    +0.103 C 
ATOM     13  N   LIG    1       27.792 -19.215   5.459  0.00  0.00    -0.304 NA
ATOM     14  C   LIG    1       28.702 -20.058   6.237  0.00  0.00    +0.105 C 
ATOM     15  C   LIG    1       26.928 -20.037   4.604  0.00  0.00    +0.086 C 
ATOM     16  C   LIG    1       26.090 -19.281   3.566  0.00  0.00    +0.034 C 
ATOM     17  C   LIG    1       25.592 -17.912   4.033  0.00  0.00    +0.109 C 
ENDBRANCH   2  10
BRANCH   1  18
ATOM     18  C   LIG    1       24.014 -15.800   4.798  0.00  0.00    +0.153 C 
BRANCH  18  19
ATOM     19  C   LIG    1       22.708 -16.165   4.098  0.00  0.00    +0.181 C 
BRANCH  19  20
ATOM     20  O   LIG    1       22.013 -17.159   4.849  0.00  0.00    -0.378 OA
BRANCH  20  22
ATOM     21  C   LIG    1       22.564 -19.462   5.171  0.00  0.00    +0.034 C 
ATOM     22  C   LIG    1       22.075 -18.423   4.186  0.00  0.00    +0.156 C 
ENDBRANCH  20  22
ENDBRANCH  19  20
ENDBRANCH  18  19
ENDBRANCH   1  18
TORSDOF 5
ENDMDL
MODEL 9
REMARK VINA RESULT:      -0.6      2.481      5.539
REMARK  Name = *****
REMARK                            x       y       z     vdW  Elec       q    Type
REMARK                         _______ _______ _______ _____ _____    ______ ____
ROOT
ATOM      1  N   LIG    1       26.925 -17.837   4.141  0.00  0.00    -0.309 N 
ATOM      2  C   LIG    1       27.562 -16.613   4.337  0.00  0.00    +0.199 A 
ATOM      3  N   LIG    1       28.566 -16.773   5.169  0.00  0.00    -0.214 NA
ATOM      4  C   LIG    1       28.615 -18.111   5.492  0.00  0.00    +0.091 A 
ATOM      5  C   LIG    1       29.475 -18.822   6.344  0.00  0.00    +0.030 A 
ATOM      6  C   LIG    1       29.332 -20.215   6.456  0.00  0.00    +0.002 A 
ATOM      7  C   LIG    1       28.354 -20.893   5.731  0.00  0.00    +0.002 A 
ATOM      8  C   LIG    1       27.475 -20.203   4.896  0.00  0.00    +0.028 A 
ATOM      9  C   LIG    1       27.626 -18.810   4.814  0.00  0.00    +0.070 A 
ENDROOT
BRANCH   2  10
ATOM     10  N   LIG    1       27.207 -15.483   3.639  0.00  0.00    -0.300 N 
ATOM     11  C   LIG    1       25.790 -15.356   3.239  0.00  0.00    +0.123 C 
ATOM     12  C   LIG    1       25.485 -14.254   2.199  0.00  0.00    +0.103 C 
ATOM     13  N   LIG    1       25.598 -12.893   2.741  0.00  0.00    -0.304 NA
ATOM     14  C   LIG    1       24.623 -11.993   2.125  0.00  0.00    +0.105 C 
ATOM     15  C   LIG    1       26.958 -12.357   2.601  0.00  0.00    +0.086 C 
ATOM     16  C   LIG    1       28.099 -13.304   2.993  0.00  0.00    +0.034 C 
ATOM     17  C   LIG    1       27.778 -14.227   4.170  0.00  0.00    +0.109 C 
ENDBRANCH   2  10
BRANCH   1  18
ATOM     18  C   LIG    1       25.717 -18.107   3.394  0.00  0.00    +0.153 C 
BRANCH  18  19
ATOM     19  C   LIG    1       24.953 -19.282   3.997  0.00  0.00    +0.181 C 
BRANCH  19  20
ATOM     20  O   LIG    1       23.629 -19.326   3.467  0.00  0.00    -0.378 OA
BRANCH  20  22
ATOM     21  C   LIG    1       22.823 -19.966   5.623  0.00  0.00    +0.034 C 
ATOM     22  C   LIG    1       22.674 -18.992   4.475  0.00  0.00    +0.156 C 
ENDBRANCH  20  22
ENDBRANCH  19  20
ENDBRANCH  18  19
ENDBRANCH   1  18
TORSDOF 5
ENDMDL
