MODEL 1
REMARK VINA RESULT:      -7.7      0.000      0.000
REMARK  Name = *****
REMARK                            x       y       z     vdW  Elec       q    Type
REMARK                         _______ _______ _______ _____ _____    ______ ____
ROOT
ATOM      1  C   LIG    1       29.395 -19.648   5.572  0.00  0.00    +0.086 C 
ATOM      2  C   LIG    1       28.599 -19.788   6.819  0.00  0.00    +0.111 A 
ATOM      3  N   LIG    1       27.287 -20.245   6.888  0.00  0.00    -0.298 N 
ATOM      4  C   LIG    1       26.350 -20.462   5.842  0.00  0.00    +0.057 A 
ATOM      5  C   LIG    1       25.367 -21.467   5.947  0.00  0.00    +0.026 A 
ATOM      6  C   LIG    1       25.356 -22.489   7.043  0.00  0.00    +0.078 C 
ATOM      7  N   LIG    1       25.473 -22.221   8.302  0.00  0.00    -0.276 NA
ATOM      8  C   LIG    1       25.689 -20.849   8.725  0.00  0.00    +0.197 C 
ATOM      9  C   LIG    1       24.383 -21.580   4.950  0.00  0.00    +0.032 A 
ATOM     10  C   LIG    1       24.399 -20.728   3.850  0.00  0.00    +0.042 A 
ATOM     11 CL   LIG    1       23.194 -20.882   2.631  0.00  0.00    -0.084 Cl
ATOM     12  C   LIG    1       25.381 -19.750   3.730  0.00  0.00    +0.022 A 
ATOM     13  C   LIG    1       26.352 -19.610   4.726  0.00  0.00    +0.028 A 
ATOM     14  C   LIG    1       27.004 -20.394   8.231  0.00  0.00    +0.065 A 
ATOM     15  C   LIG    1       28.131 -19.985   8.901  0.00  0.00    +0.136 A 
ATOM     16  N   LIG    1       29.102 -19.597   8.025  0.00  0.00    -0.240 NA
ENDROOT
BRANCH   6  17
ATOM     17  C   LIG    1       25.192 -23.930   6.676  0.00  0.00    +0.036 A 
ATOM     18  C   LIG    1       23.931 -24.521   6.567  0.00  0.00    +0.133 A 
ATOM     19  F   LIG    1       22.813 -23.811   6.780  0.00  0.00    -0.205 F 
ATOM     20  C   LIG    1       23.802 -25.863   6.216  0.00  0.00    +0.039 A 
ATOM     21  C   LIG    1       24.940 -26.625   5.956  0.00  0.00    +0.003 A 
ATOM     22  C   LIG    1       26.204 -26.039   6.040  0.00  0.00    +0.001 A 
ATOM     23  C   LIG    1       26.332 -24.694   6.393  0.00  0.00    +0.013 A 
ENDBRANCH   6  17
TORSDOF 1
ENDMDL
MODEL 2
REMARK VINA RESULT:      -7.2      1.133      1.220
REMARK  Name = *****
REMARK                            x       y       z     vdW  Elec       q    Type
REMARK                         _______ _______ _______ _____ _____    ______ ____
ROOT
ATOM      1  C   LIG    1       27.867 -19.261   4.654  0.00  0.00    +0.086 C 
ATOM      2  C   LIG    1       27.759 -19.715   6.066  0.00  0.00    +0.111 A 
ATOM      3  N   LIG    1       26.691 -20.426   6.602  0.00  0.00    -0.298 N 
ATOM      4  C   LIG    1       25.409 -20.687   6.046  0.00  0.00    +0.057 A 
ATOM      5  C   LIG    1       24.712 -21.871   6.359  0.00  0.00    +0.026 A 
ATOM      6  C   LIG    1       25.327 -23.008   7.118  0.00  0.00    +0.078 C 
ATOM      7  N   LIG    1       25.979 -22.886   8.226  0.00  0.00    -0.276 NA
ATOM      8  C   LIG    1       26.204 -21.563   8.784  0.00  0.00    +0.197 C 
ATOM      9  C   LIG    1       23.399 -22.047   5.888  0.00  0.00    +0.032 A 
ATOM     10  C   LIG    1       22.806 -21.074   5.088  0.00  0.00    +0.042 A 
ATOM     11 CL   LIG    1       21.202 -21.305   4.509  0.00  0.00    -0.084 Cl
ATOM     12  C   LIG    1       23.500 -19.915   4.757  0.00  0.00    +0.022 A 
ATOM     13  C   LIG    1       24.796 -19.715   5.238  0.00  0.00    +0.028 A 
ATOM     14  C   LIG    1       27.079 -20.799   7.873  0.00  0.00    +0.065 A 
ATOM     15  C   LIG    1       28.331 -20.265   8.057  0.00  0.00    +0.136 A 
ATOM     16  N   LIG    1       28.735 -19.585   6.946  0.00  0.00    -0.240 NA
ENDROOT
BRANCH   6  17
ATOM     17  C   LIG    1       25.183 -24.393   6.572  0.00  0.00    +0.036 A 
ATOM     18  C   LIG    1       23.942 -25.031   6.508  0.00  0.00    +0.133 A 
ATOM     19  F   LIG    1       22.825 -24.416   6.928  0.00  0.00    -0.205 F 
ATOM     20  C   LIG    1       23.829 -26.319   5.989  0.00  0.00    +0.039 A 
ATOM     21  C   LIG    1       24.963 -26.977   5.514  0.00  0.00    +0.003 A 
ATOM     22  C   LIG    1       26.205 -26.341   5.554  0.00  0.00    +0.001 A 
ATOM     23  C   LIG    1       26.316 -25.050   6.075  0.00  0.00    +0.013 A 
ENDBRANCH   6  17
TORSDOF 1
ENDMDL
MODEL 3
REMARK VINA RESULT:      -7.0      6.250      9.865
REMARK  Name = *****
REMARK                            x       y       z     vdW  Elec       q    Type
REMARK                         _______ _______ _______ _____ _____    ______ ____
ROOT
ATOM      1  C   LIG    1       28.149 -33.103   6.486  0.00  0.00    +0.086 C 
ATOM      2  C   LIG    1       26.678 -33.024   6.286  0.00  0.00    +0.111 A 
ATOM      3  N   LIG    1       25.846 -32.046   6.819  0.00  0.00    -0.298 N 
ATOM      4  C   LIG    1       26.122 -31.069   7.814  0.00  0.00    +0.057 A 
ATOM      5  C   LIG    1       25.474 -29.817   7.799  0.00  0.00    +0.026 A 
ATOM      6  C   LIG    1       24.621 -29.350   6.658  0.00  0.00    +0.078 C 
ATOM      7  N   LIG    1       23.680 -30.045   6.109  0.00  0.00    -0.276 NA
ATOM      8  C   LIG    1       23.434 -31.404   6.563  0.00  0.00    +0.197 C 
ATOM      9  C   LIG    1       25.680 -28.918   8.859  0.00  0.00    +0.032 A 
ATOM     10  C   LIG    1       26.544 -29.248   9.900  0.00  0.00    +0.042 A 
ATOM     11 CL   LIG    1       26.795 -28.135  11.187  0.00  0.00    -0.084 Cl
ATOM     12  C   LIG    1       27.203 -30.472   9.906  0.00  0.00    +0.022 A 
ATOM     13  C   LIG    1       26.990 -31.386   8.871  0.00  0.00    +0.028 A 
ATOM     14  C   LIG    1       24.608 -32.239   6.240  0.00  0.00    +0.065 A 
ATOM     15  C   LIG    1       24.741 -33.337   5.425  0.00  0.00    +0.136 A 
ATOM     16  N   LIG    1       26.013 -33.825   5.473  0.00  0.00    -0.240 NA
ENDROOT
BRANCH   6  17
ATOM     17  C   LIG    1       24.856 -27.982   6.102  0.00  0.00    +0.036 A 
ATOM     18  C   LIG    1       25.830 -27.741   5.131  0.00  0.00    +0.133 A 
ATOM     19  F   LIG    1       26.590 -28.737   4.651  0.00  0.00    -0.205 F 
ATOM     20  C   LIG    1       26.027 -26.459   4.622  0.00  0.00    +0.039 A 
ATOM     21  C   LIG    1       25.234 -25.405   5.073  0.00  0.00    +0.003 A 
ATOM     22  C   LIG    1       24.243 -25.637   6.028  0.00  0.00    +0.001 A 
ATOM     23  C   LIG    1       24.048 -26.923   6.538  0.00  0.00    +0.013 A 
ENDBRANCH   6  17
TORSDOF 1
ENDMDL
MODEL 4
REMARK VINA RESULT:      -6.2      8.202      9.452
REMARK  Name = *****
REMARK                            x       y       z     vdW  Elec       q    Type
REMARK                         _______ _______ _______ _____ _____    ______ ____
ROOT
ATOM      1  C   LIG    1       27.469 -25.005  14.332  0.00  0.00    +0.086 C 
ATOM      2  C   LIG    1       27.583 -26.463  14.603  0.00  0.00    +0.111 A 
ATOM      3  N   LIG    1       26.614 -27.414  14.304  0.00  0.00    -0.298 N 
ATOM      4  C   LIG    1       25.262 -27.232  13.904  0.00  0.00    +0.057 A 
ATOM      5  C   LIG    1       24.626 -28.163  13.058  0.00  0.00    +0.026 A 
ATOM      6  C   LIG    1       25.356 -29.276  12.369  0.00  0.00    +0.078 C 
ATOM      7  N   LIG    1       26.172 -30.092  12.950  0.00  0.00    -0.276 NA
ATOM      8  C   LIG    1       26.477 -29.918  14.360  0.00  0.00    +0.197 C 
ATOM      9  C   LIG    1       23.257 -28.018  12.775  0.00  0.00    +0.032 A 
ATOM     10  C   LIG    1       22.543 -26.944  13.298  0.00  0.00    +0.042 A 
ATOM     11 CL   LIG    1       20.870 -26.773  12.937  0.00  0.00    -0.084 Cl
ATOM     12  C   LIG    1       23.173 -26.010  14.114  0.00  0.00    +0.022 A 
ATOM     13  C   LIG    1       24.527 -26.154  14.424  0.00  0.00    +0.028 A 
ATOM     14  C   LIG    1       27.196 -28.642  14.544  0.00  0.00    +0.065 A 
ATOM     15  C   LIG    1       28.460 -28.375  15.011  0.00  0.00    +0.136 A 
ATOM     16  N   LIG    1       28.684 -27.030  15.060  0.00  0.00    -0.240 NA
ENDROOT
BRANCH   6  17
ATOM     17  C   LIG    1       25.133 -29.480  10.904  0.00  0.00    +0.036 A 
ATOM     18  C   LIG    1       25.987 -28.924   9.948  0.00  0.00    +0.133 A 
ATOM     19  F   LIG    1       27.050 -28.191  10.312  0.00  0.00    -0.205 F 
ATOM     20  C   LIG    1       25.765 -29.133   8.589  0.00  0.00    +0.039 A 
ATOM     21  C   LIG    1       24.689 -29.916   8.174  0.00  0.00    +0.003 A 
ATOM     22  C   LIG    1       23.842 -30.494   9.121  0.00  0.00    +0.001 A 
ATOM     23  C   LIG    1       24.065 -30.283  10.483  0.00  0.00    +0.013 A 
ENDBRANCH   6  17
TORSDOF 1
ENDMDL
MODEL 5
REMARK VINA RESULT:      -6.2      7.240      9.743
REMARK  Name = *****
REMARK                            x       y       z     vdW  Elec       q    Type
REMARK                         _______ _______ _______ _____ _____    ______ ____
ROOT
ATOM      1  C   LIG    1       27.592 -29.681  10.787  0.00  0.00    +0.086 C 
ATOM      2  C   LIG    1       26.336 -30.471  10.691  0.00  0.00    +0.111 A 
ATOM      3  N   LIG    1       25.519 -30.548   9.568  0.00  0.00    -0.298 N 
ATOM      4  C   LIG    1       25.539 -29.767   8.381  0.00  0.00    +0.057 A 
ATOM      5  C   LIG    1       25.140 -30.316   7.146  0.00  0.00    +0.026 A 
ATOM      6  C   LIG    1       24.863 -31.776   6.950  0.00  0.00    +0.078 C 
ATOM      7  N   LIG    1       24.109 -32.492   7.717  0.00  0.00    -0.276 NA
ATOM      8  C   LIG    1       23.510 -31.891   8.897  0.00  0.00    +0.197 C 
ATOM      9  C   LIG    1       25.059 -29.487   6.013  0.00  0.00    +0.032 A 
ATOM     10  C   LIG    1       25.405 -28.142   6.103  0.00  0.00    +0.042 A 
ATOM     11 CL   LIG    1       25.311 -27.141   4.708  0.00  0.00    -0.084 Cl
ATOM     12  C   LIG    1       25.822 -27.602   7.315  0.00  0.00    +0.022 A 
ATOM     13  C   LIG    1       25.884 -28.407   8.455  0.00  0.00    +0.028 A 
ATOM     14  C   LIG    1       24.580 -31.521   9.844  0.00  0.00    +0.065 A 
ATOM     15  C   LIG    1       24.847 -31.950  11.121  0.00  0.00    +0.136 A 
ATOM     16  N   LIG    1       25.919 -31.287  11.642  0.00  0.00    -0.240 NA
ENDROOT
BRANCH   6  17
ATOM     17  C   LIG    1       25.492 -32.474   5.786  0.00  0.00    +0.036 A 
ATOM     18  C   LIG    1       26.860 -32.751   5.748  0.00  0.00    +0.133 A 
ATOM     19  F   LIG    1       27.665 -32.406   6.765  0.00  0.00    -0.205 F 
ATOM     20  C   LIG    1       27.424 -33.408   4.657  0.00  0.00    +0.039 A 
ATOM     21  C   LIG    1       26.614 -33.810   3.595  0.00  0.00    +0.003 A 
ATOM     22  C   LIG    1       25.242 -33.558   3.632  0.00  0.00    +0.001 A 
ATOM     23  C   LIG    1       24.679 -32.898   4.727  0.00  0.00    +0.013 A 
ENDBRANCH   6  17
TORSDOF 1
ENDMDL
MODEL 6
REMARK VINA RESULT:      -6.0      7.401      9.412
REMARK  Name = *****
REMARK                            x       y       z     vdW  Elec       q    Type
REMARK                         _______ _______ _______ _____ _____    ______ ____
ROOT
ATOM      1  C   LIG    1       23.746 -27.154  13.209  0.00  0.00    +0.086 C 
ATOM      2  C   LIG    1       25.076 -27.711  12.843  0.00  0.00    +0.111 A 
ATOM      3  N   LIG    1       25.293 -28.744  11.937  0.00  0.00    -0.298 N 
ATOM      4  C   LIG    1       24.359 -29.633  11.339  0.00  0.00    +0.057 A 
ATOM      5  C   LIG    1       24.579 -30.153  10.048  0.00  0.00    +0.026 A 
ATOM      6  C   LIG    1       25.677 -29.672   9.148  0.00  0.00    +0.078 C 
ATOM      7  N   LIG    1       26.913 -29.538   9.500  0.00  0.00    -0.276 NA
ATOM      8  C   LIG    1       27.300 -29.808  10.874  0.00  0.00    +0.197 C 
ATOM      9  C   LIG    1       23.699 -31.120   9.531  0.00  0.00    +0.032 A 
ATOM     10  C   LIG    1       22.597 -31.533  10.276  0.00  0.00    +0.042 A 
ATOM     11 CL   LIG    1       21.522 -32.709   9.628  0.00  0.00    -0.084 Cl
ATOM     12  C   LIG    1       22.363 -31.004  11.540  0.00  0.00    +0.022 A 
ATOM     13  C   LIG    1       23.243 -30.061  12.077  0.00  0.00    +0.028 A 
ATOM     14  C   LIG    1       26.660 -28.815  11.758  0.00  0.00    +0.065 A 
ATOM     15  C   LIG    1       27.198 -27.860  12.587  0.00  0.00    +0.136 A 
ATOM     16  N   LIG    1       26.217 -27.198  13.264  0.00  0.00    -0.240 NA
ENDROOT
BRANCH   6  17
ATOM     17  C   LIG    1       25.340 -29.322   7.733  0.00  0.00    +0.036 A 
ATOM     18  C   LIG    1       25.441 -30.259   6.702  0.00  0.00    +0.133 A 
ATOM     19  F   LIG    1       25.839 -31.517   6.945  0.00  0.00    -0.205 F 
ATOM     20  C   LIG    1       25.115 -29.914   5.392  0.00  0.00    +0.039 A 
ATOM     21  C   LIG    1       24.668 -28.625   5.105  0.00  0.00    +0.003 A 
ATOM     22  C   LIG    1       24.542 -27.687   6.131  0.00  0.00    +0.001 A 
ATOM     23  C   LIG    1       24.870 -28.034   7.444  0.00  0.00    +0.013 A 
ENDBRANCH   6  17
TORSDOF 1
ENDMDL
MODEL 7
REMARK VINA RESULT:      -5.9      7.318      9.275
REMARK  Name = *****
REMARK                            x       y       z     vdW  Elec       q    Type
REMARK                         _______ _______ _______ _____ _____    ______ ____
ROOT
ATOM      1  C   LIG    1       24.642 -26.641  13.469  0.00  0.00    +0.086 C 
ATOM      2  C   LIG    1       25.657 -27.655  13.076  0.00  0.00    +0.111 A 
ATOM      3  N   LIG    1       25.432 -28.728  12.221  0.00  0.00    -0.298 N 
ATOM      4  C   LIG    1       24.206 -29.239  11.716  0.00  0.00    +0.057 A 
ATOM      5  C   LIG    1       24.144 -29.850  10.447  0.00  0.00    +0.026 A 
ATOM      6  C   LIG    1       25.283 -29.831   9.473  0.00  0.00    +0.078 C 
ATOM      7  N   LIG    1       26.504 -30.141   9.761  0.00  0.00    -0.276 NA
ATOM      8  C   LIG    1       26.853 -30.483  11.129  0.00  0.00    +0.197 C 
ATOM      9  C   LIG    1       22.945 -30.450  10.025  0.00  0.00    +0.032 A 
ATOM     10  C   LIG    1       21.817 -30.409  10.840  0.00  0.00    +0.042 A 
ATOM     11 CL   LIG    1       20.352 -31.138  10.308  0.00  0.00    -0.084 Cl
ATOM     12  C   LIG    1       21.867 -29.786  12.082  0.00  0.00    +0.022 A 
ATOM     13  C   LIG    1       23.059 -29.207  12.526  0.00  0.00    +0.028 A 
ATOM     14  C   LIG    1       26.668 -29.295  11.985  0.00  0.00    +0.065 A 
ATOM     15  C   LIG    1       27.564 -28.571  12.734  0.00  0.00    +0.136 A 
ATOM     16  N   LIG    1       26.930 -27.574  13.417  0.00  0.00    -0.240 NA
ENDROOT
BRANCH   6  17
ATOM     17  C   LIG    1       25.007 -29.435   8.057  0.00  0.00    +0.036 A 
ATOM     18  C   LIG    1       25.469 -28.226   7.531  0.00  0.00    +0.133 A 
ATOM     19  F   LIG    1       26.189 -27.375   8.278  0.00  0.00    -0.205 F 
ATOM     20  C   LIG    1       25.207 -27.879   6.207  0.00  0.00    +0.039 A 
ATOM     21  C   LIG    1       24.489 -28.752   5.391  0.00  0.00    +0.003 A 
ATOM     22  C   LIG    1       24.041 -29.973   5.900  0.00  0.00    +0.001 A 
ATOM     23  C   LIG    1       24.304 -30.318   7.227  0.00  0.00    +0.013 A 
ENDBRANCH   6  17
TORSDOF 1
ENDMDL
MODEL 8
REMARK VINA RESULT:      -5.8      5.853      9.600
REMARK  Name = *****
REMARK                            x       y       z     vdW  Elec       q    Type
REMARK                         _______ _______ _______ _____ _____    ______ ____
ROOT
ATOM      1  C   LIG    1       22.074 -32.181   9.741  0.00  0.00    +0.086 C 
ATOM      2  C   LIG    1       23.304 -31.561  10.303  0.00  0.00    +0.111 A 
ATOM      3  N   LIG    1       24.397 -31.129   9.560  0.00  0.00    -0.298 N 
ATOM      4  C   LIG    1       24.708 -31.359   8.192  0.00  0.00    +0.057 A 
ATOM      5  C   LIG    1       25.427 -30.407   7.443  0.00  0.00    +0.026 A 
ATOM      6  C   LIG    1       25.739 -29.031   7.950  0.00  0.00    +0.078 C 
ATOM      7  N   LIG    1       26.251 -28.772   9.108  0.00  0.00    -0.276 NA
ATOM      8  C   LIG    1       26.506 -29.858  10.039  0.00  0.00    +0.197 C 
ATOM      9  C   LIG    1       25.820 -30.713   6.128  0.00  0.00    +0.032 A 
ATOM     10  C   LIG    1       25.471 -31.934   5.559  0.00  0.00    +0.042 A 
ATOM     11 CL   LIG    1       25.949 -32.293   3.946  0.00  0.00    -0.084 Cl
ATOM     12  C   LIG    1       24.740 -32.867   6.287  0.00  0.00    +0.022 A 
ATOM     13  C   LIG    1       24.363 -32.587   7.602  0.00  0.00    +0.028 A 
ATOM     14  C   LIG    1       25.219 -30.458  10.443  0.00  0.00    +0.065 A 
ATOM     15  C   LIG    1       24.610 -30.553  11.670  0.00  0.00    +0.136 A 
ATOM     16  N   LIG    1       23.440 -31.248  11.578  0.00  0.00    -0.240 NA
ENDROOT
BRANCH   6  17
ATOM     17  C   LIG    1       25.450 -27.860   7.066  0.00  0.00    +0.036 A 
ATOM     18  C   LIG    1       24.335 -27.832   6.226  0.00  0.00    +0.133 A 
ATOM     19  F   LIG    1       23.471 -28.858   6.187  0.00  0.00    -0.205 F 
ATOM     20  C   LIG    1       24.080 -26.727   5.416  0.00  0.00    +0.039 A 
ATOM     21  C   LIG    1       24.938 -25.629   5.453  0.00  0.00    +0.003 A 
ATOM     22  C   LIG    1       26.044 -25.636   6.305  0.00  0.00    +0.001 A 
ATOM     23  C   LIG    1       26.297 -26.745   7.115  0.00  0.00    +0.013 A 
ENDBRANCH   6  17
TORSDOF 1
ENDMDL
MODEL 9
REMARK VINA RESULT:      -5.7      7.362     10.178
REMARK  Name = *****
REMARK                            x       y       z     vdW  Elec       q    Type
REMARK                         _______ _______ _______ _____ _____    ______ ____
ROOT
ATOM      1  C   LIG    1       25.038 -27.313   6.550  0.00  0.00    +0.086 C 
ATOM      2  C   LIG    1       25.177 -28.786   6.400  0.00  0.00    +0.111 A 
ATOM      3  N   LIG    1       25.315 -29.691   7.447  0.00  0.00    -0.298 N 
ATOM      4  C   LIG    1       25.576 -29.447   8.823  0.00  0.00    +0.057 A 
ATOM      5  C   LIG    1       25.077 -30.311   9.818  0.00  0.00    +0.026 A 
ATOM      6  C   LIG    1       24.094 -31.407   9.534  0.00  0.00    +0.078 C 
ATOM      7  N   LIG    1       24.215 -32.277   8.586  0.00  0.00    -0.276 NA
ATOM      8  C   LIG    1       25.341 -32.189   7.671  0.00  0.00    +0.197 C 
ATOM      9  C   LIG    1       25.448 -30.111  11.159  0.00  0.00    +0.032 A 
ATOM     10  C   LIG    1       26.275 -29.046  11.505  0.00  0.00    +0.042 A 
ATOM     11 CL   LIG    1       26.715 -28.806  13.151  0.00  0.00    -0.084 Cl
ATOM     12  C   LIG    1       26.750 -28.177  10.529  0.00  0.00    +0.022 A 
ATOM     13  C   LIG    1       26.409 -28.378   9.189  0.00  0.00    +0.028 A 
ATOM     14  C   LIG    1       25.224 -30.947   6.882  0.00  0.00    +0.065 A 
ATOM     15  C   LIG    1       25.078 -30.743   5.532  0.00  0.00    +0.136 A 
ATOM     16  N   LIG    1       25.068 -29.410   5.241  0.00  0.00    -0.240 NA
ENDROOT
BRANCH   6  17
ATOM     17  C   LIG    1       22.882 -31.524  10.402  0.00  0.00    +0.036 A 
ATOM     18  C   LIG    1       22.715 -32.590  11.289  0.00  0.00    +0.133 A 
ATOM     19  F   LIG    1       23.646 -33.549  11.403  0.00  0.00    -0.205 F 
ATOM     20  C   LIG    1       21.581 -32.675  12.094  0.00  0.00    +0.039 A 
ATOM     21  C   LIG    1       20.606 -31.681  12.027  0.00  0.00    +0.003 A 
ATOM     22  C   LIG    1       20.773 -30.600  11.160  0.00  0.00    +0.001 A 
ATOM     23  C   LIG    1       21.910 -30.516  10.353  0.00  0.00    +0.013 A 
ENDBRANCH   6  17
TORSDOF 1
ENDMDL
