MODEL 1
REMARK VINA RESULT:      -0.4      0.000      0.000
REMARK  Name = *****
REMARK                            x       y       z     vdW  Elec       q    Type
REMARK                         _______ _______ _______ _____ _____    ______ ____
ROOT
ATOM      1  O   LIG    1       24.358 -18.818   3.283  0.00  0.00    -0.252 OA
ATOM      2  C   LIG    1       24.401 -17.636   3.586  0.00  0.00    +0.306 C 
ATOM      3  N   LIG    1       25.520 -16.792   3.515  0.00  0.00    -0.271 N 
ATOM      4  C   LIG    1       25.283 -15.630   4.368  0.00  0.00    +0.155 C 
ATOM      5  C   LIG    1       23.762 -15.501   4.320  0.00  0.00    +0.152 C 
ATOM      6  C   LIG    1       23.419 -14.629   3.104  0.00  0.00    +0.302 C 
ATOM      7  S   LIG    1       24.847 -13.566   2.648  0.00  0.00    -0.004 S 
ATOM      8  C   LIG    1       24.425 -12.124   3.679  0.00  0.00    +0.278 C 
ATOM      9  C   LIG    1       24.721 -12.468   5.122  0.00  0.00    +0.059 C 
ATOM     10  C   LIG    1       26.004 -13.282   5.094  0.00  0.00    +0.064 C 
ATOM     11  C   LIG    1       25.915 -14.305   3.955  0.00  0.00    +0.230 C 
ATOM     12  N   LIG    1       23.359 -16.886   4.138  0.00  0.00    -0.272 N 
ENDROOT
BRANCH   3  13
ATOM     13  C   LIG    1       26.840 -17.307   3.203  0.00  0.00    +0.145 C 
BRANCH  13  14
ATOM     14  C   LIG    1       27.444 -18.121   4.324  0.00  0.00    -0.030 A 
ATOM     15  C   LIG    1       26.799 -19.272   4.803  0.00  0.00    +0.005 A 
ATOM     16  C   LIG    1       27.376 -20.039   5.816  0.00  0.00    +0.000 A 
ATOM     17  C   LIG    1       28.598 -19.658   6.369  0.00  0.00    +0.000 A 
ATOM     18  C   LIG    1       29.246 -18.515   5.906  0.00  0.00    +0.000 A 
ATOM     19  C   LIG    1       28.676 -17.754   4.884  0.00  0.00    +0.005 A 
ENDBRANCH  13  14
ENDBRANCH   3  13
BRANCH  12  20
ATOM     20  C   LIG    1       22.181 -17.473   4.739  0.00  0.00    +0.145 C 
BRANCH  20  21
ATOM     21  C   LIG    1       22.371 -18.900   5.179  0.00  0.00    -0.030 A 
ATOM     22  C   LIG    1       23.150 -19.207   6.303  0.00  0.00    +0.005 A 
ATOM     23  C   LIG    1       23.345 -20.534   6.689  0.00  0.00    +0.000 A 
ATOM     24  C   LIG    1       22.780 -21.569   5.946  0.00  0.00    +0.000 A 
ATOM     25  C   LIG    1       22.001 -21.275   4.828  0.00  0.00    +0.000 A 
ATOM     26  C   LIG    1       21.782 -19.948   4.456  0.00  0.00    +0.005 A 
ENDBRANCH  20  21
ENDBRANCH  12  20
TORSDOF 4
ENDMDL
MODEL 2
REMARK VINA RESULT:       1.0      2.064      3.242
REMARK  Name = *****
REMARK                            x       y       z     vdW  Elec       q    Type
REMARK                         _______ _______ _______ _____ _____    ______ ____
ROOT
ATOM      1  O   LIG    1       25.149 -17.867   3.480  0.00  0.00    -0.252 OA
ATOM      2  C   LIG    1       24.793 -16.719   3.691  0.00  0.00    +0.306 C 
ATOM      3  N   LIG    1       25.614 -15.581   3.742  0.00  0.00    -0.271 N 
ATOM      4  C   LIG    1       24.899 -14.521   4.448  0.00  0.00    +0.155 C 
ATOM      5  C   LIG    1       23.442 -14.852   4.136  0.00  0.00    +0.152 C 
ATOM      6  C   LIG    1       23.092 -14.154   2.814  0.00  0.00    +0.302 C 
ATOM      7  S   LIG    1       24.211 -12.726   2.522  0.00  0.00    -0.004 S 
ATOM      8  C   LIG    1       23.209 -11.449   3.349  0.00  0.00    +0.278 C 
ATOM      9  C   LIG    1       23.322 -11.651   4.844  0.00  0.00    +0.059 C 
ATOM     10  C   LIG    1       24.766 -12.046   5.097  0.00  0.00    +0.064 C 
ATOM     11  C   LIG    1       25.187 -13.079   4.043  0.00  0.00    +0.230 C 
ATOM     12  N   LIG    1       23.496 -16.299   4.000  0.00  0.00    -0.272 N 
ENDROOT
BRANCH   3  13
ATOM     13  C   LIG    1       27.060 -15.688   3.698  0.00  0.00    +0.145 C 
BRANCH  13  14
ATOM     14  C   LIG    1       27.766 -14.424   4.132  0.00  0.00    -0.030 A 
ATOM     15  C   LIG    1       28.468 -13.640   3.203  0.00  0.00    +0.005 A 
ATOM     16  C   LIG    1       29.092 -12.457   3.601  0.00  0.00    +0.000 A 
ATOM     17  C   LIG    1       29.031 -12.050   4.933  0.00  0.00    +0.000 A 
ATOM     18  C   LIG    1       28.342 -12.823   5.866  0.00  0.00    +0.000 A 
ATOM     19  C   LIG    1       27.707 -14.000   5.466  0.00  0.00    +0.005 A 
ENDBRANCH  13  14
ENDBRANCH   3  13
BRANCH  12  20
ATOM     20  C   LIG    1       22.448 -17.194   4.438  0.00  0.00    +0.145 C 
BRANCH  20  21
ATOM     21  C   LIG    1       22.884 -18.631   4.551  0.00  0.00    -0.030 A 
ATOM     22  C   LIG    1       23.367 -19.324   3.432  0.00  0.00    +0.005 A 
ATOM     23  C   LIG    1       23.743 -20.664   3.537  0.00  0.00    +0.000 A 
ATOM     24  C   LIG    1       23.623 -21.330   4.755  0.00  0.00    +0.000 A 
ATOM     25  C   LIG    1       23.146 -20.651   5.875  0.00  0.00    +0.000 A 
ATOM     26  C   LIG    1       22.794 -19.303   5.778  0.00  0.00    +0.005 A 
ENDBRANCH  20  21
ENDBRANCH  12  20
TORSDOF 4
ENDMDL
MODEL 3
REMARK VINA RESULT:       1.7      1.814      6.020
REMARK  Name = *****
REMARK                            x       y       z     vdW  Elec       q    Type
REMARK                         _______ _______ _______ _____ _____    ______ ____
ROOT
ATOM      1  O   LIG    1       25.900 -15.634   2.854  0.00  0.00    -0.252 OA
ATOM      2  C   LIG    1       25.408 -16.650   3.320  0.00  0.00    +0.306 C 
ATOM      3  N   LIG    1       24.077 -16.825   3.733  0.00  0.00    -0.271 N 
ATOM      4  C   LIG    1       24.012 -17.983   4.621  0.00  0.00    +0.155 C 
ATOM      5  C   LIG    1       25.161 -18.847   4.106  0.00  0.00    +0.152 C 
ATOM      6  C   LIG    1       24.597 -19.727   2.982  0.00  0.00    +0.302 C 
ATOM      7  S   LIG    1       22.779 -19.923   3.165  0.00  0.00    -0.004 S 
ATOM      8  C   LIG    1       22.792 -21.423   4.200  0.00  0.00    +0.278 C 
ATOM      9  C   LIG    1       23.221 -21.032   5.597  0.00  0.00    +0.059 C 
ATOM     10  C   LIG    1       22.565 -19.689   5.867  0.00  0.00    +0.064 C 
ATOM     11  C   LIG    1       22.727 -18.803   4.625  0.00  0.00    +0.230 C 
ATOM     12  N   LIG    1       26.083 -17.838   3.610  0.00  0.00    -0.272 N 
ENDROOT
BRANCH   3  13
ATOM     13  C   LIG    1       23.149 -15.711   3.791  0.00  0.00    +0.145 C 
BRANCH  13  14
ATOM     14  C   LIG    1       23.830 -14.372   3.955  0.00  0.00    -0.030 A 
ATOM     15  C   LIG    1       23.713 -13.382   2.968  0.00  0.00    +0.005 A 
ATOM     16  C   LIG    1       24.317 -12.135   3.137  0.00  0.00    +0.000 A 
ATOM     17  C   LIG    1       25.054 -11.869   4.290  0.00  0.00    +0.000 A 
ATOM     18  C   LIG    1       25.182 -12.845   5.276  0.00  0.00    +0.000 A 
ATOM     19  C   LIG    1       24.568 -14.088   5.113  0.00  0.00    +0.005 A 
ENDBRANCH  13  14
ENDBRANCH   3  13
BRANCH  12  20
ATOM     20  C   LIG    1       27.523 -17.937   3.710  0.00  0.00    +0.145 C 
BRANCH  20  21
ATOM     21  C   LIG    1       27.995 -18.734   4.897  0.00  0.00    -0.030 A 
ATOM     22  C   LIG    1       29.022 -18.256   5.722  0.00  0.00    +0.005 A 
ATOM     23  C   LIG    1       29.474 -19.013   6.803  0.00  0.00    +0.000 A 
ATOM     24  C   LIG    1       28.918 -20.264   7.062  0.00  0.00    +0.000 A 
ATOM     25  C   LIG    1       27.894 -20.750   6.251  0.00  0.00    +0.000 A 
ATOM     26  C   LIG    1       27.422 -19.982   5.184  0.00  0.00    +0.005 A 
ENDBRANCH  20  21
ENDBRANCH  12  20
TORSDOF 4
ENDMDL
