MODEL 1
REMARK VINA RESULT:       5.4      0.000      0.000
REMARK  Name = *****
REMARK                            x       y       z     vdW  Elec       q    Type
REMARK                         _______ _______ _______ _____ _____    ______ ____
ROOT
ATOM      1  C   LIG    1       23.988 -18.291   4.064  0.00  0.00    +0.059 C 
ENDROOT
BRANCH   1   2
ATOM      2  C   LIG    1       24.211 -19.403   5.159  0.00  0.00    -0.033 A 
ATOM      3  C   LIG    1       23.159 -19.844   5.996  0.00  0.00    +0.005 A 
ATOM      4  C   LIG    1       23.333 -20.861   6.945  0.00  0.00    +0.000 A 
ATOM      5  C   LIG    1       24.556 -21.505   7.061  0.00  0.00    +0.000 A 
ATOM      6  C   LIG    1       25.609 -21.111   6.247  0.00  0.00    +0.000 A 
ATOM      7  C   LIG    1       25.444 -20.063   5.330  0.00  0.00    +0.005 A 
ENDBRANCH   1   2
BRANCH   1   8
ATOM      8  C   LIG    1       23.338 -16.941   4.570  0.00  0.00    -0.033 A 
ATOM      9  C   LIG    1       23.797 -15.682   4.129  0.00  0.00    +0.005 A 
ATOM     10  C   LIG    1       23.296 -14.479   4.651  0.00  0.00    +0.000 A 
ATOM     11  C   LIG    1       22.350 -14.491   5.666  0.00  0.00    +0.000 A 
ATOM     12  C   LIG    1       21.868 -15.710   6.125  0.00  0.00    +0.000 A 
ATOM     13  C   LIG    1       22.345 -16.912   5.577  0.00  0.00    +0.005 A 
ENDBRANCH   1   8
BRANCH   1  14
ATOM     14  C   LIG    1       22.981 -18.902   2.922  0.00  0.00    +0.191 C 
BRANCH  14  16
ATOM     15  C   LIG    1       23.509 -21.465   2.958  0.00  0.00    +0.007 C 
ATOM     16  C   LIG    1       23.537 -20.150   2.175  0.00  0.00    +0.042 C 
ENDBRANCH  14  16
BRANCH  14  17
ATOM     17  O   LIG    1       21.692 -19.251   3.490  0.00  0.00    -0.460 OA
BRANCH  17  18
ATOM     18  C   LIG    1       20.606 -18.569   3.025  0.00  0.00    +0.304 C 
ATOM     19  O   LIG    1       20.578 -17.559   2.333  0.00  0.00    -0.251 OA
ATOM     20  C   LIG    1       19.368 -19.358   3.453  0.00  0.00    +0.136 C 
ENDBRANCH  17  18
ENDBRANCH  14  17
ENDBRANCH   1  14
BRANCH   1  21
ATOM     21  C   LIG    1       25.391 -18.010   3.327  0.00  0.00    +0.038 C 
BRANCH  21  22
ATOM     22  C   LIG    1       26.581 -17.245   4.044  0.00  0.00    +0.054 C 
ATOM     23  C   LIG    1       27.768 -18.180   4.320  0.00  0.00    +0.024 C 
BRANCH  22  24
ATOM     24  N   LIG    1       27.072 -16.081   3.221  0.00  0.00    -0.306 NA
ATOM     25  C   LIG    1       27.814 -15.083   4.015  0.00  0.00    +0.105 C 
ATOM     26  C   LIG    1       25.991 -15.367   2.531  0.00  0.00    +0.105 C 
ENDBRANCH  22  24
ENDBRANCH  21  22
ENDBRANCH   1  21
TORSDOF 9
ENDMDL
MODEL 2
REMARK VINA RESULT:       5.6      2.573      5.263
REMARK  Name = *****
REMARK                            x       y       z     vdW  Elec       q    Type
REMARK                         _______ _______ _______ _____ _____    ______ ____
ROOT
ATOM      1  C   LIG    1       25.830 -15.150   3.682  0.00  0.00    +0.059 C 
ENDROOT
BRANCH   1   2
ATOM      2  C   LIG    1       26.154 -16.688   3.790  0.00  0.00    -0.033 A 
ATOM      3  C   LIG    1       27.403 -17.154   4.264  0.00  0.00    +0.005 A 
ATOM      4  C   LIG    1       27.689 -18.519   4.404  0.00  0.00    +0.000 A 
ATOM      5  C   LIG    1       26.720 -19.468   4.117  0.00  0.00    +0.000 A 
ATOM      6  C   LIG    1       25.476 -19.051   3.663  0.00  0.00    +0.000 A 
ATOM      7  C   LIG    1       25.208 -17.686   3.481  0.00  0.00    +0.005 A 
ENDBRANCH   1   2
BRANCH   1   8
ATOM      8  C   LIG    1       26.999 -14.166   4.088  0.00  0.00    -0.033 A 
ATOM      9  C   LIG    1       27.008 -13.488   5.324  0.00  0.00    +0.005 A 
ATOM     10  C   LIG    1       27.986 -12.535   5.649  0.00  0.00    +0.000 A 
ATOM     11  C   LIG    1       28.967 -12.191   4.729  0.00  0.00    +0.000 A 
ATOM     12  C   LIG    1       28.996 -12.838   3.500  0.00  0.00    +0.000 A 
ATOM     13  C   LIG    1       28.038 -13.817   3.192  0.00  0.00    +0.005 A 
ENDBRANCH   1   8
BRANCH   1  14
ATOM     14  C   LIG    1       24.571 -14.827   4.684  0.00  0.00    +0.191 C 
BRANCH  14  16
ATOM     15  C   LIG    1       23.046 -12.906   5.597  0.00  0.00    +0.007 C 
ATOM     16  C   LIG    1       24.417 -13.324   5.059  0.00  0.00    +0.042 C 
ENDBRANCH  14  16
BRANCH  14  17
ATOM     17  O   LIG    1       23.317 -15.283   4.115  0.00  0.00    -0.460 OA
BRANCH  17  18
ATOM     18  C   LIG    1       22.475 -15.968   4.941  0.00  0.00    +0.304 C 
ATOM     19  O   LIG    1       21.899 -15.569   5.945  0.00  0.00    -0.251 OA
ATOM     20  C   LIG    1       22.286 -17.358   4.331  0.00  0.00    +0.136 C 
ENDBRANCH  17  18
ENDBRANCH  14  17
ENDBRANCH   1  14
BRANCH   1  21
ATOM     21  C   LIG    1       25.312 -14.838   2.191  0.00  0.00    +0.038 C 
BRANCH  21  22
ATOM     22  C   LIG    1       24.604 -13.471   1.813  0.00  0.00    +0.054 C 
ATOM     23  C   LIG    1       23.077 -13.573   1.933  0.00  0.00    +0.024 C 
BRANCH  22  24
ATOM     24  N   LIG    1       25.077 -12.338   2.688  0.00  0.00    -0.306 NA
ATOM     25  C   LIG    1       23.983 -11.453   3.132  0.00  0.00    +0.105 C 
ATOM     26  C   LIG    1       26.083 -11.489   2.038  0.00  0.00    +0.105 C 
ENDBRANCH  22  24
ENDBRANCH  21  22
ENDBRANCH   1  21
TORSDOF 9
ENDMDL
MODEL 3
REMARK VINA RESULT:       6.9      2.809      5.766
REMARK  Name = *****
REMARK                            x       y       z     vdW  Elec       q    Type
REMARK                         _______ _______ _______ _____ _____    ______ ____
ROOT
ATOM      1  C   LIG    1       25.270 -15.277   3.574  0.00  0.00    +0.059 C 
ENDROOT
BRANCH   1   2
ATOM      2  C   LIG    1       23.931 -15.584   4.345  0.00  0.00    -0.033 A 
ATOM      3  C   LIG    1       23.156 -16.733   4.062  0.00  0.00    +0.005 A 
ATOM      4  C   LIG    1       21.985 -17.039   4.769  0.00  0.00    +0.000 A 
ATOM      5  C   LIG    1       21.570 -16.230   5.817  0.00  0.00    +0.000 A 
ATOM      6  C   LIG    1       22.312 -15.101   6.136  0.00  0.00    +0.000 A 
ATOM      7  C   LIG    1       23.458 -14.773   5.396  0.00  0.00    +0.005 A 
ENDBRANCH   1   2
BRANCH   1   8
ATOM      8  C   LIG    1       26.369 -14.480   4.384  0.00  0.00    -0.033 A 
ATOM      9  C   LIG    1       26.036 -13.647   5.472  0.00  0.00    +0.005 A 
ATOM     10  C   LIG    1       26.991 -12.856   6.129  0.00  0.00    +0.000 A 
ATOM     11  C   LIG    1       28.308 -12.833   5.693  0.00  0.00    +0.000 A 
ATOM     12  C   LIG    1       28.679 -13.642   4.627  0.00  0.00    +0.000 A 
ATOM     13  C   LIG    1       27.729 -14.460   3.993  0.00  0.00    +0.005 A 
ENDBRANCH   1   8
BRANCH   1  14
ATOM     14  C   LIG    1       24.899 -14.368   2.259  0.00  0.00    +0.191 C 
BRANCH  14  16
ATOM     15  C   LIG    1       23.757 -12.487   3.676  0.00  0.00    +0.007 C 
ATOM     16  C   LIG    1       23.686 -13.413   2.459  0.00  0.00    +0.042 C 
ENDBRANCH  14  16
BRANCH  14  17
ATOM     17  O   LIG    1       26.036 -13.573   1.832  0.00  0.00    -0.460 OA
BRANCH  17  18
ATOM     18  C   LIG    1       25.944 -12.223   2.000  0.00  0.00    +0.304 C 
ATOM     19  O   LIG    1       24.975 -11.496   1.820  0.00  0.00    -0.251 OA
ATOM     20  C   LIG    1       27.285 -11.751   2.562  0.00  0.00    +0.136 C 
ENDBRANCH  17  18
ENDBRANCH  14  17
ENDBRANCH   1  14
BRANCH   1  21
ATOM     21  C   LIG    1       25.867 -16.663   3.012  0.00  0.00    +0.038 C 
BRANCH  21  22
ATOM     22  C   LIG    1       25.668 -18.037   3.777  0.00  0.00    +0.054 C 
ATOM     23  C   LIG    1       24.844 -19.032   2.946  0.00  0.00    +0.024 C 
BRANCH  22  24
ATOM     24  N   LIG    1       26.987 -18.680   4.121  0.00  0.00    -0.306 NA
ATOM     25  C   LIG    1       26.865 -19.751   5.129  0.00  0.00    +0.105 C 
ATOM     26  C   LIG    1       27.980 -17.724   4.625  0.00  0.00    +0.105 C 
ENDBRANCH  22  24
ENDBRANCH  21  22
ENDBRANCH   1  21
TORSDOF 9
ENDMDL
MODEL 4
REMARK VINA RESULT:       7.6      1.383      2.063
REMARK  Name = *****
REMARK                            x       y       z     vdW  Elec       q    Type
REMARK                         _______ _______ _______ _____ _____    ______ ____
ROOT
ATOM      1  C   LIG    1       24.730 -18.138   3.917  0.00  0.00    +0.059 C 
ENDROOT
BRANCH   1   2
ATOM      2  C   LIG    1       25.456 -19.069   4.961  0.00  0.00    -0.033 A 
ATOM      3  C   LIG    1       26.862 -19.220   4.972  0.00  0.00    +0.005 A 
ATOM      4  C   LIG    1       27.524 -20.011   5.921  0.00  0.00    +0.000 A 
ATOM      5  C   LIG    1       26.805 -20.645   6.924  0.00  0.00    +0.000 A 
ATOM      6  C   LIG    1       25.424 -20.509   6.957  0.00  0.00    +0.000 A 
ATOM      7  C   LIG    1       24.762 -19.753   5.979  0.00  0.00    +0.005 A 
ENDBRANCH   1   2
BRANCH   1   8
ATOM      8  C   LIG    1       23.633 -17.162   4.503  0.00  0.00    -0.033 A 
ATOM      9  C   LIG    1       23.776 -15.760   4.446  0.00  0.00    +0.005 A 
ATOM     10  C   LIG    1       22.860 -14.889   5.056  0.00  0.00    +0.000 A 
ATOM     11  C   LIG    1       21.790 -15.389   5.785  0.00  0.00    +0.000 A 
ATOM     12  C   LIG    1       21.610 -16.764   5.862  0.00  0.00    +0.000 A 
ATOM     13  C   LIG    1       22.509 -17.634   5.221  0.00  0.00    +0.005 A 
ENDBRANCH   1   8
BRANCH   1  14
ATOM     14  C   LIG    1       23.971 -19.100   2.825  0.00  0.00    +0.191 C 
BRANCH  14  16
ATOM     15  C   LIG    1       26.012 -20.391   1.815  0.00  0.00    +0.007 C 
ATOM     16  C   LIG    1       24.680 -20.462   2.566  0.00  0.00    +0.042 C 
ENDBRANCH  14  16
BRANCH  14  17
ATOM     17  O   LIG    1       22.603 -19.371   3.226  0.00  0.00    -0.460 OA
BRANCH  17  18
ATOM     18  C   LIG    1       22.371 -20.547   3.879  0.00  0.00    +0.304 C 
ATOM     19  O   LIG    1       23.184 -21.357   4.305  0.00  0.00    -0.251 OA
ATOM     20  C   LIG    1       20.859 -20.652   4.082  0.00  0.00    +0.136 C 
ENDBRANCH  17  18
ENDBRANCH  14  17
ENDBRANCH   1  14
BRANCH   1  21
ATOM     21  C   LIG    1       25.847 -17.318   3.098  0.00  0.00    +0.038 C 
BRANCH  21  22
ATOM     22  C   LIG    1       26.471 -15.967   3.646  0.00  0.00    +0.054 C 
ATOM     23  C   LIG    1       27.845 -16.200   4.290  0.00  0.00    +0.024 C 
BRANCH  22  24
ATOM     24  N   LIG    1       26.623 -14.940   2.553  0.00  0.00    -0.306 NA
ATOM     25  C   LIG    1       27.689 -13.957   2.826  0.00  0.00    +0.105 C 
ATOM     26  C   LIG    1       25.392 -14.183   2.297  0.00  0.00    +0.105 C 
ENDBRANCH  22  24
ENDBRANCH  21  22
ENDBRANCH   1  21
TORSDOF 9
ENDMDL
MODEL 5
REMARK VINA RESULT:       7.8      1.838      4.146
REMARK  Name = *****
REMARK                            x       y       z     vdW  Elec       q    Type
REMARK                         _______ _______ _______ _____ _____    ______ ____
ROOT
ATOM      1  C   LIG    1       25.733 -17.635   3.802  0.00  0.00    +0.059 C 
ENDROOT
BRANCH   1   2
ATOM      2  C   LIG    1       26.564 -18.506   4.818  0.00  0.00    -0.033 A 
ATOM      3  C   LIG    1       25.941 -19.424   5.695  0.00  0.00    +0.005 A 
ATOM      4  C   LIG    1       26.672 -20.235   6.574  0.00  0.00    +0.000 A 
ATOM      5  C   LIG    1       28.058 -20.189   6.577  0.00  0.00    +0.000 A 
ATOM      6  C   LIG    1       28.709 -19.311   5.721  0.00  0.00    +0.000 A 
ATOM      7  C   LIG    1       27.972 -18.469   4.875  0.00  0.00    +0.005 A 
ENDBRANCH   1   2
BRANCH   1   8
ATOM      8  C   LIG    1       26.331 -16.213   3.457  0.00  0.00    -0.033 A 
ATOM      9  C   LIG    1       27.474 -15.706   4.110  0.00  0.00    +0.005 A 
ATOM     10  C   LIG    1       27.950 -14.405   3.885  0.00  0.00    +0.000 A 
ATOM     11  C   LIG    1       27.273 -13.545   3.030  0.00  0.00    +0.000 A 
ATOM     12  C   LIG    1       26.146 -14.007   2.363  0.00  0.00    +0.000 A 
ATOM     13  C   LIG    1       25.692 -15.321   2.563  0.00  0.00    +0.005 A 
ENDBRANCH   1   8
BRANCH   1  14
ATOM     14  C   LIG    1       24.249 -17.377   4.454  0.00  0.00    +0.191 C 
BRANCH  14  16
ATOM     15  C   LIG    1       22.454 -15.599   5.136  0.00  0.00    +0.007 C 
ATOM     16  C   LIG    1       23.821 -15.881   4.509  0.00  0.00    +0.042 C 
ENDBRANCH  14  16
BRANCH  14  17
ATOM     17  O   LIG    1       23.225 -18.115   3.736  0.00  0.00    -0.460 OA
BRANCH  17  18
ATOM     18  C   LIG    1       22.258 -18.718   4.485  0.00  0.00    +0.304 C 
ATOM     19  O   LIG    1       22.354 -19.212   5.602  0.00  0.00    -0.251 OA
ATOM     20  C   LIG    1       20.948 -18.593   3.706  0.00  0.00    +0.136 C 
ENDBRANCH  17  18
ENDBRANCH  14  17
ENDBRANCH   1  14
BRANCH   1  21
ATOM     21  C   LIG    1       25.495 -18.496   2.463  0.00  0.00    +0.038 C 
BRANCH  21  22
ATOM     22  C   LIG    1       25.425 -20.080   2.482  0.00  0.00    +0.054 C 
ATOM     23  C   LIG    1       26.638 -20.691   3.198  0.00  0.00    +0.024 C 
BRANCH  22  24
ATOM     24  N   LIG    1       24.172 -20.575   3.158  0.00  0.00    -0.306 NA
ATOM     25  C   LIG    1       24.437 -21.570   4.214  0.00  0.00    +0.105 C 
ATOM     26  C   LIG    1       23.214 -21.180   2.224  0.00  0.00    +0.105 C 
ENDBRANCH  22  24
ENDBRANCH  21  22
ENDBRANCH   1  21
TORSDOF 9
ENDMDL
MODEL 6
REMARK VINA RESULT:       8.1      3.017      5.386
REMARK  Name = *****
REMARK                            x       y       z     vdW  Elec       q    Type
REMARK                         _______ _______ _______ _____ _____    ______ ____
ROOT
ATOM      1  C   LIG    1       25.476 -15.337   3.839  0.00  0.00    +0.059 C 
ENDROOT
BRANCH   1   2
ATOM      2  C   LIG    1       24.214 -16.272   3.973  0.00  0.00    -0.033 A 
ATOM      3  C   LIG    1       24.245 -17.626   3.565  0.00  0.00    +0.005 A 
ATOM      4  C   LIG    1       23.143 -18.479   3.717  0.00  0.00    +0.000 A 
ATOM      5  C   LIG    1       21.984 -18.021   4.324  0.00  0.00    +0.000 A 
ATOM      6  C   LIG    1       21.919 -16.702   4.752  0.00  0.00    +0.000 A 
ATOM      7  C   LIG    1       23.007 -15.839   4.557  0.00  0.00    +0.005 A 
ENDBRANCH   1   2
BRANCH   1   8
ATOM      8  C   LIG    1       25.516 -14.085   4.804  0.00  0.00    -0.033 A 
ATOM      9  C   LIG    1       24.478 -13.131   4.830  0.00  0.00    +0.005 A 
ATOM     10  C   LIG    1       24.554 -11.964   5.606  0.00  0.00    +0.000 A 
ATOM     11  C   LIG    1       25.692 -11.686   6.351  0.00  0.00    +0.000 A 
ATOM     12  C   LIG    1       26.735 -12.602   6.356  0.00  0.00    +0.000 A 
ATOM     13  C   LIG    1       26.642 -13.787   5.607  0.00  0.00    +0.005 A 
ENDBRANCH   1   8
BRANCH   1  14
ATOM     14  C   LIG    1       25.512 -14.754   2.306  0.00  0.00    +0.191 C 
BRANCH  14  16
ATOM     15  C   LIG    1       23.178 -13.678   1.812  0.00  0.00    +0.007 C 
ATOM     16  C   LIG    1       24.668 -13.464   2.088  0.00  0.00    +0.042 C 
ENDBRANCH  14  16
BRANCH  14  17
ATOM     17  O   LIG    1       26.873 -14.483   1.880  0.00  0.00    -0.460 OA
BRANCH  17  18
ATOM     18  C   LIG    1       27.556 -13.522   2.566  0.00  0.00    +0.304 C 
ATOM     19  O   LIG    1       28.605 -13.629   3.189  0.00  0.00    -0.251 OA
ATOM     20  C   LIG    1       26.811 -12.205   2.349  0.00  0.00    +0.136 C 
ENDBRANCH  17  18
ENDBRANCH  14  17
ENDBRANCH   1  14
BRANCH   1  21
ATOM     21  C   LIG    1       26.800 -16.236   4.013  0.00  0.00    +0.038 C 
BRANCH  21  22
ATOM     22  C   LIG    1       26.734 -17.811   4.180  0.00  0.00    +0.054 C 
ATOM     23  C   LIG    1       26.275 -18.498   2.885  0.00  0.00    +0.024 C 
BRANCH  22  24
ATOM     24  N   LIG    1       28.069 -18.386   4.579  0.00  0.00    -0.306 NA
ATOM     25  C   LIG    1       27.953 -19.557   5.470  0.00  0.00    +0.105 C 
ATOM     26  C   LIG    1       28.938 -17.414   5.252  0.00  0.00    +0.105 C 
ENDBRANCH  22  24
ENDBRANCH  21  22
ENDBRANCH   1  21
TORSDOF 9
ENDMDL
