MODEL 1
REMARK VINA RESULT:      -9.0      0.000      0.000
REMARK  Name = *****
REMARK                            x       y       z     vdW  Elec       q    Type
REMARK                         _______ _______ _______ _____ _____    ______ ____
ROOT
ATOM      1  C   LIG    1       25.906 -21.968   6.370  0.00  0.00    +0.170 C 
ENDROOT
BRANCH   1   2
ATOM      2  C   LIG    1       24.867 -21.011   5.788  0.00  0.00    +0.001 A 
ATOM      3  C   LIG    1       23.606 -20.794   6.377  0.00  0.00    +0.048 A 
ATOM      4 CL   LIG    1       23.155 -21.522   7.878  0.00  0.00    -0.083 Cl
ATOM      5  C   LIG    1       22.652 -19.967   5.767  0.00  0.00    +0.040 A 
ATOM      6  C   LIG    1       22.953 -19.325   4.571  0.00  0.00    +0.042 A 
ATOM      7 CL   LIG    1       21.785 -18.304   3.826  0.00  0.00    -0.084 Cl
ATOM      8  C   LIG    1       24.198 -19.501   3.978  0.00  0.00    +0.020 A 
ATOM      9  C   LIG    1       25.142 -20.344   4.576  0.00  0.00    +0.009 A 
ENDBRANCH   1   2
BRANCH   1  10
ATOM     10  O   LIG    1       26.646 -21.254   7.376  0.00  0.00    -0.365 OA
BRANCH  10  11
ATOM     11  C   LIG    1       27.974 -21.754   7.540  0.00  0.00    +0.198 C 
BRANCH  11  14
ATOM     12 CL   LIG    1       30.924 -21.614   9.015  0.00  0.00    -0.075 Cl
ATOM     13  C   LIG    1       30.218 -20.563   7.848  0.00  0.00    +0.083 A 
ATOM     14  C   LIG    1       28.974 -20.677   7.266  0.00  0.00    +0.004 A 
ATOM     15  C   LIG    1       28.768 -19.595   6.339  0.00  0.00    +0.015 A 
ATOM     16  C   LIG    1       29.843 -18.733   6.277  0.00  0.00    +0.047 A 
ATOM     17  S   LIG    1       31.105 -19.217   7.325  0.00  0.00    -0.085 S 
ENDBRANCH  11  14
ENDBRANCH  10  11
ENDBRANCH   1  10
BRANCH   1  18
ATOM     18  C   LIG    1       25.268 -23.202   7.038  0.00  0.00    +0.159 C 
BRANCH  18  19
ATOM     19  N   LIG    1       25.472 -24.419   6.258  0.00  0.00    -0.334 N 
ATOM     20  C   LIG    1       25.068 -24.634   4.973  0.00  0.00    +0.199 A 
ATOM     21  N   LIG    1       25.403 -25.840   4.560  0.00  0.00    -0.244 NA
ATOM     22  C   LIG    1       26.021 -26.431   5.629  0.00  0.00    +0.130 A 
ATOM     23  C   LIG    1       26.071 -25.566   6.701  0.00  0.00    +0.107 A 
ENDBRANCH  18  19
ENDBRANCH   1  18
TORSDOF 6
ENDMDL
MODEL 2
REMARK VINA RESULT:      -8.7      1.325      1.664
REMARK  Name = *****
REMARK                            x       y       z     vdW  Elec       q    Type
REMARK                         _______ _______ _______ _____ _____    ______ ____
ROOT
ATOM      1  C   LIG    1       25.741 -21.790   6.423  0.00  0.00    +0.170 C 
ENDROOT
BRANCH   1   2
ATOM      2  C   LIG    1       24.676 -20.941   5.732  0.00  0.00    +0.001 A 
ATOM      3  C   LIG    1       24.971 -20.021   4.706  0.00  0.00    +0.048 A 
ATOM      4 CL   LIG    1       26.565 -19.842   4.063  0.00  0.00    -0.083 Cl
ATOM      5  C   LIG    1       23.974 -19.204   4.153  0.00  0.00    +0.040 A 
ATOM      6  C   LIG    1       22.662 -19.312   4.601  0.00  0.00    +0.042 A 
ATOM      7 CL   LIG    1       21.437 -18.316   3.917  0.00  0.00    -0.084 Cl
ATOM      8  C   LIG    1       22.336 -20.226   5.595  0.00  0.00    +0.020 A 
ATOM      9  C   LIG    1       23.335 -21.026   6.162  0.00  0.00    +0.009 A 
ENDBRANCH   1   2
BRANCH   1  10
ATOM     10  O   LIG    1       26.606 -20.901   7.151  0.00  0.00    -0.365 OA
BRANCH  10  11
ATOM     11  C   LIG    1       27.841 -21.517   7.521  0.00  0.00    +0.198 C 
BRANCH  11  14
ATOM     12 CL   LIG    1       30.731 -21.824   9.087  0.00  0.00    -0.075 Cl
ATOM     13  C   LIG    1       30.202 -20.633   7.961  0.00  0.00    +0.083 A 
ATOM     14  C   LIG    1       28.976 -20.560   7.338  0.00  0.00    +0.004 A 
ATOM     15  C   LIG    1       28.937 -19.414   6.467  0.00  0.00    +0.015 A 
ATOM     16  C   LIG    1       30.112 -18.691   6.486  0.00  0.00    +0.047 A 
ATOM     17  S   LIG    1       31.267 -19.383   7.541  0.00  0.00    -0.085 S 
ENDBRANCH  11  14
ENDBRANCH  10  11
ENDBRANCH   1  10
BRANCH   1  18
ATOM     18  C   LIG    1       25.141 -22.795   7.426  0.00  0.00    +0.159 C 
BRANCH  18  19
ATOM     19  N   LIG    1       24.943 -24.114   6.834  0.00  0.00    -0.334 N 
ATOM     20  C   LIG    1       23.748 -24.688   6.516  0.00  0.00    +0.199 A 
ATOM     21  N   LIG    1       23.914 -25.890   6.001  0.00  0.00    -0.244 NA
ATOM     22  C   LIG    1       25.266 -26.106   6.014  0.00  0.00    +0.130 A 
ATOM     23  C   LIG    1       25.927 -25.016   6.534  0.00  0.00    +0.107 A 
ENDBRANCH  18  19
ENDBRANCH   1  18
TORSDOF 6
ENDMDL
MODEL 3
REMARK VINA RESULT:      -8.6      1.242      1.498
REMARK  Name = *****
REMARK                            x       y       z     vdW  Elec       q    Type
REMARK                         _______ _______ _______ _____ _____    ______ ____
ROOT
ATOM      1  C   LIG    1       25.722 -22.290   6.043  0.00  0.00    +0.170 C 
ENDROOT
BRANCH   1   2
ATOM      2  C   LIG    1       24.716 -21.244   5.565  0.00  0.00    +0.001 A 
ATOM      3  C   LIG    1       23.600 -20.846   6.327  0.00  0.00    +0.048 A 
ATOM      4 CL   LIG    1       23.321 -21.437   7.927  0.00  0.00    -0.083 Cl
ATOM      5  C   LIG    1       22.658 -19.940   5.818  0.00  0.00    +0.040 A 
ATOM      6  C   LIG    1       22.832 -19.400   4.548  0.00  0.00    +0.042 A 
ATOM      7 CL   LIG    1       21.680 -18.283   3.927  0.00  0.00    -0.084 Cl
ATOM      8  C   LIG    1       23.935 -19.757   3.782  0.00  0.00    +0.020 A 
ATOM      9  C   LIG    1       24.863 -20.678   4.282  0.00  0.00    +0.009 A 
ENDBRANCH   1   2
BRANCH   1  10
ATOM     10  O   LIG    1       26.583 -21.663   7.008  0.00  0.00    -0.365 OA
BRANCH  10  11
ATOM     11  C   LIG    1       27.183 -20.464   6.513  0.00  0.00    +0.198 C 
BRANCH  11  14
ATOM     12 CL   LIG    1       29.291 -18.173   5.413  0.00  0.00    -0.075 Cl
ATOM     13  C   LIG    1       29.512 -19.407   6.594  0.00  0.00    +0.083 A 
ATOM     14  C   LIG    1       28.586 -20.338   7.012  0.00  0.00    +0.004 A 
ATOM     15  C   LIG    1       29.168 -21.188   8.017  0.00  0.00    +0.015 A 
ATOM     16  C   LIG    1       30.481 -20.866   8.294  0.00  0.00    +0.047 A 
ATOM     17  S   LIG    1       31.020 -19.541   7.355  0.00  0.00    -0.085 S 
ENDBRANCH  11  14
ENDBRANCH  10  11
ENDBRANCH   1  10
BRANCH   1  18
ATOM     18  C   LIG    1       25.045 -23.497   6.724  0.00  0.00    +0.159 C 
BRANCH  18  19
ATOM     19  N   LIG    1       25.405 -24.762   6.092  0.00  0.00    -0.334 N 
ATOM     20  C   LIG    1       25.163 -25.117   4.797  0.00  0.00    +0.199 A 
ATOM     21  N   LIG    1       25.610 -26.330   4.541  0.00  0.00    -0.244 NA
ATOM     22  C   LIG    1       26.135 -26.781   5.722  0.00  0.00    +0.130 A 
ATOM     23  C   LIG    1       26.013 -25.823   6.705  0.00  0.00    +0.107 A 
ENDBRANCH  18  19
ENDBRANCH   1  18
TORSDOF 6
ENDMDL
MODEL 4
REMARK VINA RESULT:      -8.5      2.697      4.948
REMARK  Name = *****
REMARK                            x       y       z     vdW  Elec       q    Type
REMARK                         _______ _______ _______ _____ _____    ______ ____
ROOT
ATOM      1  C   LIG    1       25.113 -21.898   6.411  0.00  0.00    +0.170 C 
ENDROOT
BRANCH   1   2
ATOM      2  C   LIG    1       25.024 -23.422   6.369  0.00  0.00    +0.001 A 
ATOM      3  C   LIG    1       23.808 -24.125   6.478  0.00  0.00    +0.048 A 
ATOM      4 CL   LIG    1       22.283 -23.316   6.568  0.00  0.00    -0.083 Cl
ATOM      5  C   LIG    1       23.779 -25.527   6.514  0.00  0.00    +0.040 A 
ATOM      6  C   LIG    1       24.965 -26.247   6.417  0.00  0.00    +0.042 A 
ATOM      7 CL   LIG    1       24.929 -27.967   6.454  0.00  0.00    -0.084 Cl
ATOM      8  C   LIG    1       26.178 -25.582   6.287  0.00  0.00    +0.020 A 
ATOM      9  C   LIG    1       26.208 -24.183   6.273  0.00  0.00    +0.009 A 
ENDBRANCH   1   2
BRANCH   1  10
ATOM     10  O   LIG    1       26.331 -21.548   7.091  0.00  0.00    -0.365 OA
BRANCH  10  11
ATOM     11  C   LIG    1       27.058 -20.516   6.421  0.00  0.00    +0.198 C 
BRANCH  11  14
ATOM     12 CL   LIG    1       29.235 -18.249   5.413  0.00  0.00    -0.075 Cl
ATOM     13  C   LIG    1       29.400 -19.498   6.586  0.00  0.00    +0.083 A 
ATOM     14  C   LIG    1       28.446 -20.418   6.965  0.00  0.00    +0.004 A 
ATOM     15  C   LIG    1       28.983 -21.289   7.978  0.00  0.00    +0.015 A 
ATOM     16  C   LIG    1       30.292 -20.991   8.299  0.00  0.00    +0.047 A 
ATOM     17  S   LIG    1       30.881 -19.666   7.392  0.00  0.00    -0.085 S 
ENDBRANCH  11  14
ENDBRANCH  10  11
ENDBRANCH   1  10
BRANCH   1  18
ATOM     18  C   LIG    1       25.156 -21.266   5.005  0.00  0.00    +0.159 C 
BRANCH  18  19
ATOM     19  N   LIG    1       24.088 -20.293   4.804  0.00  0.00    -0.334 N 
ATOM     20  C   LIG    1       24.004 -19.382   3.792  0.00  0.00    +0.199 A 
ATOM     21  N   LIG    1       22.916 -18.645   3.899  0.00  0.00    -0.244 NA
ATOM     22  C   LIG    1       22.293 -19.082   5.037  0.00  0.00    +0.130 A 
ATOM     23  C   LIG    1       23.008 -20.104   5.621  0.00  0.00    +0.107 A 
ENDBRANCH  18  19
ENDBRANCH   1  18
TORSDOF 6
ENDMDL
MODEL 5
REMARK VINA RESULT:      -8.4      3.294      5.357
REMARK  Name = *****
REMARK                            x       y       z     vdW  Elec       q    Type
REMARK                         _______ _______ _______ _____ _____    ______ ____
ROOT
ATOM      1  C   LIG    1       26.359 -21.026   6.466  0.00  0.00    +0.170 C 
ENDROOT
BRANCH   1   2
ATOM      2  C   LIG    1       25.103 -20.426   5.838  0.00  0.00    +0.001 A 
ATOM      3  C   LIG    1       23.839 -20.466   6.459  0.00  0.00    +0.048 A 
ATOM      4 CL   LIG    1       23.613 -21.115   8.045  0.00  0.00    -0.083 Cl
ATOM      5  C   LIG    1       22.696 -19.973   5.812  0.00  0.00    +0.040 A 
ATOM      6  C   LIG    1       22.804 -19.410   4.545  0.00  0.00    +0.042 A 
ATOM      7 CL   LIG    1       21.404 -18.798   3.755  0.00  0.00    -0.084 Cl
ATOM      8  C   LIG    1       24.042 -19.336   3.918  0.00  0.00    +0.020 A 
ATOM      9  C   LIG    1       25.179 -19.848   4.554  0.00  0.00    +0.009 A 
ENDBRANCH   1   2
BRANCH   1  10
ATOM     10  O   LIG    1       26.413 -22.416   6.099  0.00  0.00    -0.365 OA
BRANCH  10  11
ATOM     11  C   LIG    1       26.025 -23.282   7.168  0.00  0.00    +0.198 C 
BRANCH  11  14
ATOM     12 CL   LIG    1       22.868 -24.109   6.671  0.00  0.00    -0.075 Cl
ATOM     13  C   LIG    1       24.307 -25.018   6.406  0.00  0.00    +0.083 A 
ATOM     14  C   LIG    1       25.604 -24.613   6.634  0.00  0.00    +0.004 A 
ATOM     15  C   LIG    1       26.515 -25.670   6.278  0.00  0.00    +0.015 A 
ATOM     16  C   LIG    1       25.869 -26.799   5.818  0.00  0.00    +0.047 A 
ATOM     17  S   LIG    1       24.170 -26.596   5.804  0.00  0.00    -0.085 S 
ENDBRANCH  11  14
ENDBRANCH  10  11
ENDBRANCH   1  10
BRANCH   1  18
ATOM     18  C   LIG    1       27.653 -20.354   5.965  0.00  0.00    +0.159 C 
BRANCH  18  19
ATOM     19  N   LIG    1       28.702 -20.349   6.980  0.00  0.00    -0.334 N 
ATOM     20  C   LIG    1       28.995 -21.361   7.845  0.00  0.00    +0.199 A 
ATOM     21  N   LIG    1       29.997 -21.040   8.639  0.00  0.00    -0.244 NA
ATOM     22  C   LIG    1       30.342 -19.763   8.288  0.00  0.00    +0.130 A 
ATOM     23  C   LIG    1       29.546 -19.309   7.259  0.00  0.00    +0.107 A 
ENDBRANCH  18  19
ENDBRANCH   1  18
TORSDOF 6
ENDMDL
MODEL 6
REMARK VINA RESULT:      -8.2      3.075      6.364
REMARK  Name = *****
REMARK                            x       y       z     vdW  Elec       q    Type
REMARK                         _______ _______ _______ _____ _____    ______ ____
ROOT
ATOM      1  C   LIG    1       26.913 -21.373   6.584  0.00  0.00    +0.170 C 
ENDROOT
BRANCH   1   2
ATOM      2  C   LIG    1       28.166 -20.568   6.925  0.00  0.00    +0.001 A 
ATOM      3  C   LIG    1       28.598 -19.460   6.170  0.00  0.00    +0.048 A 
ATOM      4 CL   LIG    1       27.688 -18.845   4.836  0.00  0.00    -0.083 Cl
ATOM      5  C   LIG    1       29.797 -18.798   6.472  0.00  0.00    +0.040 A 
ATOM      6  C   LIG    1       30.570 -19.219   7.549  0.00  0.00    +0.042 A 
ATOM      7 CL   LIG    1       32.037 -18.402   7.924  0.00  0.00    -0.084 Cl
ATOM      8  C   LIG    1       30.157 -20.295   8.326  0.00  0.00    +0.020 A 
ATOM      9  C   LIG    1       28.972 -20.969   8.011  0.00  0.00    +0.009 A 
ENDBRANCH   1   2
BRANCH   1  10
ATOM     10  O   LIG    1       27.026 -22.654   7.228  0.00  0.00    -0.365 OA
BRANCH  10  11
ATOM     11  C   LIG    1       25.760 -23.173   7.643  0.00  0.00    +0.198 C 
BRANCH  11  14
ATOM     12 CL   LIG    1       22.676 -23.870   6.694  0.00  0.00    -0.075 Cl
ATOM     13  C   LIG    1       24.142 -24.731   6.419  0.00  0.00    +0.083 A 
ATOM     14  C   LIG    1       25.406 -24.385   6.844  0.00  0.00    +0.004 A 
ATOM     15  C   LIG    1       26.357 -25.371   6.401  0.00  0.00    +0.015 A 
ATOM     16  C   LIG    1       25.770 -26.395   5.686  0.00  0.00    +0.047 A 
ATOM     17  S   LIG    1       24.080 -26.178   5.538  0.00  0.00    -0.085 S 
ENDBRANCH  11  14
ENDBRANCH  10  11
ENDBRANCH   1  10
BRANCH   1  18
ATOM     18  C   LIG    1       25.620 -20.701   7.088  0.00  0.00    +0.159 C 
BRANCH  18  19
ATOM     19  N   LIG    1       24.566 -20.706   6.079  0.00  0.00    -0.334 N 
ATOM     20  C   LIG    1       24.711 -21.014   4.758  0.00  0.00    +0.199 A 
ATOM     21  N   LIG    1       23.565 -20.920   4.114  0.00  0.00    -0.244 NA
ATOM     22  C   LIG    1       22.655 -20.510   5.051  0.00  0.00    +0.130 A 
ATOM     23  C   LIG    1       23.257 -20.365   6.282  0.00  0.00    +0.107 A 
ENDBRANCH  18  19
ENDBRANCH   1  18
TORSDOF 6
ENDMDL
MODEL 7
REMARK VINA RESULT:      -7.9      2.230      4.330
REMARK  Name = *****
REMARK                            x       y       z     vdW  Elec       q    Type
REMARK                         _______ _______ _______ _____ _____    ______ ____
ROOT
ATOM      1  C   LIG    1       25.453 -22.318   7.349  0.00  0.00    +0.170 C 
ENDROOT
BRANCH   1   2
ATOM      2  C   LIG    1       25.187 -23.707   6.771  0.00  0.00    +0.001 A 
ATOM      3  C   LIG    1       23.892 -24.235   6.601  0.00  0.00    +0.048 A 
ATOM      4 CL   LIG    1       22.471 -23.312   6.942  0.00  0.00    -0.083 Cl
ATOM      5  C   LIG    1       23.696 -25.545   6.140  0.00  0.00    +0.040 A 
ATOM      6  C   LIG    1       24.792 -26.338   5.819  0.00  0.00    +0.042 A 
ATOM      7 CL   LIG    1       24.551 -27.943   5.245  0.00  0.00    -0.084 Cl
ATOM      8  C   LIG    1       26.081 -25.836   5.954  0.00  0.00    +0.020 A 
ATOM      9  C   LIG    1       26.277 -24.537   6.435  0.00  0.00    +0.009 A 
ENDBRANCH   1   2
BRANCH   1  10
ATOM     10  O   LIG    1       26.746 -21.890   6.887  0.00  0.00    -0.365 OA
BRANCH  10  11
ATOM     11  C   LIG    1       27.640 -21.587   7.961  0.00  0.00    +0.198 C 
BRANCH  11  14
ATOM     12 CL   LIG    1       30.752 -21.748   9.051  0.00  0.00    -0.075 Cl
ATOM     13  C   LIG    1       30.031 -20.677   7.912  0.00  0.00    +0.083 A 
ATOM     14  C   LIG    1       28.718 -20.661   7.496  0.00  0.00    +0.004 A 
ATOM     15  C   LIG    1       28.523 -19.610   6.531  0.00  0.00    +0.015 A 
ATOM     16  C   LIG    1       29.677 -18.895   6.282  0.00  0.00    +0.047 A 
ATOM     17  S   LIG    1       30.997 -19.482   7.197  0.00  0.00    -0.085 S 
ENDBRANCH  11  14
ENDBRANCH  10  11
ENDBRANCH   1  10
BRANCH   1  18
ATOM     18  C   LIG    1       24.415 -21.274   6.888  0.00  0.00    +0.159 C 
BRANCH  18  19
ATOM     19  N   LIG    1       24.595 -20.897   5.490  0.00  0.00    -0.334 N 
ATOM     20  C   LIG    1       25.557 -20.068   4.992  0.00  0.00    +0.199 A 
ATOM     21  N   LIG    1       25.443 -19.929   3.687  0.00  0.00    -0.244 NA
ATOM     22  C   LIG    1       24.350 -20.676   3.337  0.00  0.00    +0.130 A 
ATOM     23  C   LIG    1       23.802 -21.284   4.444  0.00  0.00    +0.107 A 
ENDBRANCH  18  19
ENDBRANCH   1  18
TORSDOF 6
ENDMDL
MODEL 8
REMARK VINA RESULT:      -7.5      3.179      6.169
REMARK  Name = *****
REMARK                            x       y       z     vdW  Elec       q    Type
REMARK                         _______ _______ _______ _____ _____    ______ ____
ROOT
ATOM      1  C   LIG    1       26.530 -21.961   6.634  0.00  0.00    +0.170 C 
ENDROOT
BRANCH   1   2
ATOM      2  C   LIG    1       27.779 -21.119   6.886  0.00  0.00    +0.001 A 
ATOM      3  C   LIG    1       28.119 -19.995   6.108  0.00  0.00    +0.048 A 
ATOM      4 CL   LIG    1       27.092 -19.404   4.849  0.00  0.00    -0.083 Cl
ATOM      5  C   LIG    1       29.315 -19.296   6.324  0.00  0.00    +0.040 A 
ATOM      6  C   LIG    1       30.179 -19.696   7.338  0.00  0.00    +0.042 A 
ATOM      7 CL   LIG    1       31.643 -18.834   7.608  0.00  0.00    -0.084 Cl
ATOM      8  C   LIG    1       29.859 -20.788   8.137  0.00  0.00    +0.020 A 
ATOM      9  C   LIG    1       28.676 -21.498   7.907  0.00  0.00    +0.009 A 
ENDBRANCH   1   2
BRANCH   1  10
ATOM     10  O   LIG    1       26.732 -23.242   7.256  0.00  0.00    -0.365 OA
BRANCH  10  11
ATOM     11  C   LIG    1       25.526 -24.003   7.351  0.00  0.00    +0.198 C 
BRANCH  11  14
ATOM     12 CL   LIG    1       26.374 -27.110   8.078  0.00  0.00    -0.075 Cl
ATOM     13  C   LIG    1       25.868 -26.420   6.584  0.00  0.00    +0.083 A 
ATOM     14  C   LIG    1       25.525 -25.108   6.344  0.00  0.00    +0.004 A 
ATOM     15  C   LIG    1       25.157 -24.944   4.961  0.00  0.00    +0.015 A 
ATOM     16  C   LIG    1       25.248 -26.118   4.242  0.00  0.00    +0.047 A 
ATOM     17  S   LIG    1       25.770 -27.421   5.220  0.00  0.00    -0.085 S 
ENDBRANCH  11  14
ENDBRANCH  10  11
ENDBRANCH   1  10
BRANCH   1  18
ATOM     18  C   LIG    1       25.258 -21.335   7.240  0.00  0.00    +0.159 C 
BRANCH  18  19
ATOM     19  N   LIG    1       24.261 -21.015   6.224  0.00  0.00    -0.334 N 
ATOM     20  C   LIG    1       24.322 -21.339   4.900  0.00  0.00    +0.199 A 
ATOM     21  N   LIG    1       23.264 -20.900   4.249  0.00  0.00    -0.244 NA
ATOM     22  C   LIG    1       22.508 -20.247   5.185  0.00  0.00    +0.130 A 
ATOM     23  C   LIG    1       23.112 -20.301   6.421  0.00  0.00    +0.107 A 
ENDBRANCH  18  19
ENDBRANCH   1  18
TORSDOF 6
ENDMDL
MODEL 9
REMARK VINA RESULT:      -7.4      3.559      5.743
REMARK  Name = *****
REMARK                            x       y       z     vdW  Elec       q    Type
REMARK                         _______ _______ _______ _____ _____    ______ ____
ROOT
ATOM      1  C   LIG    1       24.758 -23.746   6.470  0.00  0.00    +0.170 C 
ENDROOT
BRANCH   1   2
ATOM      2  C   LIG    1       24.255 -22.440   5.858  0.00  0.00    +0.001 A 
ATOM      3  C   LIG    1       23.305 -21.612   6.486  0.00  0.00    +0.048 A 
ATOM      4 CL   LIG    1       22.692 -21.950   8.067  0.00  0.00    -0.083 Cl
ATOM      5  C   LIG    1       22.811 -20.462   5.854  0.00  0.00    +0.040 A 
ATOM      6  C   LIG    1       23.278 -20.110   4.592  0.00  0.00    +0.042 A 
ATOM      7 CL   LIG    1       22.679 -18.695   3.819  0.00  0.00    -0.084 Cl
ATOM      8  C   LIG    1       24.232 -20.896   3.956  0.00  0.00    +0.020 A 
ATOM      9  C   LIG    1       24.709 -22.055   4.579  0.00  0.00    +0.009 A 
ENDBRANCH   1   2
BRANCH   1  10
ATOM     10  O   LIG    1       24.712 -24.757   5.447  0.00  0.00    -0.365 OA
BRANCH  10  11
ATOM     11  C   LIG    1       25.769 -25.711   5.570  0.00  0.00    +0.198 C 
BRANCH  11  14
ATOM     12 CL   LIG    1       26.516 -27.367   8.327  0.00  0.00    -0.075 Cl
ATOM     13  C   LIG    1       25.490 -27.804   7.015  0.00  0.00    +0.083 A 
ATOM     14  C   LIG    1       25.217 -27.063   5.886  0.00  0.00    +0.004 A 
ATOM     15  C   LIG    1       24.306 -27.786   5.036  0.00  0.00    +0.015 A 
ATOM     16  C   LIG    1       23.954 -29.015   5.555  0.00  0.00    +0.047 A 
ATOM     17  S   LIG    1       24.707 -29.307   7.063  0.00  0.00    -0.085 S 
ENDBRANCH  11  14
ENDBRANCH  10  11
ENDBRANCH   1  10
BRANCH   1  18
ATOM     18  C   LIG    1       26.212 -23.645   6.972  0.00  0.00    +0.159 C 
BRANCH  18  19
ATOM     19  N   LIG    1       26.505 -22.341   7.559  0.00  0.00    -0.334 N 
ATOM     20  C   LIG    1       25.994 -21.845   8.722  0.00  0.00    +0.199 A 
ATOM     21  N   LIG    1       26.455 -20.635   8.971  0.00  0.00    -0.244 NA
ATOM     22  C   LIG    1       27.271 -20.334   7.914  0.00  0.00    +0.130 A 
ATOM     23  C   LIG    1       27.313 -21.379   7.019  0.00  0.00    +0.107 A 
ENDBRANCH  18  19
ENDBRANCH   1  18
TORSDOF 6
ENDMDL
