MODEL 1
REMARK VINA RESULT:      -4.1      0.000      0.000
REMARK  Name = *****
REMARK                            x       y       z     vdW  Elec       q    Type
REMARK                         _______ _______ _______ _____ _____    ______ ____
ROOT
ATOM      1  C   LIG    1       24.835 -13.771   3.352  0.00  0.00    -0.021 C 
ATOM      2  C   LIG    1       23.970 -14.721   3.995  0.00  0.00    +0.003 C 
ATOM      3  C   LIG    1       23.279 -14.046   5.002  0.00  0.00    +0.047 C 
ATOM      4  C   LIG    1       22.359 -14.675   5.847  0.00  0.00    +0.026 C 
ATOM      5  C   LIG    1       22.105 -16.036   5.640  0.00  0.00    +0.006 C 
ATOM      6  C   LIG    1       22.750 -16.750   4.626  0.00  0.00    -0.045 C 
ATOM      7  N   LIG    1       23.688 -12.735   4.964  0.00  0.00    -0.360 NA
ATOM      8  H   LIG    1       23.348 -12.012   5.582  0.00  0.00    +0.165 HD
ATOM      9  C   LIG    1       23.704 -16.097   3.819  0.00  0.00    +0.014 C 
ATOM     10  C   LIG    1       24.603 -12.552   3.963  0.00  0.00    +0.087 C 
ENDROOT
BRANCH   1  11
ATOM     11  C   LIG    1       25.797 -14.028   2.220  0.00  0.00    +0.056 C 
BRANCH  11  14
ATOM     12  C   LIG    1       27.107 -16.279   3.679  0.00  0.00    +0.105 C 
ATOM     13  N   LIG    1       27.709 -14.961   3.694  0.00  0.00    -0.302 NA
ATOM     14  C   LIG    1       27.289 -14.007   2.647  0.00  0.00    +0.061 C 
ATOM     15  C   LIG    1       27.701 -12.643   3.239  0.00  0.00    +0.020 C 
ATOM     16  C   LIG    1       28.217 -12.942   4.640  0.00  0.00    +0.017 C 
ATOM     17  C   LIG    1       27.585 -14.276   4.975  0.00  0.00    +0.084 C 
ENDBRANCH  11  14
ENDBRANCH   1  11
BRANCH   6  18
ATOM     18  C   LIG    1       22.422 -18.211   4.398  0.00  0.00    +0.058 C 
BRANCH  18  19
ATOM     19  C   LIG    1       23.598 -18.966   3.787  0.00  0.00    +0.176 C 
BRANCH  19  20
ATOM     20  S   LIG    1       23.738 -20.602   4.470  0.00  0.00    -0.003 S 
ATOM     21  O   LIG    1       23.871 -21.545   3.373  0.00  0.00    -0.169 OA
ATOM     22  O   LIG    1       22.707 -20.771   5.474  0.00  0.00    -0.169 OA
BRANCH  20  23
ATOM     23  C   LIG    1       25.300 -20.556   5.327  0.00  0.00    +0.088 C 
ATOM     24  C   LIG    1       26.322 -19.722   4.865  0.00  0.00    +0.027 C 
ATOM     25  C   LIG    1       27.559 -19.733   5.511  0.00  0.00    +0.002 C 
ATOM     26  C   LIG    1       27.772 -20.577   6.602  0.00  0.00    +0.000 C 
ATOM     27  C   LIG    1       26.749 -21.410   7.057  0.00  0.00    +0.002 C 
ATOM     28  C   LIG    1       25.508 -21.405   6.418  0.00  0.00    +0.027 C 
ENDBRANCH  20  23
ENDBRANCH  19  20
ENDBRANCH  18  19
ENDBRANCH   6  18
TORSDOF 6
ENDMDL
MODEL 2
REMARK VINA RESULT:      -2.7      3.854      7.652
REMARK  Name = *****
REMARK                            x       y       z     vdW  Elec       q    Type
REMARK                         _______ _______ _______ _____ _____    ______ ____
ROOT
ATOM      1  C   LIG    1       25.367 -20.537   4.391  0.00  0.00    -0.021 C 
ATOM      2  C   LIG    1       26.253 -19.407   4.436  0.00  0.00    +0.003 C 
ATOM      3  C   LIG    1       27.335 -19.752   5.246  0.00  0.00    +0.047 C 
ATOM      4  C   LIG    1       28.387 -18.873   5.526  0.00  0.00    +0.026 C 
ATOM      5  C   LIG    1       28.356 -17.606   4.935  0.00  0.00    +0.006 C 
ATOM      6  C   LIG    1       27.308 -17.222   4.092  0.00  0.00    -0.045 C 
ATOM      7  N   LIG    1       27.132 -21.046   5.663  0.00  0.00    -0.360 NA
ATOM      8  H   LIG    1       27.763 -21.559   6.261  0.00  0.00    +0.165 HD
ATOM      9  C   LIG    1       26.241 -18.115   3.864  0.00  0.00    +0.014 C 
ATOM     10  C   LIG    1       25.967 -21.536   5.136  0.00  0.00    +0.087 C 
ENDROOT
BRANCH   1  11
ATOM     11  C   LIG    1       24.051 -20.642   3.663  0.00  0.00    +0.056 C 
BRANCH  11  14
ATOM     12  C   LIG    1       22.283 -18.320   4.291  0.00  0.00    +0.105 C 
ATOM     13  N   LIG    1       22.282 -19.483   5.155  0.00  0.00    -0.302 NA
ATOM     14  C   LIG    1       22.821 -20.743   4.603  0.00  0.00    +0.061 C 
ATOM     15  C   LIG    1       23.128 -21.570   5.869  0.00  0.00    +0.020 C 
ATOM     16  C   LIG    1       22.843 -20.644   7.044  0.00  0.00    +0.017 C 
ATOM     17  C   LIG    1       22.938 -19.260   6.438  0.00  0.00    +0.084 C 
ENDBRANCH  11  14
ENDBRANCH   1  11
BRANCH   6  18
ATOM     18  C   LIG    1       27.323 -15.859   3.432  0.00  0.00    +0.058 C 
BRANCH  18  19
ATOM     19  C   LIG    1       28.368 -14.940   4.054  0.00  0.00    +0.176 C 
BRANCH  19  20
ATOM     20  S   LIG    1       27.737 -13.290   4.256  0.00  0.00    -0.003 S 
ATOM     21  O   LIG    1       28.435 -12.417   3.327  0.00  0.00    -0.169 OA
ATOM     22  O   LIG    1       27.693 -12.984   5.671  0.00  0.00    -0.169 OA
BRANCH  20  23
ATOM     23  C   LIG    1       26.051 -13.424   3.697  0.00  0.00    +0.088 C 
ATOM     24  C   LIG    1       25.675 -12.850   2.479  0.00  0.00    +0.027 C 
ATOM     25  C   LIG    1       24.340 -12.915   2.074  0.00  0.00    +0.002 C 
ATOM     26  C   LIG    1       23.392 -13.540   2.886  0.00  0.00    +0.000 C 
ATOM     27  C   LIG    1       23.773 -14.107   4.103  0.00  0.00    +0.002 C 
ATOM     28  C   LIG    1       25.105 -14.049   4.515  0.00  0.00    +0.027 C 
ENDBRANCH  20  23
ENDBRANCH  19  20
ENDBRANCH  18  19
ENDBRANCH   6  18
TORSDOF 6
ENDMDL
MODEL 3
REMARK VINA RESULT:      -2.3      3.563      6.795
REMARK  Name = *****
REMARK                            x       y       z     vdW  Elec       q    Type
REMARK                         _______ _______ _______ _____ _____    ______ ____
ROOT
ATOM      1  C   LIG    1       22.740 -20.683   5.329  0.00  0.00    -0.021 C 
ATOM      2  C   LIG    1       22.318 -19.380   4.896  0.00  0.00    +0.003 C 
ATOM      3  C   LIG    1       21.128 -19.538   4.184  0.00  0.00    +0.047 C 
ATOM      4  C   LIG    1       20.444 -18.467   3.599  0.00  0.00    +0.026 C 
ATOM      5  C   LIG    1       20.971 -17.182   3.769  0.00  0.00    +0.006 C 
ATOM      6  C   LIG    1       22.145 -16.968   4.498  0.00  0.00    -0.045 C 
ATOM      7  N   LIG    1       20.823 -20.878   4.199  0.00  0.00    -0.360 NA
ATOM      8  H   LIG    1       20.008 -21.283   3.761  0.00  0.00    +0.165 HD
ATOM      9  C   LIG    1       22.834 -18.072   5.040  0.00  0.00    +0.014 C 
ATOM     10  C   LIG    1       21.769 -21.572   4.904  0.00  0.00    +0.087 C 
ENDROOT
BRANCH   1  11
ATOM     11  C   LIG    1       23.980 -21.031   6.113  0.00  0.00    +0.056 C 
BRANCH  11  14
ATOM     12  C   LIG    1       26.753 -20.455   7.057  0.00  0.00    +0.105 C 
ATOM     13  N   LIG    1       26.481 -20.560   5.639  0.00  0.00    -0.302 NA
ATOM     14  C   LIG    1       25.238 -21.249   5.232  0.00  0.00    +0.061 C 
ATOM     15  C   LIG    1       25.025 -20.749   3.787  0.00  0.00    +0.020 C 
ATOM     16  C   LIG    1       26.116 -19.715   3.545  0.00  0.00    +0.017 C 
ATOM     17  C   LIG    1       26.512 -19.281   4.940  0.00  0.00    +0.084 C 
ENDBRANCH  11  14
ENDBRANCH   1  11
BRANCH   6  18
ATOM     18  C   LIG    1       22.667 -15.562   4.702  0.00  0.00    +0.058 C 
BRANCH  18  19
ATOM     19  C   LIG    1       23.955 -15.317   3.922  0.00  0.00    +0.176 C 
BRANCH  19  20
ATOM     20  S   LIG    1       24.253 -13.578   3.700  0.00  0.00    -0.003 S 
ATOM     21  O   LIG    1       23.611 -12.862   4.790  0.00  0.00    -0.169 OA
ATOM     22  O   LIG    1       23.973 -13.236   2.321  0.00  0.00    -0.169 OA
BRANCH  20  23
ATOM     23  C   LIG    1       26.013 -13.431   3.930  0.00  0.00    +0.088 C 
ATOM     24  C   LIG    1       26.526 -13.113   5.191  0.00  0.00    +0.027 C 
ATOM     25  C   LIG    1       27.903 -12.948   5.349  0.00  0.00    +0.002 C 
ATOM     26  C   LIG    1       28.756 -13.090   4.253  0.00  0.00    +0.000 C 
ATOM     27  C   LIG    1       28.238 -13.404   2.995  0.00  0.00    +0.002 C 
ATOM     28  C   LIG    1       26.863 -13.573   2.828  0.00  0.00    +0.027 C 
ENDBRANCH  20  23
ENDBRANCH  19  20
ENDBRANCH  18  19
ENDBRANCH   6  18
TORSDOF 6
ENDMDL
MODEL 4
REMARK VINA RESULT:      -1.9      1.466      4.555
REMARK  Name = *****
REMARK                            x       y       z     vdW  Elec       q    Type
REMARK                         _______ _______ _______ _____ _____    ______ ____
ROOT
ATOM      1  C   LIG    1       26.390 -14.643   2.987  0.00  0.00    -0.021 C 
ATOM      2  C   LIG    1       26.672 -15.976   3.444  0.00  0.00    +0.003 C 
ATOM      3  C   LIG    1       27.862 -15.928   4.172  0.00  0.00    +0.047 C 
ATOM      4  C   LIG    1       28.446 -17.059   4.751  0.00  0.00    +0.026 C 
ATOM      5  C   LIG    1       27.780 -18.282   4.614  0.00  0.00    +0.006 C 
ATOM      6  C   LIG    1       26.571 -18.378   3.919  0.00  0.00    -0.045 C 
ATOM      7  N   LIG    1       28.279 -14.618   4.178  0.00  0.00    -0.360 NA
ATOM      8  H   LIG    1       29.115 -14.287   4.638  0.00  0.00    +0.165 HD
ATOM      9  C   LIG    1       26.030 -17.227   3.309  0.00  0.00    +0.014 C 
ATOM     10  C   LIG    1       27.391 -13.834   3.492  0.00  0.00    +0.087 C 
ENDROOT
BRANCH   1  11
ATOM     11  C   LIG    1       25.225 -14.192   2.142  0.00  0.00    +0.056 C 
BRANCH  11  14
ATOM     12  C   LIG    1       24.081 -11.448   1.878  0.00  0.00    +0.105 C 
ATOM     13  N   LIG    1       23.794 -12.238   3.056  0.00  0.00    -0.302 NA
ATOM     14  C   LIG    1       24.007 -13.698   2.967  0.00  0.00    +0.061 C 
ATOM     15  C   LIG    1       24.100 -14.123   4.447  0.00  0.00    +0.020 C 
ATOM     16  C   LIG    1       24.050 -12.831   5.251  0.00  0.00    +0.017 C 
ATOM     17  C   LIG    1       24.483 -11.776   4.254  0.00  0.00    +0.084 C 
ENDBRANCH  11  14
ENDBRANCH   1  11
BRANCH   6  18
ATOM     18  C   LIG    1       25.852 -19.707   3.823  0.00  0.00    +0.058 C 
BRANCH  18  19
ATOM     19  C   LIG    1       25.111 -20.045   5.113  0.00  0.00    +0.176 C 
BRANCH  19  20
ATOM     20  S   LIG    1       23.554 -20.833   4.775  0.00  0.00    -0.003 S 
ATOM     21  O   LIG    1       23.102 -21.490   5.991  0.00  0.00    -0.169 OA
ATOM     22  O   LIG    1       23.671 -21.570   3.534  0.00  0.00    -0.169 OA
BRANCH  20  23
ATOM     23  C   LIG    1       22.458 -19.463   4.470  0.00  0.00    +0.088 C 
ATOM     24  C   LIG    1       21.245 -19.678   3.808  0.00  0.00    +0.027 C 
ATOM     25  C   LIG    1       20.417 -18.590   3.527  0.00  0.00    +0.002 C 
ATOM     26  C   LIG    1       20.803 -17.300   3.897  0.00  0.00    +0.000 C 
ATOM     27  C   LIG    1       22.018 -17.092   4.554  0.00  0.00    +0.002 C 
ATOM     28  C   LIG    1       22.851 -18.174   4.841  0.00  0.00    +0.027 C 
ENDBRANCH  20  23
ENDBRANCH  19  20
ENDBRANCH  18  19
ENDBRANCH   6  18
TORSDOF 6
ENDMDL
MODEL 5
REMARK VINA RESULT:      -1.7      1.748      4.491
REMARK  Name = *****
REMARK                            x       y       z     vdW  Elec       q    Type
REMARK                         _______ _______ _______ _____ _____    ______ ____
ROOT
ATOM      1  C   LIG    1       26.687 -15.754   3.407  0.00  0.00    -0.021 C 
ATOM      2  C   LIG    1       26.517 -17.158   3.662  0.00  0.00    +0.003 C 
ATOM      3  C   LIG    1       27.600 -17.578   4.434  0.00  0.00    +0.047 C 
ATOM      4  C   LIG    1       27.767 -18.903   4.853  0.00  0.00    +0.026 C 
ATOM      5  C   LIG    1       26.781 -19.830   4.501  0.00  0.00    +0.006 C 
ATOM      6  C   LIG    1       25.662 -19.452   3.752  0.00  0.00    -0.045 C 
ATOM      7  N   LIG    1       28.388 -16.475   4.661  0.00  0.00    -0.360 NA
ATOM      8  H   LIG    1       29.243 -16.485   5.198  0.00  0.00    +0.165 HD
ATOM      9  C   LIG    1       25.544 -18.119   3.309  0.00  0.00    +0.014 C 
ATOM     10  C   LIG    1       27.838 -15.370   4.070  0.00  0.00    +0.087 C 
ENDROOT
BRANCH   1  11
ATOM     11  C   LIG    1       25.787 -14.854   2.597  0.00  0.00    +0.056 C 
BRANCH  11  14
ATOM     12  C   LIG    1       24.295 -13.857   4.983  0.00  0.00    +0.105 C 
ATOM     13  N   LIG    1       24.738 -12.925   3.967  0.00  0.00    -0.302 NA
ATOM     14  C   LIG    1       25.809 -13.371   3.052  0.00  0.00    +0.061 C 
ATOM     15  C   LIG    1       25.671 -12.400   1.861  0.00  0.00    +0.020 C 
ATOM     16  C   LIG    1       24.440 -11.554   2.160  0.00  0.00    +0.017 C 
ATOM     17  C   LIG    1       23.657 -12.401   3.141  0.00  0.00    +0.084 C 
ENDBRANCH  11  14
ENDBRANCH   1  11
BRANCH   6  18
ATOM     18  C   LIG    1       24.588 -20.468   3.423  0.00  0.00    +0.058 C 
BRANCH  18  19
ATOM     19  C   LIG    1       24.330 -21.417   4.588  0.00  0.00    +0.176 C 
BRANCH  19  20
ATOM     20  S   LIG    1       23.386 -20.623   5.869  0.00  0.00    -0.003 S 
ATOM     21  O   LIG    1       24.310 -19.942   6.761  0.00  0.00    -0.169 OA
ATOM     22  O   LIG    1       22.421 -21.571   6.385  0.00  0.00    -0.169 OA
BRANCH  20  23
ATOM     23  C   LIG    1       22.473 -19.371   4.991  0.00  0.00    +0.088 C 
ATOM     24  C   LIG    1       22.749 -18.020   5.219  0.00  0.00    +0.027 C 
ATOM     25  C   LIG    1       21.993 -17.046   4.566  0.00  0.00    +0.002 C 
ATOM     26  C   LIG    1       20.965 -17.422   3.699  0.00  0.00    +0.000 C 
ATOM     27  C   LIG    1       20.691 -18.773   3.478  0.00  0.00    +0.002 C 
ATOM     28  C   LIG    1       21.443 -19.754   4.126  0.00  0.00    +0.027 C 
ENDBRANCH  20  23
ENDBRANCH  19  20
ENDBRANCH  18  19
ENDBRANCH   6  18
TORSDOF 6
ENDMDL
