MODEL 1
REMARK VINA RESULT:      -8.8      0.000      0.000
REMARK  Name = *****
REMARK                            x       y       z     vdW  Elec       q    Type
REMARK                         _______ _______ _______ _____ _____    ______ ____
ROOT
ATOM      1  C   LIG    1       28.265 -20.630   6.472  0.00  0.00    +0.162 C 
ENDROOT
BRANCH   1   2
ATOM      2  C   LIG    1       26.869 -20.981   6.988  0.00  0.00    -0.007 A 
ATOM      3  C   LIG    1       25.657 -20.631   6.316  0.00  0.00    +0.009 A 
ATOM      4  C   LIG    1       24.449 -21.083   6.917  0.00  0.00    +0.071 A 
ATOM      5  C   LIG    1       23.238 -20.816   6.308  0.00  0.00    +0.032 A 
ATOM      6  C   LIG    1       23.145 -20.100   5.120  0.00  0.00    +0.048 A 
ATOM      7  C   LIG    1       24.297 -19.609   4.523  0.00  0.00    +0.121 A 
ATOM      8  N   LIG    1       24.394 -21.771   8.059  0.00  0.00    -0.255 NA
ATOM      9  C   LIG    1       25.547 -22.075   8.673  0.00  0.00    +0.112 A 
ATOM     10  C   LIG    1       25.541 -19.881   5.111  0.00  0.00    +0.056 A 
ATOM     11  C   LIG    1       26.786 -21.712   8.189  0.00  0.00    +0.026 A 
BRANCH   7  12
ATOM     12  O   LIG    1       24.315 -18.882   3.363  0.00  0.00    -0.495 OA
ATOM     13  C   LIG    1       25.444 -18.024   3.202  0.00  0.00    +0.277 C 
ENDBRANCH   7  12
ENDBRANCH   1   2
BRANCH   1  17
ATOM     14  C   LIG    1       30.959 -17.760   8.547  0.00  0.00    +0.028 C 
ATOM     15  C   LIG    1       31.373 -18.720   7.400  0.00  0.00    -0.000 C 
ATOM     16  C   LIG    1       30.177 -18.864   6.430  0.00  0.00    +0.026 C 
ATOM     17  C   LIG    1       28.932 -19.402   7.195  0.00  0.00    +0.090 C 
ATOM     18  N   LIG    1       29.273 -19.635   8.629  0.00  0.00    -0.296 NA
ATOM     19  C   LIG    1       30.397 -20.586   8.751  0.00  0.00    +0.085 C 
ATOM     20  C   LIG    1       31.630 -20.128   7.959  0.00  0.00    +0.019 C 
ATOM     21  C   LIG    1       29.691 -18.341   9.229  0.00  0.00    +0.092 C 
BRANCH  14  23
ATOM     22  C   LIG    1       32.718 -16.368   9.718  0.00  0.00    +0.004 C 
ATOM     23  C   LIG    1       32.068 -17.529   9.553  0.00  0.00    -0.029 C 
ENDBRANCH  14  23
ENDBRANCH   1  17
BRANCH   1  24
ATOM     24  O   LIG    1       28.165 -20.334   5.067  0.00  0.00    -0.386 OA
ATOM     25  H   LIG    1       27.266 -19.996   4.910  0.00  0.00    +0.210 HD
ENDBRANCH   1  24
TORSDOF 5
ENDMDL
MODEL 2
REMARK VINA RESULT:      -8.7      5.478      8.626
REMARK  Name = *****
REMARK                            x       y       z     vdW  Elec       q    Type
REMARK                         _______ _______ _______ _____ _____    ______ ____
ROOT
ATOM      1  C   LIG    1       25.679 -25.532   6.637  0.00  0.00    +0.162 C 
ENDROOT
BRANCH   1   2
ATOM      2  C   LIG    1       25.203 -26.983   6.560  0.00  0.00    -0.007 A 
ATOM      3  C   LIG    1       25.558 -27.994   7.507  0.00  0.00    +0.009 A 
ATOM      4  C   LIG    1       24.983 -29.279   7.306  0.00  0.00    +0.071 A 
ATOM      5  C   LIG    1       25.249 -30.298   8.199  0.00  0.00    +0.032 A 
ATOM      6  C   LIG    1       26.081 -30.123   9.300  0.00  0.00    +0.048 A 
ATOM      7  C   LIG    1       26.692 -28.896   9.510  0.00  0.00    +0.121 A 
ATOM      8  N   LIG    1       24.176 -29.586   6.288  0.00  0.00    -0.255 NA
ATOM      9  C   LIG    1       23.869 -28.621   5.409  0.00  0.00    +0.112 A 
ATOM     10  C   LIG    1       26.425 -27.839   8.627  0.00  0.00    +0.056 A 
ATOM     11  C   LIG    1       24.346 -27.330   5.497  0.00  0.00    +0.026 A 
BRANCH   7  12
ATOM     12  O   LIG    1       27.537 -28.623  10.552  0.00  0.00    -0.495 OA
ATOM     13  C   LIG    1       26.995 -27.777  11.567  0.00  0.00    +0.277 C 
ENDBRANCH   7  12
ENDBRANCH   1   2
BRANCH   1  17
ATOM     14  C   LIG    1       23.297 -21.875   5.771  0.00  0.00    +0.028 C 
ATOM     15  C   LIG    1       24.709 -22.189   5.208  0.00  0.00    -0.000 C 
ATOM     16  C   LIG    1       24.817 -23.716   4.985  0.00  0.00    +0.026 C 
ATOM     17  C   LIG    1       24.563 -24.468   6.324  0.00  0.00    +0.090 C 
ATOM     18  N   LIG    1       24.311 -23.490   7.422  0.00  0.00    -0.296 NA
ATOM     19  C   LIG    1       25.452 -22.561   7.567  0.00  0.00    +0.085 C 
ATOM     20  C   LIG    1       25.781 -21.841   6.252  0.00  0.00    +0.019 C 
ATOM     21  C   LIG    1       23.105 -22.694   7.075  0.00  0.00    +0.092 C 
BRANCH  14  23
ATOM     22  C   LIG    1       22.579 -19.543   5.101  0.00  0.00    +0.004 C 
ATOM     23  C   LIG    1       23.071 -20.397   6.010  0.00  0.00    -0.029 C 
ENDBRANCH  14  23
ENDBRANCH   1  17
BRANCH   1  24
ATOM     24  O   LIG    1       26.753 -25.360   5.695  0.00  0.00    -0.386 OA
ATOM     25  H   LIG    1       26.458 -24.700   5.045  0.00  0.00    +0.210 HD
ENDBRANCH   1  24
TORSDOF 5
ENDMDL
MODEL 3
REMARK VINA RESULT:      -8.6      2.445      3.344
REMARK  Name = *****
REMARK                            x       y       z     vdW  Elec       q    Type
REMARK                         _______ _______ _______ _____ _____    ______ ____
ROOT
ATOM      1  C   LIG    1       28.154 -21.410   7.456  0.00  0.00    +0.162 C 
ENDROOT
BRANCH   1   2
ATOM      2  C   LIG    1       26.633 -21.565   7.441  0.00  0.00    -0.007 A 
ATOM      3  C   LIG    1       25.954 -22.757   7.036  0.00  0.00    +0.009 A 
ATOM      4  C   LIG    1       24.536 -22.739   7.132  0.00  0.00    +0.071 A 
ATOM      5  C   LIG    1       23.810 -23.866   6.795  0.00  0.00    +0.032 A 
ATOM      6  C   LIG    1       24.417 -25.032   6.344  0.00  0.00    +0.048 A 
ATOM      7  C   LIG    1       25.796 -25.077   6.199  0.00  0.00    +0.121 A 
ATOM      8  N   LIG    1       23.827 -21.685   7.541  0.00  0.00    -0.255 NA
ATOM      9  C   LIG    1       24.490 -20.577   7.903  0.00  0.00    +0.112 A 
ATOM     10  C   LIG    1       26.557 -23.953   6.551  0.00  0.00    +0.056 A 
ATOM     11  C   LIG    1       25.864 -20.467   7.872  0.00  0.00    +0.026 A 
BRANCH   7  12
ATOM     12  O   LIG    1       26.490 -26.169   5.751  0.00  0.00    -0.495 OA
ATOM     13  C   LIG    1       25.727 -27.098   4.980  0.00  0.00    +0.277 C 
ENDBRANCH   7  12
ENDBRANCH   1   2
BRANCH   1  17
ATOM     14  C   LIG    1       30.435 -17.744   8.533  0.00  0.00    +0.028 C 
ATOM     15  C   LIG    1       30.502 -18.482   7.170  0.00  0.00    -0.000 C 
ATOM     16  C   LIG    1       29.101 -19.061   6.859  0.00  0.00    +0.026 C 
ATOM     17  C   LIG    1       28.657 -20.022   8.000  0.00  0.00    +0.090 C 
ATOM     18  N   LIG    1       29.723 -20.111   9.040  0.00  0.00    -0.296 NA
ATOM     19  C   LIG    1       30.995 -20.576   8.446  0.00  0.00    +0.085 C 
ATOM     20  C   LIG    1       31.442 -19.694   7.272  0.00  0.00    +0.019 C 
ATOM     21  C   LIG    1       29.944 -18.754   9.604  0.00  0.00    +0.092 C 
BRANCH  14  23
ATOM     22  C   LIG    1       32.203 -17.018  10.191  0.00  0.00    +0.004 C 
ATOM     23  C   LIG    1       31.755 -17.117   8.931  0.00  0.00    -0.029 C 
ENDBRANCH  14  23
ENDBRANCH   1  17
BRANCH   1  24
ATOM     24  O   LIG    1       28.637 -21.576   6.110  0.00  0.00    -0.386 OA
ATOM     25  H   LIG    1       28.587 -20.705   5.680  0.00  0.00    +0.210 HD
ENDBRANCH   1  24
TORSDOF 5
ENDMDL
MODEL 4
REMARK VINA RESULT:      -8.5      4.001      7.774
REMARK  Name = *****
REMARK                            x       y       z     vdW  Elec       q    Type
REMARK                         _______ _______ _______ _____ _____    ______ ____
ROOT
ATOM      1  C   LIG    1       24.636 -22.922   6.775  0.00  0.00    +0.162 C 
ENDROOT
BRANCH   1   2
ATOM      2  C   LIG    1       25.264 -21.743   6.031  0.00  0.00    -0.007 A 
ATOM      3  C   LIG    1       26.545 -21.190   6.344  0.00  0.00    +0.009 A 
ATOM      4  C   LIG    1       26.993 -20.125   5.515  0.00  0.00    +0.071 A 
ATOM      5  C   LIG    1       28.236 -19.563   5.730  0.00  0.00    +0.032 A 
ATOM      6  C   LIG    1       29.078 -19.991   6.751  0.00  0.00    +0.048 A 
ATOM      7  C   LIG    1       28.662 -21.000   7.606  0.00  0.00    +0.121 A 
ATOM      8  N   LIG    1       26.284 -19.613   4.507  0.00  0.00    -0.255 NA
ATOM      9  C   LIG    1       25.081 -20.144   4.243  0.00  0.00    +0.112 A 
ATOM     10  C   LIG    1       27.411 -21.600   7.398  0.00  0.00    +0.056 A 
ATOM     11  C   LIG    1       24.536 -21.189   4.960  0.00  0.00    +0.026 A 
BRANCH   7  12
ATOM     12  O   LIG    1       29.406 -21.485   8.648  0.00  0.00    -0.495 OA
ATOM     13  C   LIG    1       30.789 -21.130   8.623  0.00  0.00    +0.277 C 
ENDBRANCH   7  12
ENDBRANCH   1   2
BRANCH   1  17
ATOM     14  C   LIG    1       24.549 -27.021   5.046  0.00  0.00    +0.028 C 
ATOM     15  C   LIG    1       24.341 -26.667   6.542  0.00  0.00    -0.000 C 
ATOM     16  C   LIG    1       23.607 -25.307   6.624  0.00  0.00    +0.026 C 
ATOM     17  C   LIG    1       24.436 -24.210   5.894  0.00  0.00    +0.090 C 
ATOM     18  N   LIG    1       25.696 -24.795   5.352  0.00  0.00    -0.296 NA
ATOM     19  C   LIG    1       26.498 -25.405   6.435  0.00  0.00    +0.085 C 
ATOM     20  C   LIG    1       25.700 -26.451   7.226  0.00  0.00    +0.019 C 
ATOM     21  C   LIG    1       25.340 -25.863   4.381  0.00  0.00    +0.092 C 
BRANCH  14  23
ATOM     22  C   LIG    1       24.872 -29.503   5.419  0.00  0.00    +0.004 C 
ATOM     23  C   LIG    1       25.245 -28.351   4.844  0.00  0.00    -0.029 C 
ENDBRANCH  14  23
ENDBRANCH   1  17
BRANCH   1  24
ATOM     24  O   LIG    1       23.352 -22.506   7.276  0.00  0.00    -0.386 OA
ATOM     25  H   LIG    1       23.195 -21.605   6.943  0.00  0.00    +0.210 HD
ENDBRANCH   1  24
TORSDOF 5
ENDMDL
MODEL 5
REMARK VINA RESULT:      -8.1      2.519      3.353
REMARK  Name = *****
REMARK                            x       y       z     vdW  Elec       q    Type
REMARK                         _______ _______ _______ _____ _____    ______ ____
ROOT
ATOM      1  C   LIG    1       27.271 -20.971   6.236  0.00  0.00    +0.162 C 
ENDROOT
BRANCH   1   2
ATOM      2  C   LIG    1       25.850 -21.354   6.649  0.00  0.00    -0.007 A 
ATOM      3  C   LIG    1       25.281 -22.651   6.453  0.00  0.00    +0.009 A 
ATOM      4  C   LIG    1       23.960 -22.843   6.944  0.00  0.00    +0.071 A 
ATOM      5  C   LIG    1       23.356 -24.080   6.825  0.00  0.00    +0.032 A 
ATOM      6  C   LIG    1       23.989 -25.161   6.222  0.00  0.00    +0.048 A 
ATOM      7  C   LIG    1       25.263 -25.004   5.694  0.00  0.00    +0.121 A 
ATOM      8  N   LIG    1       23.237 -21.891   7.536  0.00  0.00    -0.255 NA
ATOM      9  C   LIG    1       23.792 -20.680   7.697  0.00  0.00    +0.112 A 
ATOM     10  C   LIG    1       25.906 -23.763   5.818  0.00  0.00    +0.056 A 
ATOM     11  C   LIG    1       25.068 -20.366   7.280  0.00  0.00    +0.026 A 
BRANCH   7  12
ATOM     12  O   LIG    1       25.967 -25.997   5.070  0.00  0.00    -0.495 OA
ATOM     13  C   LIG    1       25.565 -27.327   5.400  0.00  0.00    +0.277 C 
ENDBRANCH   7  12
ENDBRANCH   1   2
BRANCH   1  17
ATOM     14  C   LIG    1       29.991 -18.267   8.491  0.00  0.00    +0.028 C 
ATOM     15  C   LIG    1       30.253 -18.832   7.070  0.00  0.00    -0.000 C 
ATOM     16  C   LIG    1       28.898 -18.942   6.331  0.00  0.00    +0.026 C 
ATOM     17  C   LIG    1       27.928 -19.858   7.134  0.00  0.00    +0.090 C 
ATOM     18  N   LIG    1       28.603 -20.369   8.362  0.00  0.00    -0.296 NA
ATOM     19  C   LIG    1       29.833 -21.111   8.013  0.00  0.00    +0.085 C 
ATOM     20  C   LIG    1       30.796 -20.267   7.166  0.00  0.00    +0.019 C 
ATOM     21  C   LIG    1       28.985 -19.208   9.207  0.00  0.00    +0.092 C 
BRANCH  14  23
ATOM     22  C   LIG    1       32.140 -17.100   9.142  0.00  0.00    +0.004 C 
ATOM     23  C   LIG    1       31.259 -18.097   9.303  0.00  0.00    -0.029 C 
ENDBRANCH  14  23
ENDBRANCH   1  17
BRANCH   1  24
ATOM     24  O   LIG    1       27.232 -20.498   4.876  0.00  0.00    -0.386 OA
ATOM     25  H   LIG    1       28.123 -20.620   4.507  0.00  0.00    +0.210 HD
ENDBRANCH   1  24
TORSDOF 5
ENDMDL
MODEL 6
REMARK VINA RESULT:      -7.7      1.929      2.922
REMARK  Name = *****
REMARK                            x       y       z     vdW  Elec       q    Type
REMARK                         _______ _______ _______ _____ _____    ______ ____
ROOT
ATOM      1  C   LIG    1       28.074 -20.446   6.675  0.00  0.00    +0.162 C 
ENDROOT
BRANCH   1   2
ATOM      2  C   LIG    1       27.020 -20.021   5.653  0.00  0.00    -0.007 A 
ATOM      3  C   LIG    1       25.694 -20.554   5.602  0.00  0.00    +0.009 A 
ATOM      4  C   LIG    1       24.830 -20.006   4.613  0.00  0.00    +0.071 A 
ATOM      5  C   LIG    1       23.523 -20.443   4.525  0.00  0.00    +0.032 A 
ATOM      6  C   LIG    1       23.009 -21.423   5.367  0.00  0.00    +0.048 A 
ATOM      7  C   LIG    1       23.830 -22.011   6.318  0.00  0.00    +0.121 A 
ATOM      8  N   LIG    1       25.196 -19.067   3.738  0.00  0.00    -0.255 NA
ATOM      9  C   LIG    1       26.449 -18.594   3.802  0.00  0.00    +0.112 A 
ATOM     10  C   LIG    1       25.157 -21.572   6.440  0.00  0.00    +0.056 A 
ATOM     11  C   LIG    1       27.381 -19.028   4.721  0.00  0.00    +0.026 A 
BRANCH   7  12
ATOM     12  O   LIG    1       23.428 -22.991   7.184  0.00  0.00    -0.495 OA
ATOM     13  C   LIG    1       23.495 -24.321   6.669  0.00  0.00    +0.277 C 
ENDBRANCH   7  12
ENDBRANCH   1   2
BRANCH   1  17
ATOM     14  C   LIG    1       31.178 -17.807   8.465  0.00  0.00    +0.028 C 
ATOM     15  C   LIG    1       31.443 -18.971   7.474  0.00  0.00    -0.000 C 
ATOM     16  C   LIG    1       30.259 -19.046   6.480  0.00  0.00    +0.026 C 
ATOM     17  C   LIG    1       28.927 -19.259   7.257  0.00  0.00    +0.090 C 
ATOM     18  N   LIG    1       29.194 -19.345   8.722  0.00  0.00    -0.296 NA
ATOM     19  C   LIG    1       30.138 -20.444   9.017  0.00  0.00    +0.085 C 
ATOM     20  C   LIG    1       31.446 -20.312   8.224  0.00  0.00    +0.019 C 
ATOM     21  C   LIG    1       29.816 -18.069   9.162  0.00  0.00    +0.092 C 
BRANCH  14  23
ATOM     22  C   LIG    1       32.145 -17.036  10.672  0.00  0.00    +0.004 C 
ATOM     23  C   LIG    1       32.290 -17.627   9.477  0.00  0.00    -0.029 C 
ENDBRANCH  14  23
ENDBRANCH   1  17
BRANCH   1  24
ATOM     24  O   LIG    1       28.966 -21.381   6.039  0.00  0.00    -0.386 OA
ATOM     25  H   LIG    1       28.710 -22.269   6.343  0.00  0.00    +0.210 HD
ENDBRANCH   1  24
TORSDOF 5
ENDMDL
MODEL 7
REMARK VINA RESULT:      -7.5      3.071      7.260
REMARK  Name = *****
REMARK                            x       y       z     vdW  Elec       q    Type
REMARK                         _______ _______ _______ _____ _____    ______ ____
ROOT
ATOM      1  C   LIG    1       24.656 -21.237   7.731  0.00  0.00    +0.162 C 
ENDROOT
BRANCH   1   2
ATOM      2  C   LIG    1       25.463 -20.583   6.609  0.00  0.00    -0.007 A 
ATOM      3  C   LIG    1       26.871 -20.346   6.669  0.00  0.00    +0.009 A 
ATOM      4  C   LIG    1       27.466 -19.772   5.512  0.00  0.00    +0.071 A 
ATOM      5  C   LIG    1       28.828 -19.547   5.479  0.00  0.00    +0.032 A 
ATOM      6  C   LIG    1       29.657 -19.850   6.553  0.00  0.00    +0.048 A 
ATOM      7  C   LIG    1       29.111 -20.375   7.715  0.00  0.00    +0.121 A 
ATOM      8  N   LIG    1       26.787 -19.426   4.416  0.00  0.00    -0.255 NA
ATOM      9  C   LIG    1       25.464 -19.649   4.392  0.00  0.00    +0.112 A 
ATOM     10  C   LIG    1       27.732 -20.630   7.768  0.00  0.00    +0.056 A 
ATOM     11  C   LIG    1       24.768 -20.214   5.441  0.00  0.00    +0.026 A 
BRANCH   7  12
ATOM     12  O   LIG    1       29.834 -20.695   8.832  0.00  0.00    -0.495 OA
ATOM     13  C   LIG    1       31.208 -20.305   8.798  0.00  0.00    +0.277 C 
ENDBRANCH   7  12
ENDBRANCH   1   2
BRANCH   1  17
ATOM     14  C   LIG    1       24.603 -25.494   6.439  0.00  0.00    +0.028 C 
ATOM     15  C   LIG    1       25.685 -24.448   6.060  0.00  0.00    -0.000 C 
ATOM     16  C   LIG    1       25.874 -23.487   7.258  0.00  0.00    +0.026 C 
ATOM     17  C   LIG    1       24.522 -22.799   7.607  0.00  0.00    +0.090 C 
ATOM     18  N   LIG    1       23.456 -23.259   6.670  0.00  0.00    -0.296 NA
ATOM     19  C   LIG    1       23.829 -22.969   5.270  0.00  0.00    +0.085 C 
ATOM     20  C   LIG    1       25.190 -23.575   4.897  0.00  0.00    +0.019 C 
ATOM     21  C   LIG    1       23.305 -24.731   6.815  0.00  0.00    +0.092 C 
BRANCH  14  23
ATOM     22  C   LIG    1       24.353 -27.835   5.511  0.00  0.00    +0.004 C 
ATOM     23  C   LIG    1       24.349 -26.505   5.340  0.00  0.00    -0.029 C 
ENDBRANCH  14  23
ENDBRANCH   1  17
BRANCH   1  24
ATOM     24  O   LIG    1       23.336 -20.662   7.730  0.00  0.00    -0.386 OA
ATOM     25  H   LIG    1       23.427 -19.740   7.434  0.00  0.00    +0.210 HD
ENDBRANCH   1  24
TORSDOF 5
ENDMDL
MODEL 8
REMARK VINA RESULT:      -7.1      3.559      7.239
REMARK  Name = *****
REMARK                            x       y       z     vdW  Elec       q    Type
REMARK                         _______ _______ _______ _____ _____    ______ ____
ROOT
ATOM      1  C   LIG    1       23.849 -22.205   6.547  0.00  0.00    +0.162 C 
ENDROOT
BRANCH   1   2
ATOM      2  C   LIG    1       23.669 -21.001   5.622  0.00  0.00    -0.007 A 
ATOM      3  C   LIG    1       24.747 -20.201   5.131  0.00  0.00    +0.009 A 
ATOM      4  C   LIG    1       24.398 -19.148   4.240  0.00  0.00    +0.071 A 
ATOM      5  C   LIG    1       25.388 -18.354   3.694  0.00  0.00    +0.032 A 
ATOM      6  C   LIG    1       26.734 -18.533   3.994  0.00  0.00    +0.048 A 
ATOM      7  C   LIG    1       27.112 -19.523   4.889  0.00  0.00    +0.121 A 
ATOM      8  N   LIG    1       23.147 -18.862   3.875  0.00  0.00    -0.255 NA
ATOM      9  C   LIG    1       22.155 -19.623   4.360  0.00  0.00    +0.112 A 
ATOM     10  C   LIG    1       26.128 -20.355   5.444  0.00  0.00    +0.056 A 
ATOM     11  C   LIG    1       22.358 -20.682   5.219  0.00  0.00    +0.026 A 
BRANCH   7  12
ATOM     12  O   LIG    1       28.405 -19.772   5.262  0.00  0.00    -0.495 OA
ATOM     13  C   LIG    1       28.595 -20.037   6.653  0.00  0.00    +0.277 C 
ENDBRANCH   7  12
ENDBRANCH   1   2
BRANCH   1  17
ATOM     14  C   LIG    1       24.539 -26.397   5.224  0.00  0.00    +0.028 C 
ATOM     15  C   LIG    1       24.310 -25.938   6.688  0.00  0.00    -0.000 C 
ATOM     16  C   LIG    1       23.319 -24.749   6.677  0.00  0.00    +0.026 C 
ATOM     17  C   LIG    1       23.886 -23.592   5.805  0.00  0.00    +0.090 C 
ATOM     18  N   LIG    1       25.222 -23.969   5.257  0.00  0.00    -0.296 NA
ATOM     19  C   LIG    1       26.163 -24.291   6.351  0.00  0.00    +0.085 C 
ATOM     20  C   LIG    1       25.617 -25.387   7.278  0.00  0.00    +0.019 C 
ATOM     21  C   LIG    1       25.060 -25.180   4.413  0.00  0.00    +0.092 C 
BRANCH  14  23
ATOM     22  C   LIG    1       25.205 -28.818   5.535  0.00  0.00    +0.004 C 
ATOM     23  C   LIG    1       25.484 -27.576   5.115  0.00  0.00    -0.029 C 
ENDBRANCH  14  23
ENDBRANCH   1  17
BRANCH   1  24
ATOM     24  O   LIG    1       22.758 -22.218   7.487  0.00  0.00    -0.386 OA
ATOM     25  H   LIG    1       22.997 -21.611   8.208  0.00  0.00    +0.210 HD
ENDBRANCH   1  24
TORSDOF 5
ENDMDL
MODEL 9
REMARK VINA RESULT:      -7.1      2.136      6.486
REMARK  Name = *****
REMARK                            x       y       z     vdW  Elec       q    Type
REMARK                         _______ _______ _______ _____ _____    ______ ____
ROOT
ATOM      1  C   LIG    1       26.956 -21.971   7.640  0.00  0.00    +0.162 C 
ENDROOT
BRANCH   1   2
ATOM      2  C   LIG    1       28.308 -21.262   7.573  0.00  0.00    -0.007 A 
ATOM      3  C   LIG    1       28.601 -20.180   6.686  0.00  0.00    +0.009 A 
ATOM      4  C   LIG    1       29.899 -19.608   6.793  0.00  0.00    +0.071 A 
ATOM      5  C   LIG    1       30.245 -18.534   5.996  0.00  0.00    +0.032 A 
ATOM      6  C   LIG    1       29.368 -17.987   5.065  0.00  0.00    +0.048 A 
ATOM      7  C   LIG    1       28.107 -18.541   4.901  0.00  0.00    +0.121 A 
ATOM      8  N   LIG    1       30.838 -20.039   7.637  0.00  0.00    -0.255 NA
ATOM      9  C   LIG    1       30.539 -21.064   8.450  0.00  0.00    +0.112 A 
ATOM     10  C   LIG    1       27.725 -19.621   5.712  0.00  0.00    +0.056 A 
ATOM     11  C   LIG    1       29.315 -21.697   8.457  0.00  0.00    +0.026 A 
BRANCH   7  12
ATOM     12  O   LIG    1       27.176 -18.089   4.006  0.00  0.00    -0.495 OA
ATOM     13  C   LIG    1       27.214 -16.685   3.748  0.00  0.00    +0.277 C 
ENDBRANCH   7  12
ENDBRANCH   1   2
BRANCH   1  17
ATOM     14  C   LIG    1       23.190 -20.782   5.589  0.00  0.00    +0.028 C 
ATOM     15  C   LIG    1       23.319 -21.178   7.084  0.00  0.00    -0.000 C 
ATOM     16  C   LIG    1       24.692 -20.688   7.602  0.00  0.00    +0.026 C 
ATOM     17  C   LIG    1       25.836 -21.315   6.751  0.00  0.00    +0.090 C 
ATOM     18  N   LIG    1       25.264 -22.214   5.706  0.00  0.00    -0.296 NA
ATOM     19  C   LIG    1       24.445 -23.278   6.324  0.00  0.00    +0.085 C 
ATOM     20  C   LIG    1       23.340 -22.708   7.224  0.00  0.00    +0.019 C 
ATOM     21  C   LIG    1       24.386 -21.406   4.821  0.00  0.00    +0.092 C 
BRANCH  14  23
ATOM     22  C   LIG    1       21.074 -20.393   4.257  0.00  0.00    +0.004 C 
ATOM     23  C   LIG    1       21.867 -21.197   4.980  0.00  0.00    -0.029 C 
ENDBRANCH  14  23
ENDBRANCH   1  17
BRANCH   1  24
ATOM     24  O   LIG    1       26.514 -21.968   9.010  0.00  0.00    -0.386 OA
ATOM     25  H   LIG    1       25.733 -22.547   9.059  0.00  0.00    +0.210 HD
ENDBRANCH   1  24
TORSDOF 5
ENDMDL
