MODEL 1
REMARK VINA RESULT:      -9.4      0.000      0.000
REMARK  Name = *****
REMARK                            x       y       z     vdW  Elec       q    Type
REMARK                         _______ _______ _______ _____ _____    ______ ____
ROOT
ATOM      1  C   LIG    1       29.976 -19.161   8.601  0.00  0.00    +0.111 C 
ENDROOT
BRANCH   1   3
ATOM      2  O   LIG    1       31.889 -19.491   7.126  0.00  0.00    -0.251 OA
ATOM      3  C   LIG    1       31.336 -19.714   8.203  0.00  0.00    +0.309 C 
BRANCH   3   4
ATOM      4  O   LIG    1       31.909 -20.509   9.127  0.00  0.00    -0.480 OA
ATOM      5  H   LIG    1       31.428 -20.496   9.989  0.00  0.00    +0.295 HD
ENDBRANCH   3   4
ENDBRANCH   1   3
BRANCH   1   6
ATOM      6  C   LIG    1       28.894 -19.543   7.564  0.00  0.00    +0.110 C 
BRANCH   6   7
ATOM      7  C   LIG    1       28.489 -21.016   7.570  0.00  0.00    +0.216 C 
ATOM      8  N   LIG    1       27.138 -21.294   7.468  0.00  0.00    -0.301 N 
ATOM      9  C   LIG    1       26.028 -20.340   7.482  0.00  0.00    +0.111 C 
ATOM     10  C   LIG    1       24.801 -21.196   7.829  0.00  0.00    +0.011 C 
ATOM     11  C   LIG    1       25.138 -22.556   7.201  0.00  0.00    +0.011 C 
ATOM     12  C   LIG    1       24.794 -22.646   5.708  0.00  0.00    +0.005 C 
ATOM     13  C   LIG    1       23.362 -22.213   5.430  0.00  0.00    +0.000 C 
ATOM     14  C   LIG    1       23.122 -20.792   5.927  0.00  0.00    +0.000 C 
ATOM     15  C   LIG    1       23.432 -20.655   7.416  0.00  0.00    +0.005 C 
ATOM     16  C   LIG    1       26.648 -22.670   7.430  0.00  0.00    +0.111 C 
ATOM     17  O   LIG    1       29.339 -21.902   7.680  0.00  0.00    -0.276 OA
ENDBRANCH   6   7
ENDBRANCH   1   6
BRANCH   1  18
ATOM     18  C   LIG    1       30.036 -17.613   8.734  0.00  0.00    +0.050 C 
BRANCH  18  19
ATOM     19  C   LIG    1       30.991 -17.071   9.779  0.00  0.00    -0.047 A 
ATOM     20  C   LIG    1       32.112 -16.322   9.385  0.00  0.00    +0.003 A 
ATOM     21  C   LIG    1       33.025 -15.839  10.322  0.00  0.00    +0.000 A 
ATOM     22  C   LIG    1       32.815 -16.076  11.677  0.00  0.00    +0.000 A 
ATOM     23  C   LIG    1       31.693 -16.795  12.088  0.00  0.00    +0.000 A 
ATOM     24  C   LIG    1       30.786 -17.294  11.145  0.00  0.00    +0.003 A 
ENDBRANCH  18  19
ENDBRANCH   1  18
TORSDOF 6
ENDMDL
MODEL 2
REMARK VINA RESULT:      -8.7      3.948      6.920
REMARK  Name = *****
REMARK                            x       y       z     vdW  Elec       q    Type
REMARK                         _______ _______ _______ _____ _____    ______ ____
ROOT
ATOM      1  C   LIG    1       26.527 -20.737   6.942  0.00  0.00    +0.111 C 
ENDROOT
BRANCH   1   3
ATOM      2  O   LIG    1       28.720 -19.998   6.178  0.00  0.00    -0.251 OA
ATOM      3  C   LIG    1       27.926 -20.162   7.104  0.00  0.00    +0.309 C 
BRANCH   3   4
ATOM      4  O   LIG    1       28.261 -19.852   8.371  0.00  0.00    -0.480 OA
ATOM      5  H   LIG    1       29.205 -19.577   8.456  0.00  0.00    +0.295 HD
ENDBRANCH   3   4
ENDBRANCH   1   3
BRANCH   1   6
ATOM      6  C   LIG    1       26.422 -22.138   7.589  0.00  0.00    +0.110 C 
BRANCH   6   7
ATOM      7  C   LIG    1       25.038 -22.779   7.517  0.00  0.00    +0.216 C 
ATOM      8  N   LIG    1       24.914 -23.918   6.741  0.00  0.00    -0.301 N 
ATOM      9  C   LIG    1       25.928 -24.518   5.873  0.00  0.00    +0.111 C 
ATOM     10  C   LIG    1       25.124 -25.418   4.923  0.00  0.00    +0.011 C 
ATOM     11  C   LIG    1       23.943 -25.872   5.793  0.00  0.00    +0.011 C 
ATOM     12  C   LIG    1       24.264 -27.079   6.685  0.00  0.00    +0.005 C 
ATOM     13  C   LIG    1       24.878 -28.222   5.891  0.00  0.00    +0.000 C 
ATOM     14  C   LIG    1       26.143 -27.763   5.174  0.00  0.00    +0.000 C 
ATOM     15  C   LIG    1       25.870 -26.574   4.256  0.00  0.00    +0.005 C 
ATOM     16  C   LIG    1       23.642 -24.627   6.632  0.00  0.00    +0.111 C 
ATOM     17  O   LIG    1       24.081 -22.280   8.114  0.00  0.00    -0.276 OA
ENDBRANCH   6   7
ENDBRANCH   1   6
BRANCH   1  18
ATOM     18  C   LIG    1       26.150 -20.836   5.437  0.00  0.00    +0.050 C 
BRANCH  18  19
ATOM     19  C   LIG    1       24.868 -20.142   5.024  0.00  0.00    -0.047 A 
ATOM     20  C   LIG    1       24.844 -19.334   3.875  0.00  0.00    +0.003 A 
ATOM     21  C   LIG    1       23.686 -18.658   3.491  0.00  0.00    +0.000 A 
ATOM     22  C   LIG    1       22.522 -18.800   4.238  0.00  0.00    +0.000 A 
ATOM     23  C   LIG    1       22.520 -19.620   5.366  0.00  0.00    +0.000 A 
ATOM     24  C   LIG    1       23.687 -20.285   5.762  0.00  0.00    +0.003 A 
ENDBRANCH  18  19
ENDBRANCH   1  18
TORSDOF 6
ENDMDL
MODEL 3
REMARK VINA RESULT:      -8.6      1.486      2.455
REMARK  Name = *****
REMARK                            x       y       z     vdW  Elec       q    Type
REMARK                         _______ _______ _______ _____ _____    ______ ____
ROOT
ATOM      1  C   LIG    1       30.135 -20.727   8.451  0.00  0.00    +0.111 C 
ENDROOT
BRANCH   1   3
ATOM      2  O   LIG    1       30.763 -22.178  10.307  0.00  0.00    -0.251 OA
ATOM      3  C   LIG    1       31.003 -21.742   9.181  0.00  0.00    +0.309 C 
BRANCH   3   4
ATOM      4  O   LIG    1       32.099 -22.131   8.502  0.00  0.00    -0.480 OA
ATOM      5  H   LIG    1       32.548 -21.380   8.045  0.00  0.00    +0.295 HD
ENDBRANCH   3   4
ENDBRANCH   1   3
BRANCH   1   6
ATOM      6  C   LIG    1       29.401 -21.379   7.256  0.00  0.00    +0.110 C 
BRANCH   6   7
ATOM      7  C   LIG    1       28.424 -20.462   6.522  0.00  0.00    +0.216 C 
ATOM      8  N   LIG    1       27.147 -20.949   6.311  0.00  0.00    -0.301 N 
ATOM      9  C   LIG    1       26.648 -22.295   6.595  0.00  0.00    +0.111 C 
ATOM     10  C   LIG    1       25.379 -22.414   5.740  0.00  0.00    +0.011 C 
ATOM     11  C   LIG    1       24.844 -20.975   5.709  0.00  0.00    +0.011 C 
ATOM     12  C   LIG    1       23.998 -20.608   6.936  0.00  0.00    +0.005 C 
ATOM     13  C   LIG    1       22.903 -21.631   7.196  0.00  0.00    +0.000 C 
ATOM     14  C   LIG    1       23.499 -23.022   7.382  0.00  0.00    +0.000 C 
ATOM     15  C   LIG    1       24.335 -23.443   6.176  0.00  0.00    +0.005 C 
ATOM     16  C   LIG    1       26.126 -20.140   5.649  0.00  0.00    +0.111 C 
ATOM     17  O   LIG    1       28.780 -19.350   6.128  0.00  0.00    -0.276 OA
ENDBRANCH   6   7
ENDBRANCH   1   6
BRANCH   1  18
ATOM     18  C   LIG    1       30.999 -19.540   7.939  0.00  0.00    +0.050 C 
BRANCH  18  19
ATOM     19  C   LIG    1       31.210 -18.400   8.914  0.00  0.00    -0.047 A 
ATOM     20  C   LIG    1       30.302 -18.198   9.967  0.00  0.00    +0.003 A 
ATOM     21  C   LIG    1       30.455 -17.137  10.860  0.00  0.00    +0.000 A 
ATOM     22  C   LIG    1       31.537 -16.274  10.729  0.00  0.00    +0.000 A 
ATOM     23  C   LIG    1       32.464 -16.476   9.706  0.00  0.00    +0.000 A 
ATOM     24  C   LIG    1       32.301 -17.530   8.799  0.00  0.00    +0.003 A 
ENDBRANCH  18  19
ENDBRANCH   1  18
TORSDOF 6
ENDMDL
MODEL 4
REMARK VINA RESULT:      -8.5      3.512      5.665
REMARK  Name = *****
REMARK                            x       y       z     vdW  Elec       q    Type
REMARK                         _______ _______ _______ _____ _____    ______ ____
ROOT
ATOM      1  C   LIG    1       25.625 -21.122   7.342  0.00  0.00    +0.111 C 
ENDROOT
BRANCH   1   3
ATOM      2  O   LIG    1       26.200 -20.114   9.486  0.00  0.00    -0.251 OA
ATOM      3  C   LIG    1       25.807 -21.094   8.852  0.00  0.00    +0.309 C 
BRANCH   3   4
ATOM      4  O   LIG    1       25.522 -22.255   9.473  0.00  0.00    -0.480 OA
ATOM      5  H   LIG    1       25.019 -22.878   8.896  0.00  0.00    +0.295 HD
ENDBRANCH   3   4
ENDBRANCH   1   3
BRANCH   1   6
ATOM      6  C   LIG    1       24.427 -22.015   6.942  0.00  0.00    +0.110 C 
BRANCH   6   7
ATOM      7  C   LIG    1       24.605 -22.784   5.635  0.00  0.00    +0.216 C 
ATOM      8  N   LIG    1       24.988 -24.109   5.735  0.00  0.00    -0.301 N 
ATOM      9  C   LIG    1       25.370 -24.837   6.946  0.00  0.00    +0.111 C 
ATOM     10  C   LIG    1       26.143 -26.057   6.423  0.00  0.00    +0.011 C 
ATOM     11  C   LIG    1       25.466 -26.346   5.076  0.00  0.00    +0.011 C 
ATOM     12  C   LIG    1       24.191 -27.190   5.197  0.00  0.00    +0.005 C 
ATOM     13  C   LIG    1       24.422 -28.452   6.016  0.00  0.00    +0.000 C 
ATOM     14  C   LIG    1       24.941 -28.103   7.407  0.00  0.00    +0.000 C 
ATOM     15  C   LIG    1       26.224 -27.278   7.340  0.00  0.00    +0.005 C 
ATOM     16  C   LIG    1       25.154 -24.943   4.547  0.00  0.00    +0.111 C 
ATOM     17  O   LIG    1       24.429 -22.228   4.549  0.00  0.00    -0.276 OA
ENDBRANCH   6   7
ENDBRANCH   1   6
BRANCH   1  18
ATOM     18  C   LIG    1       26.912 -21.648   6.648  0.00  0.00    +0.050 C 
BRANCH  18  19
ATOM     19  C   LIG    1       28.112 -20.722   6.681  0.00  0.00    -0.047 A 
ATOM     20  C   LIG    1       28.181 -19.628   5.804  0.00  0.00    +0.003 A 
ATOM     21  C   LIG    1       29.288 -18.779   5.792  0.00  0.00    +0.000 A 
ATOM     22  C   LIG    1       30.336 -18.998   6.678  0.00  0.00    +0.000 A 
ATOM     23  C   LIG    1       30.273 -20.064   7.576  0.00  0.00    +0.000 A 
ATOM     24  C   LIG    1       29.169 -20.926   7.576  0.00  0.00    +0.003 A 
ENDBRANCH  18  19
ENDBRANCH   1  18
TORSDOF 6
ENDMDL
MODEL 5
REMARK VINA RESULT:      -8.5      1.732      2.399
REMARK  Name = *****
REMARK                            x       y       z     vdW  Elec       q    Type
REMARK                         _______ _______ _______ _____ _____    ______ ____
ROOT
ATOM      1  C   LIG    1       29.775 -20.501   8.496  0.00  0.00    +0.111 C 
ENDROOT
BRANCH   1   3
ATOM      2  O   LIG    1       30.845 -22.063  10.033  0.00  0.00    -0.251 OA
ATOM      3  C   LIG    1       30.874 -21.440   8.971  0.00  0.00    +0.309 C 
BRANCH   3   4
ATOM      4  O   LIG    1       31.928 -21.536   8.138  0.00  0.00    -0.480 OA
ATOM      5  H   LIG    1       32.775 -21.701   8.616  0.00  0.00    +0.295 HD
ENDBRANCH   3   4
ENDBRANCH   1   3
BRANCH   1   6
ATOM      6  C   LIG    1       28.890 -21.177   7.423  0.00  0.00    +0.110 C 
BRANCH   6   7
ATOM      7  C   LIG    1       27.419 -21.328   7.804  0.00  0.00    +0.216 C 
ATOM      8  N   LIG    1       26.484 -20.924   6.868  0.00  0.00    -0.301 N 
ATOM      9  C   LIG    1       26.734 -20.246   5.595  0.00  0.00    +0.111 C 
ATOM     10  C   LIG    1       25.380 -19.622   5.229  0.00  0.00    +0.011 C 
ATOM     11  C   LIG    1       24.369 -20.614   5.822  0.00  0.00    +0.011 C 
ATOM     12  C   LIG    1       24.077 -21.813   4.910  0.00  0.00    +0.005 C 
ATOM     13  C   LIG    1       23.707 -21.376   3.500  0.00  0.00    +0.000 C 
ATOM     14  C   LIG    1       24.817 -20.526   2.891  0.00  0.00    +0.000 C 
ATOM     15  C   LIG    1       25.132 -19.306   3.754  0.00  0.00    +0.005 C 
ATOM     16  C   LIG    1       25.051 -21.057   7.119  0.00  0.00    +0.111 C 
ATOM     17  O   LIG    1       27.097 -21.774   8.907  0.00  0.00    -0.276 OA
ENDBRANCH   6   7
ENDBRANCH   1   6
BRANCH   1  18
ATOM     18  C   LIG    1       30.388 -19.198   7.911  0.00  0.00    +0.050 C 
BRANCH  18  19
ATOM     19  C   LIG    1       30.905 -18.193   8.921  0.00  0.00    -0.047 A 
ATOM     20  C   LIG    1       30.103 -17.813  10.009  0.00  0.00    +0.003 A 
ATOM     21  C   LIG    1       30.542 -16.867  10.935  0.00  0.00    +0.000 A 
ATOM     22  C   LIG    1       31.806 -16.303  10.802  0.00  0.00    +0.000 A 
ATOM     23  C   LIG    1       32.627 -16.689   9.743  0.00  0.00    +0.000 A 
ATOM     24  C   LIG    1       32.180 -17.626   8.803  0.00  0.00    +0.003 A 
ENDBRANCH  18  19
ENDBRANCH   1  18
TORSDOF 6
ENDMDL
MODEL 6
REMARK VINA RESULT:      -8.5      1.603      2.086
REMARK  Name = *****
REMARK                            x       y       z     vdW  Elec       q    Type
REMARK                         _______ _______ _______ _____ _____    ______ ____
ROOT
ATOM      1  C   LIG    1       29.551 -19.650   8.698  0.00  0.00    +0.111 C 
ENDROOT
BRANCH   1   3
ATOM      2  O   LIG    1       30.572 -21.865   8.675  0.00  0.00    -0.251 OA
ATOM      3  C   LIG    1       30.563 -20.703   8.267  0.00  0.00    +0.309 C 
BRANCH   3   4
ATOM      4  O   LIG    1       31.492 -20.264   7.397  0.00  0.00    -0.480 OA
ATOM      5  H   LIG    1       31.124 -19.622   6.743  0.00  0.00    +0.295 HD
ENDBRANCH   3   4
ENDBRANCH   1   3
BRANCH   1   6
ATOM      6  C   LIG    1       28.159 -19.932   8.086  0.00  0.00    +0.110 C 
BRANCH   6   7
ATOM      7  C   LIG    1       28.114 -19.931   6.560  0.00  0.00    +0.216 C 
ATOM      8  N   LIG    1       26.884 -20.162   5.970  0.00  0.00    -0.301 N 
ATOM      9  C   LIG    1       25.634 -20.535   6.633  0.00  0.00    +0.111 C 
ATOM     10  C   LIG    1       24.772 -21.123   5.506  0.00  0.00    +0.011 C 
ATOM     11  C   LIG    1       25.224 -20.328   4.272  0.00  0.00    +0.011 C 
ATOM     12  C   LIG    1       24.520 -18.973   4.122  0.00  0.00    +0.005 C 
ATOM     13  C   LIG    1       23.006 -19.109   4.206  0.00  0.00    +0.000 C 
ATOM     14  C   LIG    1       22.596 -19.757   5.523  0.00  0.00    +0.000 C 
ATOM     15  C   LIG    1       23.257 -21.121   5.711  0.00  0.00    +0.005 C 
ATOM     16  C   LIG    1       26.725 -20.148   4.517  0.00  0.00    +0.111 C 
ATOM     17  O   LIG    1       29.139 -19.749   5.900  0.00  0.00    -0.276 OA
ENDBRANCH   6   7
ENDBRANCH   1   6
BRANCH   1  18
ATOM     18  C   LIG    1       30.025 -18.233   8.268  0.00  0.00    +0.050 C 
BRANCH  18  19
ATOM     19  C   LIG    1       30.833 -17.462   9.292  0.00  0.00    -0.047 A 
ATOM     20  C   LIG    1       32.090 -16.940   8.946  0.00  0.00    +0.003 A 
ATOM     21  C   LIG    1       32.869 -16.254   9.878  0.00  0.00    +0.000 A 
ATOM     22  C   LIG    1       32.390 -16.057  11.168  0.00  0.00    +0.000 A 
ATOM     23  C   LIG    1       31.132 -16.545  11.521  0.00  0.00    +0.000 A 
ATOM     24  C   LIG    1       30.357 -17.248  10.591  0.00  0.00    +0.003 A 
ENDBRANCH  18  19
ENDBRANCH   1  18
TORSDOF 6
ENDMDL
MODEL 7
REMARK VINA RESULT:      -8.5      1.024      1.612
REMARK  Name = *****
REMARK                            x       y       z     vdW  Elec       q    Type
REMARK                         _______ _______ _______ _____ _____    ______ ____
ROOT
ATOM      1  C   LIG    1       29.906 -19.360   7.760  0.00  0.00    +0.111 C 
ENDROOT
BRANCH   1   3
ATOM      2  O   LIG    1       32.131 -19.500   6.774  0.00  0.00    -0.251 OA
ATOM      3  C   LIG    1       30.962 -19.125   6.690  0.00  0.00    +0.309 C 
BRANCH   3   4
ATOM      4  O   LIG    1       30.528 -18.438   5.616  0.00  0.00    -0.480 OA
ATOM      5  H   LIG    1       29.678 -18.792   5.259  0.00  0.00    +0.295 HD
ENDBRANCH   3   4
ENDBRANCH   1   3
BRANCH   1   6
ATOM      6  C   LIG    1       28.609 -19.936   7.145  0.00  0.00    +0.110 C 
BRANCH   6   7
ATOM      7  C   LIG    1       27.952 -21.051   7.956  0.00  0.00    +0.216 C 
ATOM      8  N   LIG    1       26.590 -21.228   7.790  0.00  0.00    -0.301 N 
ATOM      9  C   LIG    1       25.670 -20.389   7.020  0.00  0.00    +0.111 C 
ATOM     10  C   LIG    1       24.283 -20.748   7.573  0.00  0.00    +0.011 C 
ATOM     11  C   LIG    1       24.436 -22.225   7.962  0.00  0.00    +0.011 C 
ATOM     12  C   LIG    1       24.233 -23.194   6.790  0.00  0.00    +0.005 C 
ATOM     13  C   LIG    1       22.936 -22.918   6.045  0.00  0.00    +0.000 C 
ATOM     14  C   LIG    1       22.902 -21.482   5.535  0.00  0.00    +0.000 C 
ATOM     15  C   LIG    1       23.079 -20.476   6.670  0.00  0.00    +0.005 C 
ATOM     16  C   LIG    1       25.871 -22.288   8.493  0.00  0.00    +0.111 C 
ATOM     17  O   LIG    1       28.617 -21.740   8.732  0.00  0.00    -0.276 OA
ENDBRANCH   6   7
ENDBRANCH   1   6
BRANCH   1  18
ATOM     18  C   LIG    1       29.578 -18.034   8.502  0.00  0.00    +0.050 C 
BRANCH  18  19
ATOM     19  C   LIG    1       30.616 -17.553   9.497  0.00  0.00    -0.047 A 
ATOM     20  C   LIG    1       30.377 -17.672  10.875  0.00  0.00    +0.003 A 
ATOM     21  C   LIG    1       31.301 -17.210  11.812  0.00  0.00    +0.000 A 
ATOM     22  C   LIG    1       32.495 -16.642  11.383  0.00  0.00    +0.000 A 
ATOM     23  C   LIG    1       32.762 -16.540  10.018  0.00  0.00    +0.000 A 
ATOM     24  C   LIG    1       31.827 -16.989   9.077  0.00  0.00    +0.003 A 
ENDBRANCH  18  19
ENDBRANCH   1  18
TORSDOF 6
ENDMDL
MODEL 8
REMARK VINA RESULT:      -8.4      7.172     10.400
REMARK  Name = *****
REMARK                            x       y       z     vdW  Elec       q    Type
REMARK                         _______ _______ _______ _____ _____    ______ ____
ROOT
ATOM      1  C   LIG    1       25.179 -26.789   6.363  0.00  0.00    +0.111 C 
ENDROOT
BRANCH   1   3
ATOM      2  O   LIG    1       26.037 -26.738   4.081  0.00  0.00    -0.251 OA
ATOM      3  C   LIG    1       26.259 -26.796   5.291  0.00  0.00    +0.309 C 
BRANCH   3   4
ATOM      4  O   LIG    1       27.516 -26.893   5.763  0.00  0.00    -0.480 OA
ATOM      5  H   LIG    1       27.989 -27.688   5.419  0.00  0.00    +0.295 HD
ENDBRANCH   3   4
ENDBRANCH   1   3
BRANCH   1   6
ATOM      6  C   LIG    1       24.511 -28.178   6.489  0.00  0.00    +0.110 C 
BRANCH   6   7
ATOM      7  C   LIG    1       25.198 -29.137   7.460  0.00  0.00    +0.216 C 
ATOM      8  N   LIG    1       25.395 -30.435   7.025  0.00  0.00    -0.301 N 
ATOM      9  C   LIG    1       24.908 -31.042   5.785  0.00  0.00    +0.111 C 
ATOM     10  C   LIG    1       24.986 -32.552   6.051  0.00  0.00    +0.011 C 
ATOM     11  C   LIG    1       26.190 -32.678   6.994  0.00  0.00    +0.011 C 
ATOM     12  C   LIG    1       27.540 -32.724   6.265  0.00  0.00    +0.005 C 
ATOM     13  C   LIG    1       27.552 -33.771   5.162  0.00  0.00    +0.000 C 
ATOM     14  C   LIG    1       26.436 -33.508   4.157  0.00  0.00    +0.000 C 
ATOM     15  C   LIG    1       25.067 -33.473   4.832  0.00  0.00    +0.005 C 
ATOM     16  C   LIG    1       26.072 -31.422   7.863  0.00  0.00    +0.111 C 
ATOM     17  O   LIG    1       25.538 -28.759   8.583  0.00  0.00    -0.276 OA
ENDBRANCH   6   7
ENDBRANCH   1   6
BRANCH   1  18
ATOM     18  C   LIG    1       24.094 -25.725   6.035  0.00  0.00    +0.050 C 
BRANCH  18  19
ATOM     19  C   LIG    1       24.306 -24.351   6.638  0.00  0.00    -0.047 A 
ATOM     20  C   LIG    1       23.225 -23.463   6.762  0.00  0.00    +0.003 A 
ATOM     21  C   LIG    1       23.398 -22.181   7.283  0.00  0.00    +0.000 A 
ATOM     22  C   LIG    1       24.655 -21.774   7.714  0.00  0.00    +0.000 A 
ATOM     23  C   LIG    1       25.735 -22.652   7.624  0.00  0.00    +0.000 A 
ATOM     24  C   LIG    1       25.565 -23.933   7.085  0.00  0.00    +0.003 A 
ENDBRANCH  18  19
ENDBRANCH   1  18
TORSDOF 6
ENDMDL
MODEL 9
REMARK VINA RESULT:      -8.3      3.204      7.796
REMARK  Name = *****
REMARK                            x       y       z     vdW  Elec       q    Type
REMARK                         _______ _______ _______ _____ _____    ______ ____
ROOT
ATOM      1  C   LIG    1       24.154 -22.244   6.408  0.00  0.00    +0.111 C 
ENDROOT
BRANCH   1   3
ATOM      2  O   LIG    1       22.705 -24.151   6.861  0.00  0.00    -0.251 OA
ATOM      3  C   LIG    1       23.842 -23.695   6.746  0.00  0.00    +0.309 C 
BRANCH   3   4
ATOM      4  O   LIG    1       24.926 -24.470   6.939  0.00  0.00    -0.480 OA
ATOM      5  H   LIG    1       25.771 -23.970   6.842  0.00  0.00    +0.295 HD
ENDBRANCH   3   4
ENDBRANCH   1   3
BRANCH   1   6
ATOM      6  C   LIG    1       24.531 -21.445   7.677  0.00  0.00    +0.110 C 
BRANCH   6   7
ATOM      7  C   LIG    1       25.857 -21.845   8.320  0.00  0.00    +0.216 C 
ATOM      8  N   LIG    1       27.005 -21.285   7.788  0.00  0.00    -0.301 N 
ATOM      9  C   LIG    1       27.116 -20.447   6.594  0.00  0.00    +0.111 C 
ATOM     10  C   LIG    1       28.601 -20.531   6.213  0.00  0.00    +0.011 C 
ATOM     11  C   LIG    1       29.299 -20.692   7.571  0.00  0.00    +0.011 C 
ATOM     12  C   LIG    1       29.547 -19.363   8.296  0.00  0.00    +0.005 C 
ATOM     13  C   LIG    1       30.243 -18.349   7.400  0.00  0.00    +0.000 C 
ATOM     14  C   LIG    1       29.428 -18.099   6.136  0.00  0.00    +0.000 C 
ATOM     15  C   LIG    1       29.171 -19.393   5.365  0.00  0.00    +0.005 C 
ATOM     16  C   LIG    1       28.322 -21.576   8.351  0.00  0.00    +0.111 C 
ATOM     17  O   LIG    1       25.887 -22.645   9.257  0.00  0.00    -0.276 OA
ENDBRANCH   6   7
ENDBRANCH   1   6
BRANCH   1  18
ATOM     18  C   LIG    1       22.934 -21.571   5.720  0.00  0.00    +0.050 C 
BRANCH  18  19
ATOM     19  C   LIG    1       23.210 -20.265   5.003  0.00  0.00    -0.047 A 
ATOM     20  C   LIG    1       22.274 -19.219   5.060  0.00  0.00    +0.003 A 
ATOM     21  C   LIG    1       22.488 -18.019   4.384  0.00  0.00    +0.000 A 
ATOM     22  C   LIG    1       23.659 -17.834   3.657  0.00  0.00    +0.000 A 
ATOM     23  C   LIG    1       24.612 -18.851   3.611  0.00  0.00    +0.000 A 
ATOM     24  C   LIG    1       24.389 -20.063   4.276  0.00  0.00    +0.003 A 
ENDBRANCH  18  19
ENDBRANCH   1  18
TORSDOF 6
ENDMDL
