MODEL 1
REMARK VINA RESULT:      -7.6      0.000      0.000
REMARK  Name = *****
REMARK                            x       y       z     vdW  Elec       q    Type
REMARK                         _______ _______ _______ _____ _____    ______ ____
ROOT
ATOM      1  C   LIG    1       26.809 -22.023   7.999  0.00  0.00    +0.265 C 
ATOM      2  N   LIG    1       26.386 -22.516   6.782  0.00  0.00    -0.307 N 
ATOM      3  H   LIG    1       27.027 -22.333   6.013  0.00  0.00    +0.149 HD
ATOM      4  O   LIG    1       26.123 -22.044   9.012  0.00  0.00    -0.268 OA
ENDROOT
BRANCH   1  12
ATOM      5  C   LIG    1       31.494 -21.469   9.058  0.00  0.00    +0.173 C 
ATOM      6  N   LIG    1       30.229 -21.178   8.425  0.00  0.00    -0.266 N 
ATOM      7  C   LIG    1       29.996 -20.257   7.438  0.00  0.00    +0.069 A 
ATOM      8  C   LIG    1       28.661 -20.436   7.083  0.00  0.00    +0.032 A 
ATOM      9  C   LIG    1       28.120 -19.643   6.051  0.00  0.00    +0.012 A 
ATOM     10  C   LIG    1       28.929 -18.690   5.422  0.00  0.00    +0.001 A 
ATOM     11  C   LIG    1       30.257 -18.521   5.804  0.00  0.00    +0.002 A 
ATOM     12  C   LIG    1       28.175 -21.460   7.950  0.00  0.00    +0.155 A 
ATOM     13  C   LIG    1       30.820 -19.303   6.818  0.00  0.00    +0.028 A 
ATOM     14  N   LIG    1       29.143 -21.890   8.790  0.00  0.00    -0.166 NA
ENDBRANCH   1  12
BRANCH   2  15
ATOM     15  C   LIG    1       25.091 -23.142   6.552  0.00  0.00    +0.076 C 
ATOM     16  C   LIG    1       24.734 -23.300   5.064  0.00  0.00    +0.041 C 
ATOM     17  C   LIG    1       23.831 -22.207   4.461  0.00  0.00    +0.058 C 
ATOM     18  N   LIG    1       22.678 -22.023   5.353  0.00  0.00    -0.299 NA
ATOM     19  C   LIG    1       23.123 -21.425   6.617  0.00  0.00    +0.058 C 
ATOM     20  C   LIG    1       23.811 -20.061   6.427  0.00  0.00    +0.019 C 
ATOM     21  C   LIG    1       24.892 -20.030   5.350  0.00  0.00    +0.003 C 
ATOM     22  C   LIG    1       21.573 -21.301   4.728  0.00  0.00    +0.105 C 
ATOM     23  C   LIG    1       24.562 -20.894   4.139  0.00  0.00    +0.019 C 
ATOM     24  C   LIG    1       23.978 -22.465   7.368  0.00  0.00    +0.041 C 
ENDBRANCH   2  15
TORSDOF 2
ENDMDL
MODEL 2
REMARK VINA RESULT:      -6.8      2.535      3.842
REMARK  Name = *****
REMARK                            x       y       z     vdW  Elec       q    Type
REMARK                         _______ _______ _______ _____ _____    ______ ____
ROOT
ATOM      1  C   LIG    1       25.774 -22.136   6.616  0.00  0.00    +0.265 C 
ATOM      2  N   LIG    1       25.830 -23.364   5.990  0.00  0.00    -0.307 N 
ATOM      3  H   LIG    1       26.772 -23.675   5.767  0.00  0.00    +0.149 HD
ATOM      4  O   LIG    1       24.729 -21.547   6.858  0.00  0.00    -0.268 OA
ENDROOT
BRANCH   1  12
ATOM      5  C   LIG    1       30.080 -21.824   8.795  0.00  0.00    +0.173 C 
ATOM      6  N   LIG    1       28.994 -21.428   7.929  0.00  0.00    -0.266 N 
ATOM      7  C   LIG    1       28.990 -20.384   7.041  0.00  0.00    +0.069 A 
ATOM      8  C   LIG    1       27.776 -20.487   6.366  0.00  0.00    +0.032 A 
ATOM      9  C   LIG    1       27.484 -19.559   5.347  0.00  0.00    +0.012 A 
ATOM     10  C   LIG    1       28.409 -18.551   5.051  0.00  0.00    +0.001 A 
ATOM     11  C   LIG    1       29.610 -18.461   5.748  0.00  0.00    +0.002 A 
ATOM     12  C   LIG    1       27.109 -21.602   6.958  0.00  0.00    +0.155 A 
ATOM     13  C   LIG    1       29.928 -19.378   6.756  0.00  0.00    +0.028 A 
ATOM     14  N   LIG    1       27.859 -22.156   7.937  0.00  0.00    -0.166 NA
ENDBRANCH   1  12
BRANCH   2  15
ATOM     15  C   LIG    1       24.662 -24.124   5.563  0.00  0.00    +0.076 C 
ATOM     16  C   LIG    1       24.030 -24.971   6.681  0.00  0.00    +0.041 C 
ATOM     17  C   LIG    1       24.445 -26.454   6.727  0.00  0.00    +0.058 C 
ATOM     18  N   LIG    1       24.298 -27.012   5.375  0.00  0.00    -0.299 NA
ATOM     19  C   LIG    1       25.299 -26.416   4.484  0.00  0.00    +0.058 C 
ATOM     20  C   LIG    1       26.744 -26.661   4.955  0.00  0.00    +0.019 C 
ATOM     21  C   LIG    1       27.004 -26.346   6.424  0.00  0.00    +0.003 C 
ATOM     22  C   LIG    1       24.296 -28.473   5.349  0.00  0.00    +0.105 C 
ATOM     23  C   LIG    1       25.835 -26.701   7.335  0.00  0.00    +0.019 C 
ATOM     24  C   LIG    1       24.943 -24.930   4.285  0.00  0.00    +0.041 C 
ENDBRANCH   2  15
TORSDOF 2
ENDMDL
MODEL 3
REMARK VINA RESULT:      -6.5      7.810     10.166
REMARK  Name = *****
REMARK                            x       y       z     vdW  Elec       q    Type
REMARK                         _______ _______ _______ _____ _____    ______ ____
ROOT
ATOM      1  C   LIG    1       26.216 -29.208   9.812  0.00  0.00    +0.265 C 
ATOM      2  N   LIG    1       25.263 -29.293  10.805  0.00  0.00    -0.307 N 
ATOM      3  H   LIG    1       24.308 -29.351  10.461  0.00  0.00    +0.149 HD
ATOM      4  O   LIG    1       27.405 -29.016  10.030  0.00  0.00    -0.268 OA
ENDROOT
BRANCH   1  12
ATOM      5  C   LIG    1       23.970 -31.315   6.084  0.00  0.00    +0.173 C 
ATOM      6  N   LIG    1       24.696 -30.287   6.792  0.00  0.00    -0.266 N 
ATOM      7  C   LIG    1       24.983 -29.024   6.342  0.00  0.00    +0.069 A 
ATOM      8  C   LIG    1       25.586 -28.384   7.422  0.00  0.00    +0.032 A 
ATOM      9  C   LIG    1       25.974 -27.036   7.282  0.00  0.00    +0.012 A 
ATOM     10  C   LIG    1       25.759 -26.383   6.063  0.00  0.00    +0.001 A 
ATOM     11  C   LIG    1       25.166 -27.049   4.994  0.00  0.00    +0.002 A 
ATOM     12  C   LIG    1       25.652 -29.367   8.455  0.00  0.00    +0.155 A 
ATOM     13  C   LIG    1       24.762 -28.384   5.112  0.00  0.00    +0.028 A 
ATOM     14  N   LIG    1       25.125 -30.542   8.046  0.00  0.00    -0.166 NA
ENDBRANCH   1  12
BRANCH   2  15
ATOM     15  C   LIG    1       25.548 -29.191  12.230  0.00  0.00    +0.076 C 
ATOM     16  C   LIG    1       25.233 -30.474  13.019  0.00  0.00    +0.041 C 
ATOM     17  C   LIG    1       23.868 -30.518  13.731  0.00  0.00    +0.058 C 
ATOM     18  N   LIG    1       23.712 -29.272  14.496  0.00  0.00    -0.299 NA
ATOM     19  C   LIG    1       23.568 -28.141  13.573  0.00  0.00    +0.058 C 
ATOM     20  C   LIG    1       22.360 -28.285  12.631  0.00  0.00    +0.019 C 
ATOM     21  C   LIG    1       22.249 -29.634  11.927  0.00  0.00    +0.003 C 
ATOM     22  C   LIG    1       22.653 -29.339  15.500  0.00  0.00    +0.105 C 
ATOM     23  C   LIG    1       22.680 -30.807  12.799  0.00  0.00    +0.019 C 
ATOM     24  C   LIG    1       24.913 -27.935  12.849  0.00  0.00    +0.041 C 
ENDBRANCH   2  15
TORSDOF 2
ENDMDL
MODEL 4
REMARK VINA RESULT:      -6.5      1.948      3.086
REMARK  Name = *****
REMARK                            x       y       z     vdW  Elec       q    Type
REMARK                         _______ _______ _______ _____ _____    ______ ____
ROOT
ATOM      1  C   LIG    1       28.097 -19.856   6.427  0.00  0.00    +0.265 C 
ATOM      2  N   LIG    1       26.926 -20.428   6.879  0.00  0.00    -0.307 N 
ATOM      3  H   LIG    1       27.031 -20.971   7.733  0.00  0.00    +0.149 HD
ATOM      4  O   LIG    1       28.192 -19.265   5.359  0.00  0.00    -0.268 OA
ENDROOT
BRANCH   1  12
ATOM      5  C   LIG    1       31.541 -22.124   8.951  0.00  0.00    +0.173 C 
ATOM      6  N   LIG    1       30.726 -21.017   8.507  0.00  0.00    -0.266 N 
ATOM      7  C   LIG    1       30.896 -19.694   8.820  0.00  0.00    +0.069 A 
ATOM      8  C   LIG    1       29.943 -19.017   8.062  0.00  0.00    +0.032 A 
ATOM      9  C   LIG    1       29.886 -17.611   8.140  0.00  0.00    +0.012 A 
ATOM     10  C   LIG    1       30.772 -16.934   8.985  0.00  0.00    +0.001 A 
ATOM     11  C   LIG    1       31.708 -17.634   9.743  0.00  0.00    +0.002 A 
ATOM     12  C   LIG    1       29.226 -20.035   7.363  0.00  0.00    +0.155 A 
ATOM     13  C   LIG    1       31.791 -19.029   9.674  0.00  0.00    +0.028 A 
ATOM     14  N   LIG    1       29.701 -21.263   7.666  0.00  0.00    -0.166 NA
ENDBRANCH   1  12
BRANCH   2  15
ATOM     15  C   LIG    1       25.658 -20.384   6.163  0.00  0.00    +0.076 C 
ATOM     16  C   LIG    1       24.427 -20.320   7.085  0.00  0.00    +0.041 C 
ATOM     17  C   LIG    1       23.725 -21.661   7.376  0.00  0.00    +0.058 C 
ATOM     18  N   LIG    1       23.499 -22.345   6.095  0.00  0.00    -0.299 NA
ATOM     19  C   LIG    1       24.785 -22.761   5.525  0.00  0.00    +0.058 C 
ATOM     20  C   LIG    1       25.573 -23.709   6.447  0.00  0.00    +0.019 C 
ATOM     21  C   LIG    1       25.697 -23.242   7.894  0.00  0.00    +0.003 C 
ATOM     22  C   LIG    1       22.526 -23.431   6.184  0.00  0.00    +0.105 C 
ATOM     23  C   LIG    1       24.448 -22.539   8.411  0.00  0.00    +0.019 C 
ATOM     24  C   LIG    1       25.560 -21.496   5.107  0.00  0.00    +0.041 C 
ENDBRANCH   2  15
TORSDOF 2
ENDMDL
MODEL 5
REMARK VINA RESULT:      -6.4      1.542      2.479
REMARK  Name = *****
REMARK                            x       y       z     vdW  Elec       q    Type
REMARK                         _______ _______ _______ _____ _____    ______ ____
ROOT
ATOM      1  C   LIG    1       26.830 -21.507   6.981  0.00  0.00    +0.265 C 
ATOM      2  N   LIG    1       25.652 -20.808   6.822  0.00  0.00    -0.307 N 
ATOM      3  H   LIG    1       25.777 -19.806   6.695  0.00  0.00    +0.149 HD
ATOM      4  O   LIG    1       26.877 -22.698   7.260  0.00  0.00    -0.268 OA
ENDROOT
BRANCH   1  12
ATOM      5  C   LIG    1       29.642 -18.016   5.168  0.00  0.00    +0.173 C 
ATOM      6  N   LIG    1       29.295 -19.160   5.979  0.00  0.00    -0.266 N 
ATOM      7  C   LIG    1       30.068 -19.745   6.948  0.00  0.00    +0.069 A 
ATOM      8  C   LIG    1       29.256 -20.722   7.518  0.00  0.00    +0.032 A 
ATOM      9  C   LIG    1       29.763 -21.490   8.585  0.00  0.00    +0.012 A 
ATOM     10  C   LIG    1       31.069 -21.263   9.034  0.00  0.00    +0.001 A 
ATOM     11  C   LIG    1       31.866 -20.289   8.439  0.00  0.00    +0.002 A 
ATOM     12  C   LIG    1       28.031 -20.668   6.786  0.00  0.00    +0.155 A 
ATOM     13  C   LIG    1       31.382 -19.507   7.385  0.00  0.00    +0.028 A 
ATOM     14  N   LIG    1       28.078 -19.720   5.825  0.00  0.00    -0.166 NA
ENDBRANCH   1  12
BRANCH   2  15
ATOM     15  C   LIG    1       24.324 -21.394   6.940  0.00  0.00    +0.076 C 
ATOM     16  C   LIG    1       24.010 -22.441   5.856  0.00  0.00    +0.041 C 
ATOM     17  C   LIG    1       23.212 -21.940   4.637  0.00  0.00    +0.058 C 
ATOM     18  N   LIG    1       22.044 -21.196   5.131  0.00  0.00    -0.299 NA
ATOM     19  C   LIG    1       22.486 -19.953   5.772  0.00  0.00    +0.058 C 
ATOM     20  C   LIG    1       23.278 -19.036   4.822  0.00  0.00    +0.019 C 
ATOM     21  C   LIG    1       24.396 -19.725   4.046  0.00  0.00    +0.003 C 
ATOM     22  C   LIG    1       21.017 -20.990   4.112  0.00  0.00    +0.105 C 
ATOM     23  C   LIG    1       24.048 -21.146   3.620  0.00  0.00    +0.019 C 
ATOM     24  C   LIG    1       23.234 -20.318   7.068  0.00  0.00    +0.041 C 
ENDBRANCH   2  15
TORSDOF 2
ENDMDL
MODEL 6
REMARK VINA RESULT:      -6.4      8.082     10.784
REMARK  Name = *****
REMARK                            x       y       z     vdW  Elec       q    Type
REMARK                         _______ _______ _______ _____ _____    ______ ____
ROOT
ATOM      1  C   LIG    1       23.501 -30.394   9.969  0.00  0.00    +0.265 C 
ATOM      2  N   LIG    1       24.647 -30.271  10.725  0.00  0.00    -0.307 N 
ATOM      3  H   LIG    1       25.507 -30.437  10.208  0.00  0.00    +0.149 HD
ATOM      4  O   LIG    1       22.372 -30.345  10.440  0.00  0.00    -0.268 OA
ENDROOT
BRANCH   1  12
ATOM      5  C   LIG    1       23.538 -32.573   5.653  0.00  0.00    +0.173 C 
ATOM      6  N   LIG    1       23.833 -31.553   6.632  0.00  0.00    -0.266 N 
ATOM      7  C   LIG    1       24.428 -30.341   6.402  0.00  0.00    +0.069 A 
ATOM      8  C   LIG    1       24.382 -29.676   7.625  0.00  0.00    +0.032 A 
ATOM      9  C   LIG    1       24.896 -28.367   7.707  0.00  0.00    +0.012 A 
ATOM     10  C   LIG    1       25.453 -27.776   6.568  0.00  0.00    +0.001 A 
ATOM     11  C   LIG    1       25.500 -28.466   5.359  0.00  0.00    +0.002 A 
ATOM     12  C   LIG    1       23.776 -30.598   8.532  0.00  0.00    +0.155 A 
ATOM     13  C   LIG    1       24.986 -29.762   5.250  0.00  0.00    +0.028 A 
ATOM     14  N   LIG    1       23.467 -31.759   7.914  0.00  0.00    -0.166 NA
ENDBRANCH   1  12
BRANCH   2  15
ATOM     15  C   LIG    1       24.664 -30.044  12.165  0.00  0.00    +0.076 C 
ATOM     16  C   LIG    1       24.517 -28.565  12.561  0.00  0.00    +0.041 C 
ATOM     17  C   LIG    1       25.824 -27.806  12.859  0.00  0.00    +0.058 C 
ATOM     18  N   LIG    1       26.620 -28.617  13.792  0.00  0.00    -0.299 NA
ATOM     19  C   LIG    1       27.087 -29.831  13.116  0.00  0.00    +0.058 C 
ATOM     20  C   LIG    1       27.951 -29.534  11.877  0.00  0.00    +0.019 C 
ATOM     21  C   LIG    1       27.357 -28.515  10.908  0.00  0.00    +0.003 C 
ATOM     22  C   LIG    1       27.691 -27.865  14.441  0.00  0.00    +0.105 C 
ATOM     23  C   LIG    1       26.608 -27.386  11.605  0.00  0.00    +0.019 C 
ATOM     24  C   LIG    1       25.866 -30.728  12.835  0.00  0.00    +0.041 C 
ENDBRANCH   2  15
TORSDOF 2
ENDMDL
MODEL 7
REMARK VINA RESULT:      -6.3      8.905     10.518
REMARK  Name = *****
REMARK                            x       y       z     vdW  Elec       q    Type
REMARK                         _______ _______ _______ _____ _____    ______ ____
ROOT
ATOM      1  C   LIG    1       26.369 -29.976  12.299  0.00  0.00    +0.265 C 
ATOM      2  N   LIG    1       26.013 -30.221  10.990  0.00  0.00    -0.307 N 
ATOM      3  H   LIG    1       25.444 -29.490  10.569  0.00  0.00    +0.149 HD
ATOM      4  O   LIG    1       26.953 -30.788  13.005  0.00  0.00    -0.268 OA
ENDROOT
BRANCH   1  12
ATOM      5  C   LIG    1       26.828 -25.403  13.805  0.00  0.00    +0.173 C 
ATOM      6  N   LIG    1       26.147 -26.630  13.460  0.00  0.00    -0.266 N 
ATOM      7  C   LIG    1       24.793 -26.824  13.384  0.00  0.00    +0.069 A 
ATOM      8  C   LIG    1       24.640 -28.123  12.903  0.00  0.00    +0.032 A 
ATOM      9  C   LIG    1       23.339 -28.616  12.681  0.00  0.00    +0.012 A 
ATOM     10  C   LIG    1       22.238 -27.800  12.964  0.00  0.00    +0.001 A 
ATOM     11  C   LIG    1       22.416 -26.510  13.457  0.00  0.00    +0.002 A 
ATOM     12  C   LIG    1       25.966 -28.632  12.765  0.00  0.00    +0.155 A 
ATOM     13  C   LIG    1       23.698 -25.994  13.675  0.00  0.00    +0.028 A 
ATOM     14  N   LIG    1       26.884 -27.712  13.136  0.00  0.00    -0.166 NA
ENDBRANCH   1  12
BRANCH   2  15
ATOM     15  C   LIG    1       26.304 -31.457  10.275  0.00  0.00    +0.076 C 
ATOM     16  C   LIG    1       26.643 -31.248   8.788  0.00  0.00    +0.041 C 
ATOM     17  C   LIG    1       25.485 -31.448   7.792  0.00  0.00    +0.058 C 
ATOM     18  N   LIG    1       24.834 -32.730   8.101  0.00  0.00    -0.299 NA
ATOM     19  C   LIG    1       24.147 -32.635   9.393  0.00  0.00    +0.058 C 
ATOM     20  C   LIG    1       23.077 -31.529   9.425  0.00  0.00    +0.019 C 
ATOM     21  C   LIG    1       23.540 -30.171   8.906  0.00  0.00    +0.003 C 
ATOM     22  C   LIG    1       23.977 -33.217   7.022  0.00  0.00    +0.105 C 
ATOM     23  C   LIG    1       24.500 -30.270   7.726  0.00  0.00    +0.019 C 
ATOM     24  C   LIG    1       25.213 -32.515  10.499  0.00  0.00    +0.041 C 
ENDBRANCH   2  15
TORSDOF 2
ENDMDL
MODEL 8
REMARK VINA RESULT:      -6.2      8.369     11.109
REMARK  Name = *****
REMARK                            x       y       z     vdW  Elec       q    Type
REMARK                         _______ _______ _______ _____ _____    ______ ____
ROOT
ATOM      1  C   LIG    1       23.759 -30.305   9.399  0.00  0.00    +0.265 C 
ATOM      2  N   LIG    1       24.749 -30.117  10.340  0.00  0.00    -0.307 N 
ATOM      3  H   LIG    1       25.687 -30.059   9.952  0.00  0.00    +0.149 HD
ATOM      4  O   LIG    1       22.587 -30.513   9.683  0.00  0.00    -0.268 OA
ENDROOT
BRANCH   1  12
ATOM      5  C   LIG    1       24.655 -28.467   5.018  0.00  0.00    +0.173 C 
ATOM      6  N   LIG    1       24.638 -29.459   6.067  0.00  0.00    -0.266 N 
ATOM      7  C   LIG    1       25.244 -30.688   6.047  0.00  0.00    +0.069 A 
ATOM      8  C   LIG    1       25.040 -31.214   7.320  0.00  0.00    +0.032 A 
ATOM      9  C   LIG    1       25.583 -32.477   7.629  0.00  0.00    +0.012 A 
ATOM     10  C   LIG    1       26.296 -33.175   6.649  0.00  0.00    +0.001 A 
ATOM     11  C   LIG    1       26.476 -32.634   5.378  0.00  0.00    +0.002 A 
ATOM     12  C   LIG    1       24.261 -30.236   8.011  0.00  0.00    +0.155 A 
ATOM     13  C   LIG    1       25.956 -31.377   5.051  0.00  0.00    +0.028 A 
ATOM     14  N   LIG    1       23.998 -29.173   7.220  0.00  0.00    -0.166 NA
ENDBRANCH   1  12
BRANCH   2  15
ATOM     15  C   LIG    1       24.527 -30.116  11.781  0.00  0.00    +0.076 C 
ATOM     16  C   LIG    1       24.269 -28.717  12.368  0.00  0.00    +0.041 C 
ATOM     17  C   LIG    1       25.485 -28.004  12.987  0.00  0.00    +0.058 C 
ATOM     18  N   LIG    1       26.147 -28.943  13.904  0.00  0.00    -0.299 NA
ATOM     19  C   LIG    1       26.757 -30.034  13.137  0.00  0.00    +0.058 C 
ATOM     20  C   LIG    1       27.798 -29.541  12.116  0.00  0.00    +0.019 C 
ATOM     21  C   LIG    1       27.334 -28.389  11.230  0.00  0.00    +0.003 C 
ATOM     22  C   LIG    1       27.075 -28.293  14.827  0.00  0.00    +0.105 C 
ATOM     23  C   LIG    1       26.446 -27.387  11.957  0.00  0.00    +0.019 C 
ATOM     24  C   LIG    1       25.628 -30.886  12.527  0.00  0.00    +0.041 C 
ENDBRANCH   2  15
TORSDOF 2
ENDMDL
MODEL 9
REMARK VINA RESULT:      -6.2      9.656     11.096
REMARK  Name = *****
REMARK                            x       y       z     vdW  Elec       q    Type
REMARK                         _______ _______ _______ _____ _____    ______ ____
ROOT
ATOM      1  C   LIG    1       22.612 -30.654  11.889  0.00  0.00    +0.265 C 
ATOM      2  N   LIG    1       23.418 -30.681  10.770  0.00  0.00    -0.307 N 
ATOM      3  H   LIG    1       23.641 -29.762  10.396  0.00  0.00    +0.149 HD
ATOM      4  O   LIG    1       22.145 -31.658  12.410  0.00  0.00    -0.268 OA
ENDROOT
BRANCH   1  12
ATOM      5  C   LIG    1       20.131 -26.780  13.379  0.00  0.00    +0.173 C 
ATOM      6  N   LIG    1       21.292 -27.560  13.018  0.00  0.00    -0.266 N 
ATOM      7  C   LIG    1       22.605 -27.195  13.165  0.00  0.00    +0.069 A 
ATOM      8  C   LIG    1       23.337 -28.319  12.788  0.00  0.00    +0.032 A 
ATOM      9  C   LIG    1       24.743 -28.270  12.863  0.00  0.00    +0.012 A 
ATOM     10  C   LIG    1       25.367 -27.095  13.297  0.00  0.00    +0.001 A 
ATOM     11  C   LIG    1       24.613 -25.980  13.656  0.00  0.00    +0.002 A 
ATOM     12  C   LIG    1       22.365 -29.286  12.390  0.00  0.00    +0.155 A 
ATOM     13  C   LIG    1       23.216 -26.008  13.601  0.00  0.00    +0.028 A 
ATOM     14  N   LIG    1       21.111 -28.797  12.511  0.00  0.00    -0.166 NA
ENDBRANCH   1  12
BRANCH   2  15
ATOM     15  C   LIG    1       23.835 -31.897  10.084  0.00  0.00    +0.076 C 
ATOM     16  C   LIG    1       25.281 -32.321  10.398  0.00  0.00    +0.041 C 
ATOM     17  C   LIG    1       26.352 -31.891   9.378  0.00  0.00    +0.058 C 
ATOM     18  N   LIG    1       25.880 -32.260   8.037  0.00  0.00    -0.299 NA
ATOM     19  C   LIG    1       24.726 -31.431   7.674  0.00  0.00    +0.058 C 
ATOM     20  C   LIG    1       25.044 -29.925   7.677  0.00  0.00    +0.019 C 
ATOM     21  C   LIG    1       25.758 -29.421   8.927  0.00  0.00    +0.003 C 
ATOM     22  C   LIG    1       26.939 -32.253   7.029  0.00  0.00    +0.105 C 
ATOM     23  C   LIG    1       26.769 -30.415   9.487  0.00  0.00    +0.019 C 
ATOM     24  C   LIG    1       23.543 -31.830   8.577  0.00  0.00    +0.041 C 
ENDBRANCH   2  15
TORSDOF 2
ENDMDL
