MODEL 1
REMARK VINA RESULT:      -9.5      0.000      0.000
REMARK  Name = *****
REMARK                            x       y       z     vdW  Elec       q    Type
REMARK                         _______ _______ _______ _____ _____    ______ ____
ROOT
ATOM      1  C   LIG    1       23.174 -23.261   6.888  0.00  0.00    +0.019 C 
ATOM      2  C   LIG    1       24.230 -22.135   6.897  0.00  0.00    +0.029 C 
ATOM      3  C   LIG    1       23.474 -20.812   6.994  0.00  0.00    +0.140 C 
ATOM      4  O   LIG    1       23.094 -20.310   8.043  0.00  0.00    -0.297 OA
ATOM      5  C   LIG    1       23.218 -20.202   5.642  0.00  0.00    +0.075 C 
ATOM      6  C   LIG    1       23.849 -21.221   4.691  0.00  0.00    +0.012 C 
ATOM      7  C   LIG    1       24.924 -21.967   5.517  0.00  0.00    +0.006 C 
ATOM      8  C   LIG    1       26.352 -21.300   5.511  0.00  0.00    +0.001 C 
ATOM      9  C   LIG    1       27.194 -21.626   6.779  0.00  0.00    +0.023 C 
ATOM     10  C   LIG    1       28.468 -20.805   6.944  0.00  0.00    -0.041 A 
ATOM     11  C   LIG    1       28.720 -19.663   6.167  0.00  0.00    -0.041 A 
ATOM     12  C   LIG    1       27.830 -19.298   5.017  0.00  0.00    +0.036 C 
ATOM     13  C   LIG    1       29.844 -18.869   6.447  0.00  0.00    +0.049 A 
ATOM     14  C   LIG    1       30.687 -19.190   7.504  0.00  0.00    +0.117 A 
ATOM     15  C   LIG    1       30.465 -20.326   8.267  0.00  0.00    +0.045 A 
ATOM     16  C   LIG    1       29.371 -21.139   7.973  0.00  0.00    +0.008 A 
ATOM     17  C   LIG    1       26.363 -21.450   8.059  0.00  0.00    +0.009 C 
ATOM     18  C   LIG    1       26.394 -19.790   5.213  0.00  0.00    +0.009 C 
ATOM     19  C   LIG    1       25.168 -22.378   8.062  0.00  0.00    +0.015 C 
ENDROOT
BRANCH  14  20
ATOM     20  O   LIG    1       31.730 -18.351   7.768  0.00  0.00    -0.507 OA
ATOM     21  H   LIG    1       32.465 -18.584   7.178  0.00  0.00    +0.292 HD
ENDBRANCH  14  20
TORSDOF 1
ENDMDL
MODEL 2
REMARK VINA RESULT:      -8.8      1.497      2.866
REMARK  Name = *****
REMARK                            x       y       z     vdW  Elec       q    Type
REMARK                         _______ _______ _______ _____ _____    ______ ____
ROOT
ATOM      1  C   LIG    1       22.401 -21.065   4.837  0.00  0.00    +0.019 C 
ATOM      2  C   LIG    1       23.848 -21.311   5.313  0.00  0.00    +0.029 C 
ATOM      3  C   LIG    1       24.072 -22.821   5.307  0.00  0.00    +0.140 C 
ATOM      4  O   LIG    1       24.406 -23.465   4.322  0.00  0.00    -0.297 OA
ATOM      5  C   LIG    1       23.804 -23.442   6.652  0.00  0.00    +0.075 C 
ATOM      6  C   LIG    1       23.391 -22.237   7.499  0.00  0.00    +0.012 C 
ATOM      7  C   LIG    1       24.032 -21.001   6.825  0.00  0.00    +0.006 C 
ATOM      8  C   LIG    1       25.491 -20.656   7.311  0.00  0.00    +0.001 C 
ATOM      9  C   LIG    1       26.338 -19.900   6.246  0.00  0.00    +0.023 C 
ATOM     10  C   LIG    1       27.823 -19.773   6.565  0.00  0.00    -0.041 A 
ATOM     11  C   LIG    1       28.426 -20.512   7.595  0.00  0.00    -0.041 A 
ATOM     12  C   LIG    1       27.602 -21.330   8.545  0.00  0.00    +0.036 C 
ATOM     13  C   LIG    1       29.820 -20.458   7.763  0.00  0.00    +0.049 A 
ATOM     14  C   LIG    1       30.603 -19.703   6.900  0.00  0.00    +0.117 A 
ATOM     15  C   LIG    1       30.023 -18.950   5.891  0.00  0.00    +0.045 A 
ATOM     16  C   LIG    1       28.636 -18.971   5.740  0.00  0.00    +0.008 A 
ATOM     17  C   LIG    1       26.217 -20.565   4.867  0.00  0.00    +0.009 C 
ATOM     18  C   LIG    1       26.299 -21.821   7.912  0.00  0.00    +0.009 C 
ATOM     19  C   LIG    1       24.783 -20.561   4.385  0.00  0.00    +0.015 C 
ENDROOT
BRANCH  14  20
ATOM     20  O   LIG    1       31.956 -19.733   7.072  0.00  0.00    -0.507 OA
ATOM     21  H   LIG    1       32.304 -18.841   6.908  0.00  0.00    +0.292 HD
ENDBRANCH  14  20
TORSDOF 1
ENDMDL
MODEL 3
REMARK VINA RESULT:      -7.4      1.444      6.239
REMARK  Name = *****
REMARK                            x       y       z     vdW  Elec       q    Type
REMARK                         _______ _______ _______ _____ _____    ______ ____
ROOT
ATOM      1  C   LIG    1       31.816 -19.287   6.722  0.00  0.00    +0.019 C 
ATOM      2  C   LIG    1       30.284 -19.290   6.906  0.00  0.00    +0.029 C 
ATOM      3  C   LIG    1       29.985 -18.522   8.191  0.00  0.00    +0.140 C 
ATOM      4  O   LIG    1       29.877 -17.305   8.258  0.00  0.00    -0.297 OA
ATOM      5  C   LIG    1       29.865 -19.432   9.384  0.00  0.00    +0.075 C 
ATOM      6  C   LIG    1       30.115 -20.814   8.775  0.00  0.00    +0.012 C 
ATOM      7  C   LIG    1       29.737 -20.696   7.279  0.00  0.00    +0.006 C 
ATOM      8  C   LIG    1       28.225 -20.986   6.947  0.00  0.00    +0.001 C 
ATOM      9  C   LIG    1       27.722 -20.264   5.662  0.00  0.00    +0.023 C 
ATOM     10  C   LIG    1       26.214 -20.302   5.442  0.00  0.00    -0.041 A 
ATOM     11  C   LIG    1       25.327 -20.713   6.449  0.00  0.00    -0.041 A 
ATOM     12  C   LIG    1       25.834 -21.302   7.732  0.00  0.00    +0.036 C 
ATOM     13  C   LIG    1       23.942 -20.605   6.240  0.00  0.00    +0.049 A 
ATOM     14  C   LIG    1       23.449 -20.068   5.058  0.00  0.00    +0.117 A 
ATOM     15  C   LIG    1       24.310 -19.677   4.044  0.00  0.00    +0.045 A 
ATOM     16  C   LIG    1       25.686 -19.814   4.230  0.00  0.00    +0.008 A 
ATOM     17  C   LIG    1       28.153 -18.790   5.649  0.00  0.00    +0.009 C 
ATOM     18  C   LIG    1       27.225 -20.786   8.101  0.00  0.00    +0.009 C 
ATOM     19  C   LIG    1       29.661 -18.665   5.673  0.00  0.00    +0.015 C 
ENDROOT
BRANCH  14  20
ATOM     20  O   LIG    1       22.098 -19.932   4.932  0.00  0.00    -0.507 OA
ATOM     21  H   LIG    1       21.904 -19.630   4.029  0.00  0.00    +0.292 HD
ENDBRANCH  14  20
TORSDOF 1
ENDMDL
MODEL 4
REMARK VINA RESULT:      -6.7      1.436      2.066
REMARK  Name = *****
REMARK                            x       y       z     vdW  Elec       q    Type
REMARK                         _______ _______ _______ _____ _____    ______ ____
ROOT
ATOM      1  C   LIG    1       21.586 -21.413   4.735  0.00  0.00    +0.019 C 
ATOM      2  C   LIG    1       22.909 -20.739   5.156  0.00  0.00    +0.029 C 
ATOM      3  C   LIG    1       22.705 -19.231   5.027  0.00  0.00    +0.140 C 
ATOM      4  O   LIG    1       22.202 -18.526   5.892  0.00  0.00    -0.297 OA
ATOM      5  C   LIG    1       23.168 -18.706   3.695  0.00  0.00    +0.075 C 
ATOM      6  C   LIG    1       23.666 -19.971   2.992  0.00  0.00    +0.012 C 
ATOM      7  C   LIG    1       24.043 -20.964   4.118  0.00  0.00    +0.006 C 
ATOM      8  C   LIG    1       25.525 -20.849   4.641  0.00  0.00    +0.001 C 
ATOM      9  C   LIG    1       25.702 -21.327   6.112  0.00  0.00    +0.023 C 
ATOM     10  C   LIG    1       27.049 -20.998   6.745  0.00  0.00    -0.041 A 
ATOM     11  C   LIG    1       27.950 -20.102   6.149  0.00  0.00    -0.041 A 
ATOM     12  C   LIG    1       27.705 -19.560   4.772  0.00  0.00    +0.036 C 
ATOM     13  C   LIG    1       29.118 -19.733   6.837  0.00  0.00    +0.049 A 
ATOM     14  C   LIG    1       29.370 -20.226   8.111  0.00  0.00    +0.117 A 
ATOM     15  C   LIG    1       28.502 -21.129   8.706  0.00  0.00    +0.045 A 
ATOM     16  C   LIG    1       27.358 -21.527   8.014  0.00  0.00    +0.008 A 
ATOM     17  C   LIG    1       24.610 -20.742   7.021  0.00  0.00    +0.009 C 
ATOM     18  C   LIG    1       26.216 -19.489   4.430  0.00  0.00    +0.009 C 
ATOM     19  C   LIG    1       23.235 -21.182   6.568  0.00  0.00    +0.015 C 
ENDROOT
BRANCH  14  20
ATOM     20  O   LIG    1       30.490 -19.789   8.756  0.00  0.00    -0.507 OA
ATOM     21  H   LIG    1       30.763 -20.473   9.388  0.00  0.00    +0.292 HD
ENDBRANCH  14  20
TORSDOF 1
ENDMDL
MODEL 5
REMARK VINA RESULT:      -6.6      3.454      6.205
REMARK  Name = *****
REMARK                            x       y       z     vdW  Elec       q    Type
REMARK                         _______ _______ _______ _____ _____    ______ ____
ROOT
ATOM      1  C   LIG    1       26.792 -19.994   8.204  0.00  0.00    +0.019 C 
ATOM      2  C   LIG    1       26.200 -21.144   7.364  0.00  0.00    +0.029 C 
ATOM      3  C   LIG    1       25.658 -20.527   6.077  0.00  0.00    +0.140 C 
ATOM      4  O   LIG    1       26.334 -20.299   5.083  0.00  0.00    -0.297 OA
ATOM      5  C   LIG    1       24.193 -20.197   6.176  0.00  0.00    +0.075 C 
ATOM      6  C   LIG    1       23.848 -20.635   7.602  0.00  0.00    +0.012 C 
ATOM      7  C   LIG    1       24.892 -21.713   7.981  0.00  0.00    +0.006 C 
ATOM      8  C   LIG    1       24.500 -23.188   7.591  0.00  0.00    +0.001 C 
ATOM      9  C   LIG    1       25.728 -24.117   7.363  0.00  0.00    +0.023 C 
ATOM     10  C   LIG    1       25.414 -25.471   6.737  0.00  0.00    -0.041 A 
ATOM     11  C   LIG    1       24.164 -25.750   6.162  0.00  0.00    -0.041 A 
ATOM     12  C   LIG    1       23.020 -24.789   6.293  0.00  0.00    +0.036 C 
ATOM     13  C   LIG    1       23.969 -26.965   5.483  0.00  0.00    +0.049 A 
ATOM     14  C   LIG    1       25.011 -27.873   5.353  0.00  0.00    +0.117 A 
ATOM     15  C   LIG    1       26.246 -27.624   5.934  0.00  0.00    +0.045 A 
ATOM     16  C   LIG    1       26.437 -26.436   6.639  0.00  0.00    +0.008 A 
ATOM     17  C   LIG    1       26.784 -23.435   6.479  0.00  0.00    +0.009 C 
ATOM     18  C   LIG    1       23.490 -23.341   6.438  0.00  0.00    +0.009 C 
ATOM     19  C   LIG    1       27.294 -22.166   7.126  0.00  0.00    +0.015 C 
ENDROOT
BRANCH  14  20
ATOM     20  O   LIG    1       24.784 -29.010   4.635  0.00  0.00    -0.507 OA
ATOM     21  H   LIG    1       24.870 -28.797   3.691  0.00  0.00    +0.292 HD
ENDBRANCH  14  20
TORSDOF 1
ENDMDL
MODEL 6
REMARK VINA RESULT:      -6.6      3.522      6.159
REMARK  Name = *****
REMARK                            x       y       z     vdW  Elec       q    Type
REMARK                         _______ _______ _______ _____ _____    ______ ____
ROOT
ATOM      1  C   LIG    1       22.506 -20.505   5.351  0.00  0.00    +0.019 C 
ATOM      2  C   LIG    1       23.242 -21.671   6.042  0.00  0.00    +0.029 C 
ATOM      3  C   LIG    1       23.648 -21.185   7.432  0.00  0.00    +0.140 C 
ATOM      4  O   LIG    1       22.917 -21.213   8.413  0.00  0.00    -0.297 OA
ATOM      5  C   LIG    1       25.048 -20.633   7.456  0.00  0.00    +0.075 C 
ATOM      6  C   LIG    1       25.495 -20.793   6.001  0.00  0.00    +0.012 C 
ATOM      7  C   LIG    1       24.638 -21.941   5.416  0.00  0.00    +0.006 C 
ATOM      8  C   LIG    1       25.240 -23.386   5.604  0.00  0.00    +0.001 C 
ATOM      9  C   LIG    1       24.161 -24.508   5.631  0.00  0.00    +0.023 C 
ATOM     10  C   LIG    1       24.661 -25.881   6.066  0.00  0.00    -0.041 A 
ATOM     11  C   LIG    1       25.922 -26.058   6.656  0.00  0.00    -0.041 A 
ATOM     12  C   LIG    1       26.909 -24.932   6.725  0.00  0.00    +0.036 C 
ATOM     13  C   LIG    1       26.281 -27.320   7.158  0.00  0.00    +0.049 A 
ATOM     14  C   LIG    1       25.386 -28.381   7.100  0.00  0.00    +0.117 A 
ATOM     15  C   LIG    1       24.145 -28.230   6.501  0.00  0.00    +0.045 A 
ATOM     16  C   LIG    1       23.795 -26.988   5.969  0.00  0.00    +0.008 A 
ATOM     17  C   LIG    1       22.990 -24.131   6.551  0.00  0.00    +0.009 C 
ATOM     18  C   LIG    1       26.228 -23.563   6.771  0.00  0.00    +0.009 C 
ATOM     19  C   LIG    1       22.310 -22.866   6.072  0.00  0.00    +0.015 C 
ENDROOT
BRANCH  14  20
ATOM     20  O   LIG    1       25.765 -29.569   7.655  0.00  0.00    -0.507 OA
ATOM     21  H   LIG    1       25.195 -30.268   7.296  0.00  0.00    +0.292 HD
ENDBRANCH  14  20
TORSDOF 1
ENDMDL
