MODEL 1
REMARK VINA RESULT:       2.6      0.000      0.000
REMARK  Name = *****
REMARK                            x       y       z     vdW  Elec       q    Type
REMARK                         _______ _______ _______ _____ _____    ______ ____
ROOT
ATOM      1  C   LIG    1       26.720 -15.834   3.402  0.00  0.00    -0.025 A 
ATOM      2  C   LIG    1       27.879 -15.733   4.160  0.00  0.00    +0.011 A 
ATOM      3  C   LIG    1       28.689 -14.602   4.052  0.00  0.00    +0.046 A 
ATOM      4  C   LIG    1       28.340 -13.542   3.215  0.00  0.00    +0.121 A 
ATOM      5  C   LIG    1       27.179 -13.656   2.441  0.00  0.00    +0.046 A 
ATOM      6  C   LIG    1       26.373 -14.801   2.530  0.00  0.00    +0.011 A 
ENDROOT
BRANCH   1   8
ATOM      7  C   LIG    1       24.632 -16.957   3.978  0.00  0.00    +0.008 C 
ATOM      8  C   LIG    1       25.888 -17.031   3.552  0.00  0.00    +0.008 C 
BRANCH   7  12
ATOM      9  C   LIG    1       22.142 -20.422   4.369  0.00  0.00    +0.027 A 
ATOM     10  C   LIG    1       21.641 -19.131   4.563  0.00  0.00    +0.023 A 
ATOM     11  C   LIG    1       22.461 -18.008   4.448  0.00  0.00    +0.009 A 
ATOM     12  C   LIG    1       23.800 -18.156   4.097  0.00  0.00    -0.025 A 
ATOM     13  C   LIG    1       24.313 -19.430   3.856  0.00  0.00    +0.009 A 
ATOM     14  C   LIG    1       23.487 -20.554   3.993  0.00  0.00    +0.023 A 
BRANCH   9  16
ATOM     15  C   LIG    1       19.904 -21.428   4.381  0.00  0.00    +0.125 C 
ATOM     16  N   LIG    1       21.347 -21.572   4.453  0.00  0.00    -0.347 N 
ATOM     17  H   LIG    1       21.661 -22.182   5.205  0.00  0.00    +0.146 HD
ENDBRANCH   9  16
ENDBRANCH   7  12
ENDBRANCH   1   8
BRANCH   4  18
ATOM     18  O   LIG    1       29.029 -12.370   3.073  0.00  0.00    -0.490 OA
BRANCH  18  19
ATOM     19  C   LIG    1       29.417 -11.661   4.254  0.00  0.00    +0.257 C 
BRANCH  19  20
ATOM     20  C   LIG    1       28.689 -12.213   5.472  0.00  0.00    +0.201 C 
BRANCH  20  21
ATOM     21  O   LIG    1       27.291 -11.939   5.350  0.00  0.00    -0.374 OA
BRANCH  21  22
ATOM     22  C   LIG    1       26.500 -13.086   5.650  0.00  0.00    +0.188 C 
BRANCH  22  23
ATOM     23  C   LIG    1       25.014 -12.747   5.536  0.00  0.00    +0.188 C 
BRANCH  23  24
ATOM     24  O   LIG    1       24.692 -12.343   4.201  0.00  0.00    -0.375 OA
BRANCH  24  25
ATOM     25  C   LIG    1       23.593 -13.066   3.638  0.00  0.00    +0.193 C 
BRANCH  25  26
ATOM     26  C   LIG    1       23.433 -14.453   4.243  0.00  0.00    +0.241 C 
ATOM     27  F   LIG    1       22.736 -14.370   5.406  0.00  0.00    -0.247 F 
ENDBRANCH  25  26
ENDBRANCH  24  25
ENDBRANCH  23  24
ENDBRANCH  22  23
ENDBRANCH  21  22
ENDBRANCH  20  21
ENDBRANCH  19  20
ENDBRANCH  18  19
ENDBRANCH   4  18
TORSDOF 12
ENDMDL
MODEL 2
REMARK VINA RESULT:       3.6      4.536      8.639
REMARK  Name = *****
REMARK                            x       y       z     vdW  Elec       q    Type
REMARK                         _______ _______ _______ _____ _____    ______ ____
ROOT
ATOM      1  C   LIG    1       22.922 -16.681   4.143  0.00  0.00    -0.025 A 
ATOM      2  C   LIG    1       23.277 -17.999   3.888  0.00  0.00    +0.011 A 
ATOM      3  C   LIG    1       22.289 -18.955   3.646  0.00  0.00    +0.046 A 
ATOM      4  C   LIG    1       20.938 -18.605   3.620  0.00  0.00    +0.121 A 
ATOM      5  C   LIG    1       20.586 -17.278   3.894  0.00  0.00    +0.046 A 
ATOM      6  C   LIG    1       21.574 -16.319   4.160  0.00  0.00    +0.011 A 
ENDROOT
BRANCH   1   8
ATOM      7  C   LIG    1       25.095 -15.688   3.649  0.00  0.00    +0.008 C 
ATOM      8  C   LIG    1       23.987 -15.703   4.381  0.00  0.00    +0.008 C 
BRANCH   7  12
ATOM      9  C   LIG    1       28.114 -12.736   4.377  0.00  0.00    +0.027 A 
ATOM     10  C   LIG    1       27.176 -13.084   5.354  0.00  0.00    +0.023 A 
ATOM     11  C   LIG    1       26.186 -14.036   5.105  0.00  0.00    +0.009 A 
ATOM     12  C   LIG    1       26.141 -14.689   3.877  0.00  0.00    -0.025 A 
ATOM     13  C   LIG    1       27.092 -14.391   2.902  0.00  0.00    +0.009 A 
ATOM     14  C   LIG    1       28.071 -13.419   3.153  0.00  0.00    +0.023 A 
BRANCH   9  16
ATOM     15  C   LIG    1       29.475 -11.448   5.962  0.00  0.00    +0.125 C 
ATOM     16  N   LIG    1       29.135 -11.803   4.595  0.00  0.00    -0.347 N 
ATOM     17  H   LIG    1       29.040 -11.001   3.976  0.00  0.00    +0.146 HD
ENDBRANCH   9  16
ENDBRANCH   7  12
ENDBRANCH   1   8
BRANCH   4  18
ATOM     18  O   LIG    1       19.896 -19.446   3.341  0.00  0.00    -0.490 OA
BRANCH  18  19
ATOM     19  C   LIG    1       19.845 -20.712   4.007  0.00  0.00    +0.257 C 
BRANCH  19  20
ATOM     20  C   LIG    1       20.928 -20.798   5.075  0.00  0.00    +0.201 C 
BRANCH  20  21
ATOM     21  O   LIG    1       22.022 -21.570   4.575  0.00  0.00    -0.374 OA
BRANCH  21  22
ATOM     22  C   LIG    1       23.199 -21.389   5.358  0.00  0.00    +0.188 C 
BRANCH  22  23
ATOM     23  C   LIG    1       24.316 -20.792   4.504  0.00  0.00    +0.188 C 
BRANCH  23  24
ATOM     24  O   LIG    1       25.563 -21.436   4.785  0.00  0.00    -0.375 OA
BRANCH  24  25
ATOM     25  C   LIG    1       25.916 -21.409   6.171  0.00  0.00    +0.193 C 
BRANCH  25  26
ATOM     26  C   LIG    1       26.902 -20.298   6.502  0.00  0.00    +0.241 C 
ATOM     27  F   LIG    1       28.173 -20.759   6.381  0.00  0.00    -0.247 F 
ENDBRANCH  25  26
ENDBRANCH  24  25
ENDBRANCH  23  24
ENDBRANCH  22  23
ENDBRANCH  21  22
ENDBRANCH  20  21
ENDBRANCH  19  20
ENDBRANCH  18  19
ENDBRANCH   4  18
TORSDOF 12
ENDMDL
