MODEL 1
REMARK VINA RESULT:      -5.9      0.000      0.000
REMARK  Name = *****
REMARK                            x       y       z     vdW  Elec       q    Type
REMARK                         _______ _______ _______ _____ _____    ______ ____
ROOT
ATOM      1  C   LIG    1       25.046 -31.761  11.422  0.00  0.00    +0.132 C 
ATOM      2  C   LIG    1       25.262 -30.217  11.285  0.00  0.00    +0.014 C 
ATOM      3  C   LIG    1       24.088 -29.612  12.134  0.00  0.00    +0.002 C 
ATOM      4  C   LIG    1       24.407 -29.057  13.551  0.00  0.00    -0.003 C 
ATOM      5  C   LIG    1       25.795 -28.385  13.660  0.00  0.00    -0.000 C 
ATOM      6  C   LIG    1       26.837 -29.414  13.216  0.00  0.00    +0.005 C 
ATOM      7  C   LIG    1       25.827 -27.025  12.908  0.00  0.00    +0.019 C 
ATOM      8  C   LIG    1       24.729 -26.143  13.481  0.00  0.00    -0.064 C 
ATOM      9  C   LIG    1       24.945 -24.974  14.107  0.00  0.00    +0.026 C 
ATOM     10  C   LIG    1       26.336 -24.505  14.373  0.00  0.00    +0.080 C 
ATOM     11  C   LIG    1       27.440 -25.526  14.184  0.00  0.00    +0.059 C 
ATOM     12  N   LIG    1       26.675 -23.326  14.796  0.00  0.00    -0.092 NA
ATOM     13  C   LIG    1       23.344 -26.719  13.354  0.00  0.00    +0.031 C 
ATOM     14  C   LIG    1       27.191 -26.311  12.907  0.00  0.00    +0.014 C 
ATOM     15  C   LIG    1       23.295 -28.093  14.031  0.00  0.00    +0.008 C 
ATOM     16  C   LIG    1       23.012 -30.725  12.240  0.00  0.00    +0.008 C 
ATOM     17  C   LIG    1       26.690 -29.789  11.750  0.00  0.00    +0.011 C 
ATOM     18  C   LIG    1       23.528 -31.945  11.487  0.00  0.00    +0.049 C 
ENDROOT
BRANCH   1  20
ATOM     19  C   LIG    1       26.122 -33.200   9.442  0.00  0.00    +0.007 C 
ATOM     20  C   LIG    1       25.636 -32.552  10.331  0.00  0.00    -0.070 C 
ENDBRANCH   1  20
BRANCH   1  21
ATOM     21  O   LIG    1       25.603 -32.249  12.644  0.00  0.00    -0.376 OA
ATOM     22  H   LIG    1       26.553 -32.391  12.517  0.00  0.00    +0.211 HD
ENDBRANCH   1  21
BRANCH  12  23
ATOM     23  O   LIG    1       25.568 -22.480  14.937  0.00  0.00    -0.409 OA
ATOM     24  H   LIG    1       25.275 -22.369  14.013  0.00  0.00    +0.328 HD
ENDBRANCH  12  23
BRANCH   2  25
ATOM     25  C   LIG    1       25.149 -29.684   9.802  0.00  0.00    +0.007 C 
ATOM     26  C   LIG    1       26.280 -28.852   9.212  0.00  0.00    +0.004 C 
ENDBRANCH   2  25
TORSDOF 4
ENDMDL
MODEL 2
REMARK VINA RESULT:      -5.6      1.402      1.698
REMARK  Name = *****
REMARK                            x       y       z     vdW  Elec       q    Type
REMARK                         _______ _______ _______ _____ _____    ______ ____
ROOT
ATOM      1  C   LIG    1       22.691 -31.797  11.674  0.00  0.00    +0.132 C 
ATOM      2  C   LIG    1       23.363 -30.402  11.444  0.00  0.00    +0.014 C 
ATOM      3  C   LIG    1       22.448 -29.424  12.263  0.00  0.00    +0.002 C 
ATOM      4  C   LIG    1       22.955 -28.916  13.643  0.00  0.00    -0.003 C 
ATOM      5  C   LIG    1       24.484 -28.693  13.703  0.00  0.00    -0.000 C 
ATOM      6  C   LIG    1       25.153 -30.013  13.313  0.00  0.00    +0.005 C 
ATOM      7  C   LIG    1       24.909 -27.451  12.872  0.00  0.00    +0.019 C 
ATOM      8  C   LIG    1       24.144 -26.247  13.398  0.00  0.00    -0.064 C 
ATOM      9  C   LIG    1       24.720 -25.166  13.953  0.00  0.00    +0.026 C 
ATOM     10  C   LIG    1       26.193 -25.129  14.181  0.00  0.00    +0.080 C 
ATOM     11  C   LIG    1       26.930 -26.446  14.046  0.00  0.00    +0.059 C 
ATOM     12  N   LIG    1       26.885 -24.087  14.532  0.00  0.00    -0.092 NA
ATOM     13  C   LIG    1       22.647 -26.380  13.315  0.00  0.00    +0.031 C 
ATOM     14  C   LIG    1       26.425 -27.186  12.819  0.00  0.00    +0.014 C 
ATOM     15  C   LIG    1       22.200 -27.634  14.073  0.00  0.00    +0.008 C 
ATOM     16  C   LIG    1       21.089 -30.148  12.442  0.00  0.00    +0.008 C 
ATOM     17  C   LIG    1       24.864 -30.404  11.874  0.00  0.00    +0.011 C 
ATOM     18  C   LIG    1       21.192 -31.508  11.760  0.00  0.00    +0.049 C 
ENDROOT
BRANCH   1  20
ATOM     19  C   LIG    1       23.226 -33.596   9.768  0.00  0.00    +0.007 C 
ATOM     20  C   LIG    1       22.987 -32.788  10.628  0.00  0.00    -0.070 C 
ENDBRANCH   1  20
BRANCH   1  21
ATOM     21  O   LIG    1       23.104 -32.365  12.919  0.00  0.00    -0.376 OA
ATOM     22  H   LIG    1       23.704 -31.745  13.359  0.00  0.00    +0.211 HD
ENDBRANCH   1  21
BRANCH  12  23
ATOM     23  O   LIG    1       26.090 -22.939  14.630  0.00  0.00    -0.409 OA
ATOM     24  H   LIG    1       26.045 -22.801  15.595  0.00  0.00    +0.328 HD
ENDBRANCH  12  23
BRANCH   2  25
ATOM     25  C   LIG    1       23.381 -29.941   9.933  0.00  0.00    +0.007 C 
ATOM     26  C   LIG    1       24.708 -29.822   9.197  0.00  0.00    +0.004 C 
ENDBRANCH   2  25
TORSDOF 4
ENDMDL
MODEL 3
REMARK VINA RESULT:      -5.3      1.618      2.163
REMARK  Name = *****
REMARK                            x       y       z     vdW  Elec       q    Type
REMARK                         _______ _______ _______ _____ _____    ______ ____
ROOT
ATOM      1  C   LIG    1       25.849 -32.040   8.919  0.00  0.00    +0.132 C 
ATOM      2  C   LIG    1       25.669 -30.542   9.335  0.00  0.00    +0.014 C 
ATOM      3  C   LIG    1       24.511 -30.600  10.393  0.00  0.00    +0.002 C 
ATOM      4  C   LIG    1       24.879 -30.485  11.900  0.00  0.00    -0.003 C 
ATOM      5  C   LIG    1       26.067 -29.537  12.182  0.00  0.00    -0.000 C 
ATOM      6  C   LIG    1       27.254 -30.034  11.354  0.00  0.00    +0.005 C 
ATOM      7  C   LIG    1       25.670 -28.050  11.967  0.00  0.00    +0.019 C 
ATOM      8  C   LIG    1       24.481 -27.744  12.864  0.00  0.00    -0.064 C 
ATOM      9  C   LIG    1       24.494 -26.840  13.857  0.00  0.00    +0.026 C 
ATOM     10  C   LIG    1       25.755 -26.126  14.213  0.00  0.00    +0.080 C 
ATOM     11  C   LIG    1       27.035 -26.684  13.624  0.00  0.00    +0.059 C 
ATOM     12  N   LIG    1       25.857 -25.111  15.016  0.00  0.00    -0.092 NA
ATOM     13  C   LIG    1       23.270 -28.598  12.599  0.00  0.00    +0.031 C 
ATOM     14  C   LIG    1       26.810 -27.034  12.162  0.00  0.00    +0.014 C 
ATOM     15  C   LIG    1       23.644 -30.078  12.742  0.00  0.00    +0.008 C 
ATOM     16  C   LIG    1       23.758 -31.932  10.141  0.00  0.00    +0.008 C 
ATOM     17  C   LIG    1       27.002 -29.922   9.859  0.00  0.00    +0.011 C 
ATOM     18  C   LIG    1       24.444 -32.642   8.979  0.00  0.00    +0.049 C 
ENDROOT
BRANCH   1  20
ATOM     19  C   LIG    1       26.952 -32.389   6.507  0.00  0.00    +0.007 C 
ATOM     20  C   LIG    1       26.456 -32.229   7.592  0.00  0.00    -0.070 C 
ENDBRANCH   1  20
BRANCH   1  21
ATOM     21  O   LIG    1       26.668 -32.737   9.859  0.00  0.00    -0.376 OA
ATOM     22  H   LIG    1       27.587 -32.707   9.553  0.00  0.00    +0.211 HD
ENDBRANCH   1  21
BRANCH  12  23
ATOM     23  O   LIG    1       24.610 -24.696  15.498  0.00  0.00    -0.409 OA
ATOM     24  H   LIG    1       24.042 -24.791  14.710  0.00  0.00    +0.328 HD
ENDBRANCH  12  23
BRANCH   2  25
ATOM     25  C   LIG    1       25.230 -29.596   8.147  0.00  0.00    +0.007 C 
ATOM     26  C   LIG    1       25.838 -28.206   8.027  0.00  0.00    +0.004 C 
ENDBRANCH   2  25
TORSDOF 4
ENDMDL
MODEL 4
REMARK VINA RESULT:      -5.3      3.116      4.518
REMARK  Name = *****
REMARK                            x       y       z     vdW  Elec       q    Type
REMARK                         _______ _______ _______ _____ _____    ______ ____
ROOT
ATOM      1  C   LIG    1       24.655 -32.961   6.424  0.00  0.00    +0.132 C 
ATOM      2  C   LIG    1       24.676 -31.547   7.093  0.00  0.00    +0.014 C 
ATOM      3  C   LIG    1       23.796 -31.743   8.378  0.00  0.00    +0.002 C 
ATOM      4  C   LIG    1       24.510 -31.885   9.752  0.00  0.00    -0.003 C 
ATOM      5  C   LIG    1       25.792 -31.030   9.880  0.00  0.00    -0.000 C 
ATOM      6  C   LIG    1       26.718 -31.419   8.726  0.00  0.00    +0.005 C 
ATOM      7  C   LIG    1       25.455 -29.518   9.995  0.00  0.00    +0.019 C 
ATOM      8  C   LIG    1       24.530 -29.329  11.187  0.00  0.00    -0.064 C 
ATOM      9  C   LIG    1       24.834 -28.599  12.273  0.00  0.00    +0.026 C 
ATOM     10  C   LIG    1       26.187 -27.989  12.420  0.00  0.00    +0.080 C 
ATOM     11  C   LIG    1       27.255 -28.479  11.463  0.00  0.00    +0.059 C 
ATOM     12  N   LIG    1       26.540 -27.121  13.319  0.00  0.00    -0.092 NA
ATOM     13  C   LIG    1       23.237 -30.094  11.095  0.00  0.00    +0.031 C 
ATOM     14  C   LIG    1       26.674 -28.579  10.063  0.00  0.00    +0.014 C 
ATOM     15  C   LIG    1       23.535 -31.586  10.917  0.00  0.00    +0.008 C 
ATOM     16  C   LIG    1       22.918 -32.994   8.115  0.00  0.00    +0.008 C 
ATOM     17  C   LIG    1       26.133 -31.058   7.370  0.00  0.00    +0.011 C 
ATOM     18  C   LIG    1       23.266 -33.524   6.729  0.00  0.00    +0.049 C 
ENDROOT
BRANCH   1  20
ATOM     19  C   LIG    1       25.147 -32.941   3.796  0.00  0.00    +0.007 C 
ATOM     20  C   LIG    1       24.923 -32.948   4.978  0.00  0.00    -0.070 C 
ENDBRANCH   1  20
BRANCH   1  21
ATOM     21  O   LIG    1       25.623 -33.825   7.024  0.00  0.00    -0.376 OA
ATOM     22  H   LIG    1       26.221 -33.291   7.567  0.00  0.00    +0.211 HD
ENDBRANCH   1  21
BRANCH  12  23
ATOM     23  O   LIG    1       25.470 -26.755  14.144  0.00  0.00    -0.409 OA
ATOM     24  H   LIG    1       24.721 -26.747  13.518  0.00  0.00    +0.328 HD
ENDBRANCH  12  23
BRANCH   2  25
ATOM     25  C   LIG    1       24.037 -30.407   6.203  0.00  0.00    +0.007 C 
ATOM     26  C   LIG    1       24.401 -28.953   6.465  0.00  0.00    +0.004 C 
ENDBRANCH   2  25
TORSDOF 4
ENDMDL
MODEL 5
REMARK VINA RESULT:      -5.3      3.213      5.229
REMARK  Name = *****
REMARK                            x       y       z     vdW  Elec       q    Type
REMARK                         _______ _______ _______ _____ _____    ______ ____
ROOT
ATOM      1  C   LIG    1       20.918 -28.236  14.104  0.00  0.00    +0.132 C 
ATOM      2  C   LIG    1       22.187 -28.879  13.452  0.00  0.00    +0.014 C 
ATOM      3  C   LIG    1       23.115 -27.644  13.177  0.00  0.00    +0.002 C 
ATOM      4  C   LIG    1       24.314 -27.389  14.135  0.00  0.00    -0.003 C 
ATOM      5  C   LIG    1       24.973 -28.682  14.666  0.00  0.00    -0.000 C 
ATOM      6  C   LIG    1       23.879 -29.506  15.347  0.00  0.00    +0.005 C 
ATOM      7  C   LIG    1       25.771 -29.412  13.549  0.00  0.00    +0.019 C 
ATOM      8  C   LIG    1       26.802 -28.441  12.995  0.00  0.00    -0.064 C 
ATOM      9  C   LIG    1       28.131 -28.628  13.058  0.00  0.00    +0.026 C 
ATOM     10  C   LIG    1       28.695 -29.798  13.792  0.00  0.00    +0.080 C 
ATOM     11  C   LIG    1       27.738 -30.557  14.689  0.00  0.00    +0.059 C 
ATOM     12  N   LIG    1       29.933 -30.188  13.770  0.00  0.00    -0.092 NA
ATOM     13  C   LIG    1       26.216 -27.184  12.410  0.00  0.00    +0.031 C 
ATOM     14  C   LIG    1       26.412 -30.747  13.969  0.00  0.00    +0.014 C 
ATOM     15  C   LIG    1       25.369 -26.471  13.470  0.00  0.00    +0.008 C 
ATOM     16  C   LIG    1       22.188 -26.400  13.159  0.00  0.00    +0.008 C 
ATOM     17  C   LIG    1       22.816 -29.976  14.368  0.00  0.00    +0.011 C 
ATOM     18  C   LIG    1       20.764 -26.877  13.419  0.00  0.00    +0.049 C 
ENDROOT
BRANCH   1  20
ATOM     19  C   LIG    1       18.699 -29.711  13.866  0.00  0.00    +0.007 C 
ATOM     20  C   LIG    1       19.696 -29.045  13.971  0.00  0.00    -0.070 C 
ENDBRANCH   1  20
BRANCH   1  21
ATOM     21  O   LIG    1       21.120 -28.007  15.500  0.00  0.00    -0.376 OA
ATOM     22  H   LIG    1       20.864 -28.805  15.986  0.00  0.00    +0.211 HD
ENDBRANCH   1  21
BRANCH  12  23
ATOM     23  O   LIG    1       30.715 -29.404  12.913  0.00  0.00    -0.409 OA
ATOM     24  H   LIG    1       30.945 -30.037  12.207  0.00  0.00    +0.328 HD
ENDBRANCH  12  23
BRANCH   2  25
ATOM     25  C   LIG    1       21.900 -29.619  12.085  0.00  0.00    +0.007 C 
ATOM     26  C   LIG    1       23.048 -29.904  11.127  0.00  0.00    +0.004 C 
ENDBRANCH   2  25
TORSDOF 4
ENDMDL
MODEL 6
REMARK VINA RESULT:      -5.2      4.305      7.848
REMARK  Name = *****
REMARK                            x       y       z     vdW  Elec       q    Type
REMARK                         _______ _______ _______ _____ _____    ______ ____
ROOT
ATOM      1  C   LIG    1       23.839 -30.295  11.951  0.00  0.00    +0.132 C 
ATOM      2  C   LIG    1       24.776 -30.195  10.702  0.00  0.00    +0.014 C 
ATOM      3  C   LIG    1       25.543 -31.565  10.717  0.00  0.00    +0.002 C 
ATOM      4  C   LIG    1       25.106 -32.671   9.715  0.00  0.00    -0.003 C 
ATOM      5  C   LIG    1       24.636 -32.124   8.348  0.00  0.00    -0.000 C 
ATOM      6  C   LIG    1       23.501 -31.134   8.618  0.00  0.00    +0.005 C 
ATOM      7  C   LIG    1       25.828 -31.573   7.518  0.00  0.00    +0.019 C 
ATOM      8  C   LIG    1       26.848 -32.689   7.357  0.00  0.00    -0.064 C 
ATOM      9  C   LIG    1       27.214 -33.217   6.177  0.00  0.00    +0.026 C 
ATOM     10  C   LIG    1       26.543 -32.787   4.916  0.00  0.00    +0.080 C 
ATOM     11  C   LIG    1       25.265 -31.987   5.071  0.00  0.00    +0.059 C 
ATOM     12  N   LIG    1       26.926 -33.078   3.710  0.00  0.00    -0.092 NA
ATOM     13  C   LIG    1       27.387 -33.227   8.656  0.00  0.00    +0.031 C 
ATOM     14  C   LIG    1       25.448 -30.946   6.164  0.00  0.00    +0.014 C 
ATOM     15  C   LIG    1       26.228 -33.722   9.527  0.00  0.00    +0.008 C 
ATOM     16  C   LIG    1       25.438 -32.104  12.168  0.00  0.00    +0.008 C 
ATOM     17  C   LIG    1       23.970 -29.915   9.394  0.00  0.00    +0.011 C 
ATOM     18  C   LIG    1       24.636 -31.096  12.983  0.00  0.00    +0.049 C 
ENDROOT
BRANCH   1  20
ATOM     19  C   LIG    1       23.069 -27.932  12.941  0.00  0.00    +0.007 C 
ATOM     20  C   LIG    1       23.417 -28.994  12.493  0.00  0.00    -0.070 C 
ENDBRANCH   1  20
BRANCH   1  21
ATOM     21  O   LIG    1       22.652 -31.027  11.643  0.00  0.00    -0.376 OA
ATOM     22  H   LIG    1       22.321 -31.437  12.456  0.00  0.00    +0.211 HD
ENDBRANCH   1  21
BRANCH  12  23
ATOM     23  O   LIG    1       28.110 -33.825   3.701  0.00  0.00    -0.409 OA
ATOM     24  H   LIG    1       27.887 -34.572   4.288  0.00  0.00    +0.328 HD
ENDBRANCH  12  23
BRANCH   2  25
ATOM     25  C   LIG    1       25.828 -29.018  10.782  0.00  0.00    +0.007 C 
ATOM     26  C   LIG    1       26.685 -28.690   9.567  0.00  0.00    +0.004 C 
ENDBRANCH   2  25
TORSDOF 4
ENDMDL
MODEL 7
REMARK VINA RESULT:      -5.1      2.808      4.773
REMARK  Name = *****
REMARK                            x       y       z     vdW  Elec       q    Type
REMARK                         _______ _______ _______ _____ _____    ______ ____
ROOT
ATOM      1  C   LIG    1       19.928 -31.306  12.972  0.00  0.00    +0.132 C 
ATOM      2  C   LIG    1       21.111 -30.577  13.691  0.00  0.00    +0.014 C 
ATOM      3  C   LIG    1       22.297 -30.727  12.673  0.00  0.00    +0.002 C 
ATOM      4  C   LIG    1       22.688 -29.499  11.803  0.00  0.00    -0.003 C 
ATOM      5  C   LIG    1       22.529 -28.144  12.530  0.00  0.00    -0.000 C 
ATOM      6  C   LIG    1       21.079 -28.050  13.010  0.00  0.00    +0.005 C 
ATOM      7  C   LIG    1       23.616 -27.957  13.625  0.00  0.00    +0.019 C 
ATOM      8  C   LIG    1       24.979 -28.085  12.964  0.00  0.00    -0.064 C 
ATOM      9  C   LIG    1       25.894 -27.102  12.917  0.00  0.00    +0.026 C 
ATOM     10  C   LIG    1       25.572 -25.745  13.446  0.00  0.00    +0.080 C 
ATOM     11  C   LIG    1       24.113 -25.464  13.741  0.00  0.00    +0.059 C 
ATOM     12  N   LIG    1       26.418 -24.776  13.626  0.00  0.00    -0.092 NA
ATOM     13  C   LIG    1       25.216 -29.408  12.286  0.00  0.00    +0.031 C 
ATOM     14  C   LIG    1       23.499 -26.661  14.448  0.00  0.00    +0.014 C 
ATOM     15  C   LIG    1       24.123 -29.652  11.241  0.00  0.00    +0.008 C 
ATOM     16  C   LIG    1       21.932 -31.922  11.754  0.00  0.00    +0.008 C 
ATOM     17  C   LIG    1       20.748 -29.103  14.055  0.00  0.00    +0.011 C 
ATOM     18  C   LIG    1       20.578 -32.459  12.205  0.00  0.00    +0.049 C 
ENDROOT
BRANCH   1  20
ATOM     19  C   LIG    1       18.015 -32.189  14.620  0.00  0.00    +0.007 C 
ATOM     20  C   LIG    1       18.878 -31.792  13.881  0.00  0.00    -0.070 C 
ENDBRANCH   1  20
BRANCH   1  21
ATOM     21  O   LIG    1       19.296 -30.444  12.023  0.00  0.00    -0.376 OA
ATOM     22  H   LIG    1       19.972 -29.879  11.620  0.00  0.00    +0.211 HD
ENDBRANCH   1  21
BRANCH  12  23
ATOM     23  O   LIG    1       27.728 -25.157  13.312  0.00  0.00    -0.409 OA
ATOM     24  H   LIG    1       28.255 -24.591  13.906  0.00  0.00    +0.328 HD
ENDBRANCH  12  23
BRANCH   2  25
ATOM     25  C   LIG    1       21.529 -31.236  15.065  0.00  0.00    +0.007 C 
ATOM     26  C   LIG    1       22.988 -31.211  15.500  0.00  0.00    +0.004 C 
ENDBRANCH   2  25
TORSDOF 4
ENDMDL
MODEL 8
REMARK VINA RESULT:      -5.1      3.437      6.180
REMARK  Name = *****
REMARK                            x       y       z     vdW  Elec       q    Type
REMARK                         _______ _______ _______ _____ _____    ______ ____
ROOT
ATOM      1  C   LIG    1       27.267 -27.559  14.488  0.00  0.00    +0.132 C 
ATOM      2  C   LIG    1       26.110 -28.602  14.328  0.00  0.00    +0.014 C 
ATOM      3  C   LIG    1       24.816 -27.716  14.390  0.00  0.00    +0.002 C 
ATOM      4  C   LIG    1       24.074 -27.392  13.062  0.00  0.00    -0.003 C 
ATOM      5  C   LIG    1       24.111 -28.543  12.031  0.00  0.00    -0.000 C 
ATOM      6  C   LIG    1       25.580 -28.886  11.781  0.00  0.00    +0.005 C 
ATOM      7  C   LIG    1       23.207 -29.728  12.472  0.00  0.00    +0.019 C 
ATOM      8  C   LIG    1       21.797 -29.197  12.673  0.00  0.00    -0.064 C 
ATOM      9  C   LIG    1       20.728 -29.597  11.964  0.00  0.00    +0.026 C 
ATOM     10  C   LIG    1       20.889 -30.550  10.828  0.00  0.00    +0.080 C 
ATOM     11  C   LIG    1       22.304 -30.788  10.342  0.00  0.00    +0.059 C 
ATOM     12  N   LIG    1       19.928 -31.149  10.192  0.00  0.00    -0.092 NA
ATOM     13  C   LIG    1       21.687 -28.110  13.709  0.00  0.00    +0.031 C 
ATOM     14  C   LIG    1       23.229 -30.951  11.537  0.00  0.00    +0.014 C 
ATOM     15  C   LIG    1       22.615 -26.950  13.336  0.00  0.00    +0.008 C 
ATOM     16  C   LIG    1       25.228 -26.395  15.092  0.00  0.00    +0.008 C 
ATOM     17  C   LIG    1       26.263 -29.441  13.020  0.00  0.00    +0.011 C 
ATOM     18  C   LIG    1       26.711 -26.491  15.431  0.00  0.00    +0.049 C 
ENDROOT
BRANCH   1  20
ATOM     19  C   LIG    1       29.553 -28.591  15.416  0.00  0.00    +0.007 C 
ATOM     20  C   LIG    1       28.523 -28.127  15.001  0.00  0.00    -0.070 C 
ENDBRANCH   1  20
BRANCH   1  21
ATOM     21  O   LIG    1       27.567 -26.934  13.239  0.00  0.00    -0.376 OA
ATOM     22  H   LIG    1       27.697 -25.986  13.390  0.00  0.00    +0.211 HD
ENDBRANCH   1  21
BRANCH  12  23
ATOM     23  O   LIG    1       18.672 -30.842  10.730  0.00  0.00    -0.409 OA
ATOM     24  H   LIG    1       18.661 -29.867  10.687  0.00  0.00    +0.328 HD
ENDBRANCH  12  23
BRANCH   2  25
ATOM     25  C   LIG    1       26.051 -29.676  15.486  0.00  0.00    +0.007 C 
ATOM     26  C   LIG    1       25.068 -30.834  15.391  0.00  0.00    +0.004 C 
ENDBRANCH   2  25
TORSDOF 4
ENDMDL
MODEL 9
REMARK VINA RESULT:      -4.8      3.943      7.379
REMARK  Name = *****
REMARK                            x       y       z     vdW  Elec       q    Type
REMARK                         _______ _______ _______ _____ _____    ______ ____
ROOT
ATOM      1  C   LIG    1       26.342 -29.151  12.921  0.00  0.00    +0.132 C 
ATOM      2  C   LIG    1       25.165 -29.596  11.990  0.00  0.00    +0.014 C 
ATOM      3  C   LIG    1       25.608 -29.074  10.577  0.00  0.00    +0.002 C 
ATOM      4  C   LIG    1       26.181 -30.096   9.555  0.00  0.00    -0.003 C 
ATOM      5  C   LIG    1       25.523 -31.492   9.634  0.00  0.00    -0.000 C 
ATOM      6  C   LIG    1       25.680 -31.992  11.071  0.00  0.00    +0.005 C 
ATOM      7  C   LIG    1       24.069 -31.466   9.084  0.00  0.00    +0.019 C 
ATOM      8  C   LIG    1       24.113 -30.944   7.657  0.00  0.00    -0.064 C 
ATOM      9  C   LIG    1       23.733 -31.650   6.579  0.00  0.00    +0.026 C 
ATOM     10  C   LIG    1       23.321 -33.077   6.718  0.00  0.00    +0.080 C 
ATOM     11  C   LIG    1       23.643 -33.747   8.039  0.00  0.00    +0.059 C 
ATOM     12  N   LIG    1       22.763 -33.803   5.798  0.00  0.00    -0.092 NA
ATOM     13  C   LIG    1       24.694 -29.561   7.521  0.00  0.00    +0.031 C 
ATOM     14  C   LIG    1       23.309 -32.801   9.181  0.00  0.00    +0.014 C 
ATOM     15  C   LIG    1       26.107 -29.538   8.112  0.00  0.00    +0.008 C 
ATOM     16  C   LIG    1       26.650 -27.955  10.836  0.00  0.00    +0.008 C 
ATOM     17  C   LIG    1       24.916 -31.135  12.067  0.00  0.00    +0.011 C 
ATOM     18  C   LIG    1       26.824 -27.819  12.344  0.00  0.00    +0.049 C 
ENDROOT
BRANCH   1  20
ATOM     19  C   LIG    1       25.670 -28.904  15.498  0.00  0.00    +0.007 C 
ATOM     20  C   LIG    1       25.971 -29.018  14.339  0.00  0.00    -0.070 C 
ENDBRANCH   1  20
BRANCH   1  21
ATOM     21  O   LIG    1       27.426 -30.080  12.856  0.00  0.00    -0.376 OA
ATOM     22  H   LIG    1       27.098 -30.957  13.106  0.00  0.00    +0.211 HD
ENDBRANCH   1  21
BRANCH  12  23
ATOM     23  O   LIG    1       22.526 -33.075   4.626  0.00  0.00    -0.409 OA
ATOM     24  H   LIG    1       21.570 -32.888   4.690  0.00  0.00    +0.328 HD
ENDBRANCH  12  23
BRANCH   2  25
ATOM     25  C   LIG    1       23.773 -28.947  12.363  0.00  0.00    +0.007 C 
ATOM     26  C   LIG    1       22.489 -29.555  11.816  0.00  0.00    +0.004 C 
ENDBRANCH   2  25
TORSDOF 4
ENDMDL
