MODEL 1
REMARK VINA RESULT:      -0.1      0.000      0.000
REMARK  Name = *****
REMARK                            x       y       z     vdW  Elec       q    Type
REMARK                         _______ _______ _______ _____ _____    ______ ____
ROOT
ATOM      1  C   LIG    1       23.761 -27.925  13.990  0.00  0.00    +0.264 C 
ATOM      2  C   LIG    1       25.244 -27.414  14.099  0.00  0.00    +0.257 C 
ATOM      3  O   LIG    1       25.585 -26.839  15.147  0.00  0.00    -0.272 OA
ATOM      4  N   LIG    1       26.086 -27.347  12.984  0.00  0.00    -0.288 N 
ATOM      5  C   LIG    1       26.780 -26.061  12.877  0.00  0.00    +0.133 C 
ATOM      6  C   LIG    1       26.973 -28.471  12.542  0.00  0.00    +0.187 C 
ATOM      7  C   LIG    1       26.722 -28.972  11.044  0.00  0.00    +0.329 C 
ATOM      8  O   LIG    1       27.472 -29.750  10.439  0.00  0.00    -0.249 OA
ATOM      9  O   LIG    1       25.619 -28.390  10.516  0.00  0.00    -0.450 OA
ATOM     10  C   LIG    1       25.355 -28.626   9.102  0.00  0.00    +0.264 C 
ATOM     11  C   LIG    1       25.131 -30.139   8.749  0.00  0.00    +0.257 C 
ATOM     12  O   LIG    1       25.769 -30.744   7.886  0.00  0.00    -0.272 OA
ATOM     13  N   LIG    1       24.006 -30.724   9.381  0.00  0.00    -0.288 N 
ATOM     14  C   LIG    1       22.813 -30.357   8.623  0.00  0.00    +0.133 C 
ATOM     15  C   LIG    1       24.038 -32.195   9.698  0.00  0.00    +0.187 C 
ATOM     16  C   LIG    1       22.956 -32.633  10.745  0.00  0.00    +0.329 C 
ATOM     17  O   LIG    1       22.703 -33.816  10.963  0.00  0.00    -0.249 OA
ATOM     18  O   LIG    1       22.269 -31.610  11.356  0.00  0.00    -0.450 OA
ATOM     19  C   LIG    1       20.995 -32.033  11.866  0.00  0.00    +0.264 C 
ATOM     20  C   LIG    1       20.916 -32.695  13.271  0.00  0.00    +0.257 C 
ATOM     21  O   LIG    1       20.417 -33.825  13.367  0.00  0.00    -0.272 OA
ATOM     22  N   LIG    1       21.102 -31.922  14.417  0.00  0.00    -0.288 N 
ATOM     23  C   LIG    1       20.164 -32.218  15.500  0.00  0.00    +0.133 C 
ATOM     24  C   LIG    1       22.407 -31.358  14.875  0.00  0.00    +0.187 C 
ATOM     25  C   LIG    1       22.521 -29.833  14.672  0.00  0.00    +0.329 C 
ATOM     26  O   LIG    1       21.694 -29.103  15.226  0.00  0.00    -0.249 OA
ATOM     27  O   LIG    1       23.571 -29.365  13.924  0.00  0.00    -0.450 OA
ENDROOT
BRANCH   1  29
ATOM     28  C   LIG    1       22.738 -25.650  13.303  0.00  0.00    +0.011 C 
ATOM     29  C   LIG    1       22.951 -27.124  12.918  0.00  0.00    +0.033 C 
ATOM     30  C   LIG    1       21.539 -27.677  12.682  0.00  0.00    +0.011 C 
ENDBRANCH   1  29
BRANCH   6  31
ATOM     31  C   LIG    1       27.305 -29.607  13.583  0.00  0.00    +0.014 C 
ATOM     32  C   LIG    1       26.926 -31.002  13.041  0.00  0.00    +0.009 C 
ATOM     33  C   LIG    1       28.794 -29.719  13.952  0.00  0.00    +0.009 C 
ENDBRANCH   6  31
BRANCH  10  34
ATOM     34  C   LIG    1       26.430 -27.937   8.187  0.00  0.00    +0.033 C 
ATOM     35  C   LIG    1       26.373 -28.434   6.732  0.00  0.00    +0.011 C 
ATOM     36  C   LIG    1       26.258 -26.413   8.166  0.00  0.00    +0.011 C 
ENDBRANCH  10  34
BRANCH  15  37
ATOM     37  C   LIG    1       25.436 -32.770  10.083  0.00  0.00    +0.014 C 
ATOM     38  C   LIG    1       25.457 -33.417  11.457  0.00  0.00    +0.009 C 
ATOM     39  C   LIG    1       26.013 -33.763   9.065  0.00  0.00    +0.009 C 
ENDBRANCH  15  37
BRANCH  19  40
ATOM     40  C   LIG    1       19.911 -30.914  11.776  0.00  0.00    +0.033 C 
ATOM     41  C   LIG    1       18.487 -31.499  11.816  0.00  0.00    +0.011 C 
ATOM     42  C   LIG    1       20.026 -30.081  10.500  0.00  0.00    +0.011 C 
ENDBRANCH  19  40
BRANCH  24  43
ATOM     43  C   LIG    1       23.672 -32.234  14.734  0.00  0.00    +0.014 C 
ATOM     44  C   LIG    1       24.844 -31.585  15.500  0.00  0.00    +0.009 C 
ATOM     45  C   LIG    1       23.498 -33.643  15.326  0.00  0.00    +0.009 C 
ENDBRANCH  24  43
TORSDOF 6
ENDMDL
MODEL 2
REMARK VINA RESULT:       0.4      1.497      5.819
REMARK  Name = *****
REMARK                            x       y       z     vdW  Elec       q    Type
REMARK                         _______ _______ _______ _____ _____    ______ ____
ROOT
ATOM      1  C   LIG    1       24.212 -32.830  10.067  0.00  0.00    +0.264 C 
ATOM      2  C   LIG    1       25.207 -32.163   9.048  0.00  0.00    +0.257 C 
ATOM      3  O   LIG    1       25.215 -32.587   7.880  0.00  0.00    -0.272 OA
ATOM      4  N   LIG    1       26.240 -31.320   9.471  0.00  0.00    -0.288 N 
ATOM      5  C   LIG    1       27.530 -31.659   8.864  0.00  0.00    +0.133 C 
ATOM      6  C   LIG    1       26.096 -29.836   9.622  0.00  0.00    +0.187 C 
ATOM      7  C   LIG    1       26.421 -29.277  11.084  0.00  0.00    +0.329 C 
ATOM      8  O   LIG    1       26.543 -28.075  11.356  0.00  0.00    -0.249 OA
ATOM      9  O   LIG    1       26.599 -30.292  11.963  0.00  0.00    -0.450 OA
ATOM     10  C   LIG    1       27.062 -29.941  13.300  0.00  0.00    +0.264 C 
ATOM     11  C   LIG    1       26.075 -28.999  14.078  0.00  0.00    +0.257 C 
ATOM     12  O   LIG    1       26.406 -27.921  14.574  0.00  0.00    -0.272 OA
ATOM     13  N   LIG    1       24.801 -29.566  14.325  0.00  0.00    -0.288 N 
ATOM     14  C   LIG    1       24.908 -30.440  15.491  0.00  0.00    +0.133 C 
ATOM     15  C   LIG    1       23.609 -28.653  14.416  0.00  0.00    +0.187 C 
ATOM     16  C   LIG    1       22.237 -29.399  14.271  0.00  0.00    +0.329 C 
ATOM     17  O   LIG    1       21.167 -28.850  14.525  0.00  0.00    -0.249 OA
ATOM     18  O   LIG    1       22.314 -30.722  13.900  0.00  0.00    -0.450 OA
ATOM     19  C   LIG    1       21.149 -31.468  14.286  0.00  0.00    +0.264 C 
ATOM     20  C   LIG    1       19.898 -31.461  13.363  0.00  0.00    +0.257 C 
ATOM     21  O   LIG    1       18.816 -31.085  13.836  0.00  0.00    -0.272 OA
ATOM     22  N   LIG    1       19.921 -32.151  12.152  0.00  0.00    -0.288 N 
ATOM     23  C   LIG    1       18.697 -32.900  11.865  0.00  0.00    +0.133 C 
ATOM     24  C   LIG    1       20.684 -31.736  10.937  0.00  0.00    +0.187 C 
ATOM     25  C   LIG    1       21.922 -32.613  10.662  0.00  0.00    +0.329 C 
ATOM     26  O   LIG    1       21.758 -33.824  10.486  0.00  0.00    -0.249 OA
ATOM     27  O   LIG    1       23.141 -31.990  10.578  0.00  0.00    -0.450 OA
ENDROOT
BRANCH   1  29
ATOM     28  C   LIG    1       24.923 -32.965  12.551  0.00  0.00    +0.011 C 
ATOM     29  C   LIG    1       24.971 -33.640  11.170  0.00  0.00    +0.033 C 
ATOM     30  C   LIG    1       26.464 -33.823  10.873  0.00  0.00    +0.011 C 
ENDBRANCH   1  29
BRANCH   6  31
ATOM     31  C   LIG    1       24.894 -29.130   8.886  0.00  0.00    +0.014 C 
ATOM     32  C   LIG    1       25.387 -28.023   7.928  0.00  0.00    +0.009 C 
ATOM     33  C   LIG    1       24.047 -30.063   8.005  0.00  0.00    +0.009 C 
ENDBRANCH   6  31
BRANCH  10  34
ATOM     34  C   LIG    1       28.537 -29.402  13.282  0.00  0.00    +0.033 C 
ATOM     35  C   LIG    1       29.332 -29.811  14.534  0.00  0.00    +0.011 C 
ATOM     36  C   LIG    1       29.306 -29.908  12.056  0.00  0.00    +0.011 C 
ENDBRANCH  10  34
BRANCH  15  37
ATOM     37  C   LIG    1       23.649 -27.398  13.490  0.00  0.00    +0.014 C 
ATOM     38  C   LIG    1       22.273 -26.951  13.031  0.00  0.00    +0.009 C 
ATOM     39  C   LIG    1       24.381 -26.191  14.094  0.00  0.00    +0.009 C 
ENDBRANCH  15  37
BRANCH  19  40
ATOM     40  C   LIG    1       21.482 -32.943  14.671  0.00  0.00    +0.033 C 
ATOM     41  C   LIG    1       20.353 -33.582  15.500  0.00  0.00    +0.011 C 
ATOM     42  C   LIG    1       22.771 -33.067  15.483  0.00  0.00    +0.011 C 
ENDBRANCH  19  40
BRANCH  24  43
ATOM     43  C   LIG    1       20.730 -30.233  10.580  0.00  0.00    +0.014 C 
ATOM     44  C   LIG    1       19.717 -29.460  11.449  0.00  0.00    +0.009 C 
ATOM     45  C   LIG    1       22.103 -29.593  10.845  0.00  0.00    +0.009 C 
ENDBRANCH  24  43
TORSDOF 6
ENDMDL
MODEL 3
REMARK VINA RESULT:       0.4      1.398      6.193
REMARK  Name = *****
REMARK                            x       y       z     vdW  Elec       q    Type
REMARK                         _______ _______ _______ _____ _____    ______ ____
ROOT
ATOM      1  C   LIG    1       21.367 -31.810  11.310  0.00  0.00    +0.264 C 
ATOM      2  C   LIG    1       20.860 -32.064  12.776  0.00  0.00    +0.257 C 
ATOM      3  O   LIG    1       19.985 -32.931  12.946  0.00  0.00    -0.272 OA
ATOM      4  N   LIG    1       21.156 -31.185  13.823  0.00  0.00    -0.288 N 
ATOM      5  C   LIG    1       19.976 -30.834  14.617  0.00  0.00    +0.133 C 
ATOM      6  C   LIG    1       22.370 -31.307  14.694  0.00  0.00    +0.187 C 
ATOM      7  C   LIG    1       23.317 -30.019  14.705  0.00  0.00    +0.329 C 
ATOM      8  O   LIG    1       24.254 -29.854  15.500  0.00  0.00    -0.249 OA
ATOM      9  O   LIG    1       22.924 -29.119  13.774  0.00  0.00    -0.450 OA
ATOM     10  C   LIG    1       23.594 -27.824  13.776  0.00  0.00    +0.264 C 
ATOM     11  C   LIG    1       25.139 -27.916  13.513  0.00  0.00    +0.257 C 
ATOM     12  O   LIG    1       25.991 -27.435  14.262  0.00  0.00    -0.272 OA
ATOM     13  N   LIG    1       25.485 -28.447  12.247  0.00  0.00    -0.288 N 
ATOM     14  C   LIG    1       25.366 -27.381  11.256  0.00  0.00    +0.133 C 
ATOM     15  C   LIG    1       26.779 -29.201  12.108  0.00  0.00    +0.187 C 
ATOM     16  C   LIG    1       26.854 -30.081  10.812  0.00  0.00    +0.329 C 
ATOM     17  O   LIG    1       27.905 -30.595  10.434  0.00  0.00    -0.249 OA
ATOM     18  O   LIG    1       25.684 -30.189  10.096  0.00  0.00    -0.450 OA
ATOM     19  C   LIG    1       25.915 -30.526   8.718  0.00  0.00    +0.264 C 
ATOM     20  C   LIG    1       26.096 -32.017   8.317  0.00  0.00    +0.257 C 
ATOM     21  O   LIG    1       27.133 -32.350   7.727  0.00  0.00    -0.272 OA
ATOM     22  N   LIG    1       25.001 -32.881   8.331  0.00  0.00    -0.288 N 
ATOM     23  C   LIG    1       24.932 -33.781   7.179  0.00  0.00    +0.133 C 
ATOM     24  C   LIG    1       24.332 -33.406   9.559  0.00  0.00    +0.187 C 
ATOM     25  C   LIG    1       22.951 -32.772   9.823  0.00  0.00    +0.329 C 
ATOM     26  O   LIG    1       22.076 -32.887   8.960  0.00  0.00    -0.249 OA
ATOM     27  O   LIG    1       22.752 -32.152  11.031  0.00  0.00    -0.450 OA
ENDROOT
BRANCH   1  29
ATOM     28  C   LIG    1       21.227 -29.272  11.795  0.00  0.00    +0.011 C 
ATOM     29  C   LIG    1       20.941 -30.398  10.787  0.00  0.00    +0.033 C 
ATOM     30  C   LIG    1       19.440 -30.286  10.489  0.00  0.00    +0.011 C 
ENDBRANCH   1  29
BRANCH   6  31
ATOM     31  C   LIG    1       23.119 -32.693  14.731  0.00  0.00    +0.014 C 
ATOM     32  C   LIG    1       24.455 -32.595  15.500  0.00  0.00    +0.009 C 
ATOM     33  C   LIG    1       22.343 -33.820  15.432  0.00  0.00    +0.009 C 
ENDBRANCH   6  31
BRANCH  10  34
ATOM     34  C   LIG    1       23.239 -26.987  15.057  0.00  0.00    +0.033 C 
ATOM     35  C   LIG    1       23.917 -25.606  15.068  0.00  0.00    +0.011 C 
ATOM     36  C   LIG    1       21.727 -26.764  15.183  0.00  0.00    +0.011 C 
ENDBRANCH  10  34
BRANCH  15  37
ATOM     37  C   LIG    1       27.214 -30.029  13.356  0.00  0.00    +0.014 C 
ATOM     38  C   LIG    1       26.731 -31.468  13.316  0.00  0.00    +0.009 C 
ATOM     39  C   LIG    1       28.726 -30.027  13.620  0.00  0.00    +0.009 C 
ENDBRANCH  15  37
BRANCH  19  40
ATOM     40  C   LIG    1       24.873 -29.870   7.759  0.00  0.00    +0.033 C 
ATOM     41  C   LIG    1       24.916 -30.503   6.356  0.00  0.00    +0.011 C 
ATOM     42  C   LIG    1       25.090 -28.367   7.588  0.00  0.00    +0.011 C 
ENDBRANCH  19  40
BRANCH  24  43
ATOM     43  C   LIG    1       25.218 -33.810  10.759  0.00  0.00    +0.014 C 
ATOM     44  C   LIG    1       26.701 -33.810  10.335  0.00  0.00    +0.009 C 
ATOM     45  C   LIG    1       25.108 -32.836  11.944  0.00  0.00    +0.009 C 
ENDBRANCH  24  43
TORSDOF 6
ENDMDL
