MODEL 1
REMARK VINA RESULT:      -5.0      0.000      0.000
REMARK  Name = *****
REMARK                            x       y       z     vdW  Elec       q    Type
REMARK                         _______ _______ _______ _____ _____    ______ ____
ROOT
ATOM      1  O   LIG    1       27.907 -19.143   5.088  0.00  0.00    -0.350 OA
ENDROOT
BRANCH   1   2
ATOM      2  C   LIG    1       28.104 -19.538   6.453  0.00  0.00    +0.183 C 
BRANCH   2   3
ATOM      3  C   LIG    1       26.927 -20.460   6.856  0.00  0.00    +0.266 C 
BRANCH   3   4
ATOM      4  O   LIG    1       26.087 -20.678   5.702  0.00  0.00    -0.461 OA
BRANCH   4   5
ATOM      5  C   LIG    1       24.743 -20.762   5.984  0.00  0.00    +0.324 C 
ATOM      6  O   LIG    1       24.298 -21.121   7.061  0.00  0.00    -0.249 OA
BRANCH   5   7
ATOM      7  C   LIG    1       23.940 -20.171   4.795  0.00  0.00    +0.163 C 
BRANCH   7   9
ATOM      8  C   LIG    1       21.474 -20.811   4.762  0.00  0.00    +0.009 C 
ATOM      9  C   LIG    1       22.515 -19.718   5.067  0.00  0.00    +0.011 C 
ATOM     10  C   LIG    1       22.216 -18.499   4.194  0.00  0.00    +0.009 C 
ENDBRANCH   7   9
BRANCH   7  11
ATOM     11  N   LIG    1       24.001 -21.171   3.738  0.00  0.00    -0.318 NA
ATOM     12  H   LIG    1       24.433 -21.894   4.310  0.00  0.00    +0.119 HD
ATOM     13  H   LIG    1       24.755 -20.965   3.081  0.00  0.00    +0.119 HD
ENDBRANCH   7  11
ENDBRANCH   5   7
ENDBRANCH   4   5
ENDBRANCH   3   4
ENDBRANCH   2   3
BRANCH   2  14
ATOM     14  C   LIG    1       29.475 -20.195   6.630  0.00  0.00    +0.191 C 
BRANCH  14  15
ATOM     15  O   LIG    1       29.425 -21.550   7.062  0.00  0.00    -0.392 OA
ATOM     16  H   LIG    1       28.640 -21.696   7.618  0.00  0.00    +0.209 HD
ENDBRANCH  14  15
ENDBRANCH   2  14
ENDBRANCH   1   2
BRANCH   1  17
ATOM     17  C   LIG    1       28.381 -17.838   4.743  0.00  0.00    +0.287 C 
BRANCH  17  18
ATOM     18  N   LIG    1       27.347 -17.119   4.012  0.00  0.00    -0.291 N 
ATOM     19  C   LIG    1       27.190 -15.762   3.928  0.00  0.00    +0.171 A 
ATOM     20  N   LIG    1       28.023 -14.814   4.418  0.00  0.00    -0.196 NA
ATOM     21  C   LIG    1       27.497 -13.632   4.503  0.00  0.00    +0.195 C 
ATOM     22  N   LIG    1       26.223 -13.327   4.054  0.00  0.00    -0.293 N 
ATOM     23  H   LIG    1       25.876 -12.412   4.165  0.00  0.00    +0.172 HD
ATOM     24  C   LIG    1       25.375 -14.269   3.508  0.00  0.00    +0.280 C 
ATOM     25  O   LIG    1       24.217 -13.946   3.172  0.00  0.00    -0.265 OA
ATOM     26  C   LIG    1       25.913 -15.595   3.437  0.00  0.00    +0.172 A 
ATOM     27  N   LIG    1       25.349 -16.793   3.073  0.00  0.00    -0.229 NA
ATOM     28  C   LIG    1       26.243 -17.696   3.425  0.00  0.00    +0.203 A 
BRANCH  21  29
ATOM     29  N   LIG    1       28.144 -12.576   5.064  0.00  0.00    -0.329 N 
ATOM     30  H   LIG    1       27.624 -11.948   5.652  0.00  0.00    +0.145 HD
ATOM     31  H   LIG    1       29.029 -12.759   5.521  0.00  0.00    +0.145 HD
ENDBRANCH  21  29
ENDBRANCH  17  18
ENDBRANCH   1  17
TORSDOF 12
ENDMDL
MODEL 2
REMARK VINA RESULT:      -3.9      2.045      4.273
REMARK  Name = *****
REMARK                            x       y       z     vdW  Elec       q    Type
REMARK                         _______ _______ _______ _____ _____    ______ ____
ROOT
ATOM      1  O   LIG    1       23.363 -18.948   4.382  0.00  0.00    -0.350 OA
ENDROOT
BRANCH   1   2
ATOM      2  C   LIG    1       23.434 -20.330   4.006  0.00  0.00    +0.183 C 
BRANCH   2   3
ATOM      3  C   LIG    1       24.929 -20.722   3.909  0.00  0.00    +0.266 C 
BRANCH   3   4
ATOM      4  O   LIG    1       25.325 -21.361   5.142  0.00  0.00    -0.461 OA
BRANCH   4   5
ATOM      5  C   LIG    1       25.900 -20.515   6.062  0.00  0.00    +0.324 C 
ATOM      6  O   LIG    1       25.326 -20.104   7.057  0.00  0.00    -0.249 OA
BRANCH   5   7
ATOM      7  C   LIG    1       27.401 -20.334   5.712  0.00  0.00    +0.163 C 
BRANCH   7   9
ATOM      8  C   LIG    1       29.382 -19.015   6.623  0.00  0.00    +0.009 C 
ATOM      9  C   LIG    1       28.373 -20.153   6.865  0.00  0.00    +0.011 C 
ATOM     10  C   LIG    1       29.145 -21.458   7.062  0.00  0.00    +0.009 C 
ENDBRANCH   7   9
BRANCH   7  11
ATOM     11  N   LIG    1       27.459 -19.222   4.772  0.00  0.00    -0.318 NA
ATOM     12  H   LIG    1       27.182 -19.767   3.958  0.00  0.00    +0.119 HD
ATOM     13  H   LIG    1       28.425 -18.993   4.534  0.00  0.00    +0.119 HD
ENDBRANCH   7  11
ENDBRANCH   5   7
ENDBRANCH   4   5
ENDBRANCH   3   4
ENDBRANCH   2   3
BRANCH   2  14
ATOM     14  C   LIG    1       22.645 -21.195   4.993  0.00  0.00    +0.191 C 
BRANCH  14  15
ATOM     15  O   LIG    1       22.775 -20.800   6.353  0.00  0.00    -0.392 OA
ATOM     16  H   LIG    1       23.287 -19.975   6.416  0.00  0.00    +0.209 HD
ENDBRANCH  14  15
ENDBRANCH   2  14
ENDBRANCH   1   2
BRANCH   1  17
ATOM     17  C   LIG    1       24.378 -18.101   3.834  0.00  0.00    +0.287 C 
BRANCH  17  18
ATOM     18  N   LIG    1       23.964 -16.709   3.939  0.00  0.00    -0.291 N 
ATOM     19  C   LIG    1       24.725 -15.601   3.682  0.00  0.00    +0.171 A 
ATOM     20  N   LIG    1       25.982 -15.577   3.178  0.00  0.00    -0.196 NA
ATOM     21  C   LIG    1       26.599 -14.447   3.339  0.00  0.00    +0.195 C 
ATOM     22  N   LIG    1       26.011 -13.325   3.897  0.00  0.00    -0.293 N 
ATOM     23  H   LIG    1       26.542 -12.503   4.007  0.00  0.00    +0.172 HD
ATOM     24  C   LIG    1       24.716 -13.316   4.374  0.00  0.00    +0.280 C 
ATOM     25  O   LIG    1       24.257 -12.290   4.916  0.00  0.00    -0.265 OA
ATOM     26  C   LIG    1       24.019 -14.561   4.247  0.00  0.00    +0.172 A 
ATOM     27  N   LIG    1       22.787 -14.970   4.696  0.00  0.00    -0.229 NA
ATOM     28  C   LIG    1       22.779 -16.272   4.489  0.00  0.00    +0.203 A 
BRANCH  21  29
ATOM     29  N   LIG    1       27.901 -14.264   2.992  0.00  0.00    -0.329 N 
ATOM     30  H   LIG    1       28.145 -13.462   2.437  0.00  0.00    +0.145 HD
ATOM     31  H   LIG    1       28.598 -14.354   3.721  0.00  0.00    +0.145 HD
ENDBRANCH  21  29
ENDBRANCH  17  18
ENDBRANCH   1  17
TORSDOF 12
ENDMDL
MODEL 3
REMARK VINA RESULT:      -3.5      2.274      4.455
REMARK  Name = *****
REMARK                            x       y       z     vdW  Elec       q    Type
REMARK                         _______ _______ _______ _____ _____    ______ ____
ROOT
ATOM      1  O   LIG    1       23.526 -16.909   4.312  0.00  0.00    -0.350 OA
ENDROOT
BRANCH   1   2
ATOM      2  C   LIG    1       22.692 -17.950   3.783  0.00  0.00    +0.183 C 
BRANCH   2   3
ATOM      3  C   LIG    1       23.608 -18.991   3.094  0.00  0.00    +0.266 C 
BRANCH   3   4
ATOM      4  O   LIG    1       24.660 -19.366   4.010  0.00  0.00    -0.461 OA
BRANCH   4   5
ATOM      5  C   LIG    1       24.820 -20.724   4.166  0.00  0.00    +0.324 C 
ATOM      6  O   LIG    1       24.085 -21.556   3.661  0.00  0.00    -0.249 OA
BRANCH   5   7
ATOM      7  C   LIG    1       26.150 -20.991   4.919  0.00  0.00    +0.163 C 
BRANCH   7   9
ATOM      8  C   LIG    1       24.793 -20.597   7.039  0.00  0.00    +0.009 C 
ATOM      9  C   LIG    1       26.078 -21.182   6.424  0.00  0.00    +0.011 C 
ATOM     10  C   LIG    1       27.285 -20.493   7.062  0.00  0.00    +0.009 C 
ENDBRANCH   7   9
BRANCH   7  11
ATOM     11  N   LIG    1       27.042 -19.900   4.550  0.00  0.00    -0.318 NA
ATOM     12  H   LIG    1       27.740 -20.490   4.103  0.00  0.00    +0.119 HD
ATOM     13  H   LIG    1       27.564 -19.563   5.361  0.00  0.00    +0.119 HD
ENDBRANCH   7  11
ENDBRANCH   5   7
ENDBRANCH   4   5
ENDBRANCH   3   4
ENDBRANCH   2   3
BRANCH   2  14
ATOM     14  C   LIG    1       21.818 -18.550   4.886  0.00  0.00    +0.191 C 
BRANCH  14  15
ATOM     15  O   LIG    1       21.704 -19.968   4.839  0.00  0.00    -0.392 OA
ATOM     16  H   LIG    1       22.541 -20.381   5.115  0.00  0.00    +0.209 HD
ENDBRANCH  14  15
ENDBRANCH   2  14
ENDBRANCH   1   2
BRANCH   1  17
ATOM     17  C   LIG    1       22.979 -15.588   4.264  0.00  0.00    +0.287 C 
BRANCH  17  18
ATOM     18  N   LIG    1       24.001 -14.650   3.824  0.00  0.00    -0.291 N 
ATOM     19  C   LIG    1       25.330 -14.911   3.627  0.00  0.00    +0.171 A 
ATOM     20  N   LIG    1       25.941 -16.117   3.698  0.00  0.00    -0.196 NA
ATOM     21  C   LIG    1       27.233 -16.056   3.801  0.00  0.00    +0.195 C 
ATOM     22  N   LIG    1       27.950 -14.872   3.754  0.00  0.00    -0.293 N 
ATOM     23  H   LIG    1       28.929 -14.894   3.856  0.00  0.00    +0.172 HD
ATOM     24  C   LIG    1       27.348 -13.636   3.634  0.00  0.00    +0.280 C 
ATOM     25  O   LIG    1       28.043 -12.599   3.653  0.00  0.00    -0.265 OA
ATOM     26  C   LIG    1       25.918 -13.667   3.558  0.00  0.00    +0.172 A 
ATOM     27  N   LIG    1       24.981 -12.663   3.549  0.00  0.00    -0.229 NA
ATOM     28  C   LIG    1       23.830 -13.288   3.702  0.00  0.00    +0.203 A 
BRANCH  21  29
ATOM     29  N   LIG    1       28.010 -17.156   3.987  0.00  0.00    -0.329 N 
ATOM     30  H   LIG    1       27.642 -17.923   4.521  0.00  0.00    +0.145 HD
ATOM     31  H   LIG    1       28.473 -17.545   3.174  0.00  0.00    +0.145 HD
ENDBRANCH  21  29
ENDBRANCH  17  18
ENDBRANCH   1  17
TORSDOF 12
ENDMDL
MODEL 4
REMARK VINA RESULT:      -3.5      1.590      2.674
REMARK  Name = *****
REMARK                            x       y       z     vdW  Elec       q    Type
REMARK                         _______ _______ _______ _____ _____    ______ ____
ROOT
ATOM      1  O   LIG    1       27.532 -16.769   3.982  0.00  0.00    -0.350 OA
ENDROOT
BRANCH   1   2
ATOM      2  C   LIG    1       27.481 -17.963   4.775  0.00  0.00    +0.183 C 
BRANCH   2   3
ATOM      3  C   LIG    1       26.508 -18.952   4.086  0.00  0.00    +0.266 C 
BRANCH   3   4
ATOM      4  O   LIG    1       26.535 -20.207   4.798  0.00  0.00    -0.461 OA
BRANCH   4   5
ATOM      5  C   LIG    1       25.372 -20.505   5.470  0.00  0.00    +0.324 C 
ATOM      6  O   LIG    1       25.320 -20.735   6.667  0.00  0.00    -0.249 OA
BRANCH   5   7
ATOM      7  C   LIG    1       24.171 -20.326   4.503  0.00  0.00    +0.163 C 
BRANCH   7   9
ATOM      8  C   LIG    1       21.753 -21.003   4.936  0.00  0.00    +0.009 C 
ATOM      9  C   LIG    1       22.837 -19.923   5.108  0.00  0.00    +0.011 C 
ATOM     10  C   LIG    1       22.362 -18.639   4.429  0.00  0.00    +0.009 C 
ENDBRANCH   7   9
BRANCH   7  11
ATOM     11  N   LIG    1       24.075 -21.572   3.754  0.00  0.00    -0.318 NA
ATOM     12  H   LIG    1       23.657 -22.110   4.510  0.00  0.00    +0.119 HD
ATOM     13  H   LIG    1       24.987 -22.024   3.674  0.00  0.00    +0.119 HD
ENDBRANCH   7  11
ENDBRANCH   5   7
ENDBRANCH   4   5
ENDBRANCH   3   4
ENDBRANCH   2   3
BRANCH   2  14
ATOM     14  C   LIG    1       28.887 -18.537   4.971  0.00  0.00    +0.191 C 
BRANCH  14  15
ATOM     15  O   LIG    1       29.022 -19.384   6.107  0.00  0.00    -0.392 OA
ATOM     16  H   LIG    1       29.356 -20.257   5.837  0.00  0.00    +0.209 HD
ENDBRANCH  14  15
ENDBRANCH   2  14
ENDBRANCH   1   2
BRANCH   1  17
ATOM     17  C   LIG    1       28.062 -15.611   4.634  0.00  0.00    +0.287 C 
BRANCH  17  18
ATOM     18  N   LIG    1       27.447 -14.413   4.082  0.00  0.00    -0.291 N 
ATOM     19  C   LIG    1       26.111 -14.121   4.031  0.00  0.00    +0.171 A 
ATOM     20  N   LIG    1       25.100 -14.837   4.578  0.00  0.00    -0.196 NA
ATOM     21  C   LIG    1       23.925 -14.541   4.115  0.00  0.00    +0.195 C 
ATOM     22  N   LIG    1       23.694 -13.523   3.205  0.00  0.00    -0.293 N 
ATOM     23  H   LIG    1       22.778 -13.363   2.880  0.00  0.00    +0.172 HD
ATOM     24  C   LIG    1       24.705 -12.751   2.671  0.00  0.00    +0.280 C 
ATOM     25  O   LIG    1       24.442 -11.885   1.812  0.00  0.00    -0.265 OA
ATOM     26  C   LIG    1       26.021 -13.080   3.132  0.00  0.00    +0.172 A 
ATOM     27  N   LIG    1       27.262 -12.627   2.756  0.00  0.00    -0.229 NA
ATOM     28  C   LIG    1       28.104 -13.446   3.353  0.00  0.00    +0.203 A 
BRANCH  21  29
ATOM     29  N   LIG    1       22.802 -15.222   4.468  0.00  0.00    -0.329 N 
ATOM     30  H   LIG    1       22.663 -15.457   5.435  0.00  0.00    +0.145 HD
ATOM     31  H   LIG    1       21.918 -14.886   4.105  0.00  0.00    +0.145 HD
ENDBRANCH  21  29
ENDBRANCH  17  18
ENDBRANCH   1  17
TORSDOF 12
ENDMDL
MODEL 5
REMARK VINA RESULT:      -3.4      2.115      6.512
REMARK  Name = *****
REMARK                            x       y       z     vdW  Elec       q    Type
REMARK                         _______ _______ _______ _____ _____    ______ ____
ROOT
ATOM      1  O   LIG    1       23.926 -18.051   3.359  0.00  0.00    -0.350 OA
ENDROOT
BRANCH   1   2
ATOM      2  C   LIG    1       22.946 -17.863   4.389  0.00  0.00    +0.183 C 
BRANCH   2   3
ATOM      3  C   LIG    1       22.434 -16.404   4.300  0.00  0.00    +0.266 C 
BRANCH   3   4
ATOM      4  O   LIG    1       23.438 -15.522   4.847  0.00  0.00    -0.461 OA
BRANCH   4   5
ATOM      5  C   LIG    1       24.050 -14.711   3.919  0.00  0.00    +0.324 C 
ATOM      6  O   LIG    1       23.448 -13.936   3.195  0.00  0.00    -0.249 OA
BRANCH   5   7
ATOM      7  C   LIG    1       25.588 -14.827   4.084  0.00  0.00    +0.163 C 
BRANCH   7   9
ATOM      8  C   LIG    1       27.362 -13.557   2.768  0.00  0.00    +0.009 C 
ATOM      9  C   LIG    1       26.405 -13.551   3.974  0.00  0.00    +0.011 C 
ATOM     10  C   LIG    1       27.227 -13.386   5.253  0.00  0.00    +0.009 C 
ENDBRANCH   7   9
BRANCH   7  11
ATOM     11  N   LIG    1       26.017 -15.832   3.121  0.00  0.00    -0.318 NA
ATOM     12  H   LIG    1       26.507 -16.414   3.797  0.00  0.00    +0.119 HD
ATOM     13  H   LIG    1       26.797 -15.491   2.557  0.00  0.00    +0.119 HD
ENDBRANCH   7  11
ENDBRANCH   5   7
ENDBRANCH   4   5
ENDBRANCH   3   4
ENDBRANCH   2   3
BRANCH   2  14
ATOM     14  C   LIG    1       21.830 -18.903   4.266  0.00  0.00    +0.191 C 
BRANCH  14  15
ATOM     15  O   LIG    1       20.628 -18.408   3.690  0.00  0.00    -0.392 OA
ATOM     16  H   LIG    1       20.744 -17.483   3.413  0.00  0.00    +0.209 HD
ENDBRANCH  14  15
ENDBRANCH   2  14
ENDBRANCH   1   2
BRANCH   1  17
ATOM     17  C   LIG    1       24.320 -19.404   3.114  0.00  0.00    +0.287 C 
BRANCH  17  18
ATOM     18  N   LIG    1       24.915 -19.967   4.317  0.00  0.00    -0.291 N 
ATOM     19  C   LIG    1       26.109 -19.616   4.887  0.00  0.00    +0.171 A 
ATOM     20  N   LIG    1       26.925 -18.604   4.510  0.00  0.00    -0.196 NA
ATOM     21  C   LIG    1       28.130 -18.684   4.983  0.00  0.00    +0.195 C 
ATOM     22  N   LIG    1       28.541 -19.664   5.871  0.00  0.00    -0.293 N 
ATOM     23  H   LIG    1       29.476 -19.678   6.178  0.00  0.00    +0.172 HD
ATOM     24  C   LIG    1       27.711 -20.678   6.304  0.00  0.00    +0.280 C 
ATOM     25  O   LIG    1       28.153 -21.566   7.061  0.00  0.00    -0.265 OA
ATOM     26  C   LIG    1       26.383 -20.641   5.767  0.00  0.00    +0.172 A 
ATOM     27  N   LIG    1       25.331 -21.518   5.868  0.00  0.00    -0.229 NA
ATOM     28  C   LIG    1       24.455 -21.080   4.986  0.00  0.00    +0.203 A 
BRANCH  21  29
ATOM     29  N   LIG    1       29.117 -17.817   4.634  0.00  0.00    -0.329 N 
ATOM     30  H   LIG    1       29.661 -18.010   3.811  0.00  0.00    +0.145 HD
ATOM     31  H   LIG    1       28.892 -16.829   4.625  0.00  0.00    +0.145 HD
ENDBRANCH  21  29
ENDBRANCH  17  18
ENDBRANCH   1  17
TORSDOF 12
ENDMDL
MODEL 6
REMARK VINA RESULT:      -3.3      2.267      6.683
REMARK  Name = *****
REMARK                            x       y       z     vdW  Elec       q    Type
REMARK                         _______ _______ _______ _____ _____    ______ ____
ROOT
ATOM      1  O   LIG    1       27.709 -15.532   4.476  0.00  0.00    -0.350 OA
ENDROOT
BRANCH   1   2
ATOM      2  C   LIG    1       28.035 -14.377   3.691  0.00  0.00    +0.183 C 
BRANCH   2   3
ATOM      3  C   LIG    1       26.909 -14.177   2.646  0.00  0.00    +0.266 C 
BRANCH   3   4
ATOM      4  O   LIG    1       26.267 -12.906   2.888  0.00  0.00    -0.461 OA
BRANCH   4   5
ATOM      5  C   LIG    1       24.893 -12.943   2.834  0.00  0.00    +0.324 C 
ATOM      6  O   LIG    1       24.250 -12.761   1.814  0.00  0.00    -0.249 OA
BRANCH   5   7
ATOM      7  C   LIG    1       24.347 -13.416   4.207  0.00  0.00    +0.163 C 
BRANCH   7   9
ATOM      8  C   LIG    1       22.735 -14.819   5.595  0.00  0.00    +0.009 C 
ATOM      9  C   LIG    1       23.361 -14.572   4.209  0.00  0.00    +0.011 C 
ATOM     10  C   LIG    1       24.094 -15.840   3.770  0.00  0.00    +0.009 C 
ENDBRANCH   7   9
BRANCH   7  11
ATOM     11  N   LIG    1       23.795 -12.229   4.846  0.00  0.00    -0.318 NA
ATOM     12  H   LIG    1       22.944 -12.203   4.288  0.00  0.00    +0.119 HD
ATOM     13  H   LIG    1       24.267 -11.384   4.521  0.00  0.00    +0.119 HD
ENDBRANCH   7  11
ENDBRANCH   5   7
ENDBRANCH   4   5
ENDBRANCH   3   4
ENDBRANCH   2   3
BRANCH   2  14
ATOM     14  C   LIG    1       28.246 -13.158   4.592  0.00  0.00    +0.191 C 
BRANCH  14  15
ATOM     15  O   LIG    1       27.257 -12.996   5.602  0.00  0.00    -0.392 OA
ATOM     16  H   LIG    1       26.970 -12.067   5.645  0.00  0.00    +0.209 HD
ENDBRANCH  14  15
ENDBRANCH   2  14
ENDBRANCH   1   2
BRANCH   1  17
ATOM     17  C   LIG    1       27.254 -16.674   3.745  0.00  0.00    +0.287 C 
BRANCH  17  18
ATOM     18  N   LIG    1       27.683 -17.891   4.419  0.00  0.00    -0.291 N 
ATOM     19  C   LIG    1       26.960 -19.041   4.584  0.00  0.00    +0.171 A 
ATOM     20  N   LIG    1       25.742 -19.318   4.062  0.00  0.00    -0.196 NA
ATOM     21  C   LIG    1       25.134 -20.316   4.626  0.00  0.00    +0.195 C 
ATOM     22  N   LIG    1       25.702 -21.098   5.618  0.00  0.00    -0.293 N 
ATOM     23  H   LIG    1       25.177 -21.830   6.016  0.00  0.00    +0.172 HD
ATOM     24  C   LIG    1       26.961 -20.861   6.130  0.00  0.00    +0.280 C 
ATOM     25  O   LIG    1       27.398 -21.566   7.062  0.00  0.00    -0.265 OA
ATOM     26  C   LIG    1       27.644 -19.740   5.556  0.00  0.00    +0.172 A 
ATOM     27  N   LIG    1       28.834 -19.134   5.873  0.00  0.00    -0.229 NA
ATOM     28  C   LIG    1       28.835 -18.022   5.164  0.00  0.00    +0.203 A 
BRANCH  21  29
ATOM     29  N   LIG    1       23.862 -20.678   4.308  0.00  0.00    -0.329 N 
ATOM     30  H   LIG    1       23.647 -20.897   3.351  0.00  0.00    +0.145 HD
ATOM     31  H   LIG    1       23.415 -21.376   4.889  0.00  0.00    +0.145 HD
ENDBRANCH  21  29
ENDBRANCH  17  18
ENDBRANCH   1  17
TORSDOF 12
ENDMDL
MODEL 7
REMARK VINA RESULT:      -3.2      2.344      6.478
REMARK  Name = *****
REMARK                            x       y       z     vdW  Elec       q    Type
REMARK                         _______ _______ _______ _____ _____    ______ ____
ROOT
ATOM      1  O   LIG    1       26.503 -17.192   4.050  0.00  0.00    -0.350 OA
ENDROOT
BRANCH   1   2
ATOM      2  C   LIG    1       27.861 -16.735   4.123  0.00  0.00    +0.183 C 
BRANCH   2   3
ATOM      3  C   LIG    1       27.836 -15.212   4.403  0.00  0.00    +0.266 C 
BRANCH   3   4
ATOM      4  O   LIG    1       27.586 -14.513   3.164  0.00  0.00    -0.461 OA
BRANCH   4   5
ATOM      5  C   LIG    1       27.262 -13.184   3.316  0.00  0.00    +0.324 C 
ATOM      6  O   LIG    1       28.065 -12.325   3.639  0.00  0.00    -0.249 OA
BRANCH   5   7
ATOM      7  C   LIG    1       25.800 -12.965   2.847  0.00  0.00    +0.163 C 
BRANCH   7   9
ATOM      8  C   LIG    1       23.970 -14.268   4.048  0.00  0.00    +0.009 C 
ATOM      9  C   LIG    1       24.719 -12.929   3.913  0.00  0.00    +0.011 C 
ATOM     10  C   LIG    1       23.711 -11.838   3.550  0.00  0.00    +0.009 C 
ENDBRANCH   7   9
BRANCH   7  11
ATOM     11  N   LIG    1       25.545 -13.992   1.846  0.00  0.00    -0.318 NA
ATOM     12  H   LIG    1       24.762 -14.417   2.339  0.00  0.00    +0.119 HD
ATOM     13  H   LIG    1       26.239 -14.739   1.901  0.00  0.00    +0.119 HD
ENDBRANCH   7  11
ENDBRANCH   5   7
ENDBRANCH   4   5
ENDBRANCH   3   4
ENDBRANCH   2   3
BRANCH   2  14
ATOM     14  C   LIG    1       28.639 -17.530   5.175  0.00  0.00    +0.191 C 
BRANCH  14  15
ATOM     15  O   LIG    1       29.381 -18.625   4.651  0.00  0.00    -0.392 OA
ATOM     16  H   LIG    1       30.238 -18.317   4.308  0.00  0.00    +0.209 HD
ENDBRANCH  14  15
ENDBRANCH   2  14
ENDBRANCH   1   2
BRANCH   1  17
ATOM     17  C   LIG    1       26.277 -18.341   3.228  0.00  0.00    +0.287 C 
BRANCH  17  18
ATOM     18  N   LIG    1       25.739 -19.425   4.037  0.00  0.00    -0.291 N 
ATOM     19  C   LIG    1       24.419 -19.706   4.267  0.00  0.00    +0.171 A 
ATOM     20  N   LIG    1       23.348 -19.100   3.703  0.00  0.00    -0.196 NA
ATOM     21  C   LIG    1       22.228 -19.312   4.321  0.00  0.00    +0.195 C 
ATOM     22  N   LIG    1       22.103 -20.155   5.414  0.00  0.00    -0.293 N 
ATOM     23  H   LIG    1       21.226 -20.257   5.848  0.00  0.00    +0.172 HD
ATOM     24  C   LIG    1       23.175 -20.819   5.974  0.00  0.00    +0.280 C 
ATOM     25  O   LIG    1       23.011 -21.521   6.992  0.00  0.00    -0.265 OA
ATOM     26  C   LIG    1       24.435 -20.573   5.338  0.00  0.00    +0.172 A 
ATOM     27  N   LIG    1       25.714 -20.951   5.666  0.00  0.00    -0.229 NA
ATOM     28  C   LIG    1       26.481 -20.247   4.857  0.00  0.00    +0.203 A 
BRANCH  21  29
ATOM     29  N   LIG    1       21.064 -18.706   3.965  0.00  0.00    -0.329 N 
ATOM     30  H   LIG    1       20.237 -18.891   4.506  0.00  0.00    +0.145 HD
ATOM     31  H   LIG    1       21.092 -17.711   3.781  0.00  0.00    +0.145 HD
ENDBRANCH  21  29
ENDBRANCH  17  18
ENDBRANCH   1  17
TORSDOF 12
ENDMDL
MODEL 8
REMARK VINA RESULT:      -2.5      2.528      6.720
REMARK  Name = *****
REMARK                            x       y       z     vdW  Elec       q    Type
REMARK                         _______ _______ _______ _____ _____    ______ ____
ROOT
ATOM      1  O   LIG    1       26.763 -16.173   3.972  0.00  0.00    -0.350 OA
ENDROOT
BRANCH   1   2
ATOM      2  C   LIG    1       27.451 -15.062   3.381  0.00  0.00    +0.183 C 
BRANCH   2   3
ATOM      3  C   LIG    1       26.509 -14.421   2.332  0.00  0.00    +0.266 C 
BRANCH   3   4
ATOM      4  O   LIG    1       26.367 -13.015   2.627  0.00  0.00    -0.461 OA
BRANCH   4   5
ATOM      5  C   LIG    1       25.065 -12.589   2.759  0.00  0.00    +0.324 C 
ATOM      6  O   LIG    1       24.390 -12.179   1.830  0.00  0.00    -0.249 OA
BRANCH   5   7
ATOM      7  C   LIG    1       24.582 -12.884   4.203  0.00  0.00    +0.163 C 
BRANCH   7   9
ATOM      8  C   LIG    1       23.102 -14.758   3.313  0.00  0.00    +0.009 C 
ATOM      9  C   LIG    1       23.977 -14.251   4.475  0.00  0.00    +0.011 C 
ATOM     10  C   LIG    1       23.116 -14.162   5.735  0.00  0.00    +0.009 C 
ENDBRANCH   7   9
BRANCH   7  11
ATOM     11  N   LIG    1       23.664 -11.805   4.543  0.00  0.00    -0.318 NA
ATOM     12  H   LIG    1       24.253 -11.057   4.185  0.00  0.00    +0.119 HD
ATOM     13  H   LIG    1       23.685 -11.607   5.545  0.00  0.00    +0.119 HD
ENDBRANCH   7  11
ENDBRANCH   5   7
ENDBRANCH   4   5
ENDBRANCH   3   4
ENDBRANCH   2   3
BRANCH   2  14
ATOM     14  C   LIG    1       27.909 -14.079   4.462  0.00  0.00    +0.191 C 
BRANCH  14  15
ATOM     15  O   LIG    1       28.779 -13.056   3.993  0.00  0.00    -0.392 OA
ATOM     16  H   LIG    1       28.545 -12.806   3.082  0.00  0.00    +0.209 HD
ENDBRANCH  14  15
ENDBRANCH   2  14
ENDBRANCH   1   2
BRANCH   1  17
ATOM     17  C   LIG    1       26.146 -17.082   3.055  0.00  0.00    +0.287 C 
BRANCH  17  18
ATOM     18  N   LIG    1       25.899 -18.354   3.718  0.00  0.00    -0.291 N 
ATOM     19  C   LIG    1       24.682 -18.922   3.985  0.00  0.00    +0.171 A 
ATOM     20  N   LIG    1       23.469 -18.467   3.594  0.00  0.00    -0.196 NA
ATOM     21  C   LIG    1       22.471 -18.983   4.242  0.00  0.00    +0.195 C 
ATOM     22  N   LIG    1       22.608 -19.979   5.194  0.00  0.00    -0.293 N 
ATOM     23  H   LIG    1       21.810 -20.314   5.663  0.00  0.00    +0.172 HD
ATOM     24  C   LIG    1       23.833 -20.489   5.574  0.00  0.00    +0.280 C 
ATOM     25  O   LIG    1       23.899 -21.347   6.478  0.00  0.00    -0.265 OA
ATOM     26  C   LIG    1       24.960 -19.911   4.904  0.00  0.00    +0.172 A 
ATOM     27  N   LIG    1       26.312 -20.069   5.086  0.00  0.00    -0.229 NA
ATOM     28  C   LIG    1       26.854 -19.120   4.350  0.00  0.00    +0.203 A 
BRANCH  21  29
ATOM     29  N   LIG    1       21.186 -18.577   4.060  0.00  0.00    -0.329 N 
ATOM     30  H   LIG    1       20.442 -19.160   4.401  0.00  0.00    +0.145 HD
ATOM     31  H   LIG    1       20.959 -17.620   4.302  0.00  0.00    +0.145 HD
ENDBRANCH  21  29
ENDBRANCH  17  18
ENDBRANCH   1  17
TORSDOF 12
ENDMDL
