MODEL 1
REMARK VINA RESULT:      -4.0      0.000      0.000
REMARK  Name = *****
REMARK                            x       y       z     vdW  Elec       q    Type
REMARK                         _______ _______ _______ _____ _____    ______ ____
ROOT
ATOM      1  N   LIG    1       30.366 -20.608   7.506  0.00  0.00    -0.312 N 
ATOM      2  H   LIG    1       29.991 -21.155   8.273  0.00  0.00    +0.146 HD
ATOM      3  H   LIG    1       29.693 -20.396   6.779  0.00  0.00    +0.146 HD
ATOM      4  C   LIG    1       31.081 -19.519   7.897  0.00  0.00    +0.320 C 
ATOM      5  N   LIG    1       31.872 -19.730   8.983  0.00  0.00    -0.181 N 
ATOM      6  H   LIG    1       32.524 -19.007   9.267  0.00  0.00    +0.184 HD
ATOM      7  O   LIG    1       31.009 -18.452   7.304  0.00  0.00    -0.251 OA
ENDROOT
BRANCH   5   8
ATOM      8  O   LIG    1       32.155 -21.053   9.385  0.00  0.00    -0.294 OA
ATOM      9  H   LIG    1       33.133 -21.068   9.369  0.00  0.00    +0.241 HD
ENDBRANCH   5   8
TORSDOF 1
ENDMDL
MODEL 2
REMARK VINA RESULT:      -3.9      1.146      1.483
REMARK  Name = *****
REMARK                            x       y       z     vdW  Elec       q    Type
REMARK                         _______ _______ _______ _____ _____    ______ ____
ROOT
ATOM      1  N   LIG    1       31.821 -18.782   8.025  0.00  0.00    -0.312 N 
ATOM      2  H   LIG    1       32.810 -18.971   8.137  0.00  0.00    +0.146 HD
ATOM      3  H   LIG    1       31.614 -17.953   7.482  0.00  0.00    +0.146 HD
ATOM      4  C   LIG    1       31.089 -19.863   7.638  0.00  0.00    +0.320 C 
ATOM      5  N   LIG    1       31.459 -21.029   8.232  0.00  0.00    -0.181 N 
ATOM      6  H   LIG    1       30.891 -21.858   8.088  0.00  0.00    +0.184 HD
ATOM      7  O   LIG    1       30.176 -19.769   6.830  0.00  0.00    -0.251 OA
ENDROOT
BRANCH   5   8
ATOM      8  O   LIG    1       32.271 -20.991   9.385  0.00  0.00    -0.294 OA
ATOM      9  H   LIG    1       32.694 -20.112   9.310  0.00  0.00    +0.241 HD
ENDBRANCH   5   8
TORSDOF 1
ENDMDL
MODEL 3
REMARK VINA RESULT:      -3.8      1.556      2.560
REMARK  Name = *****
REMARK                            x       y       z     vdW  Elec       q    Type
REMARK                         _______ _______ _______ _____ _____    ______ ____
ROOT
ATOM      1  N   LIG    1       30.109 -21.489   8.010  0.00  0.00    -0.312 N 
ATOM      2  H   LIG    1       30.555 -21.339   7.113  0.00  0.00    +0.146 HD
ATOM      3  H   LIG    1       29.494 -22.294   8.041  0.00  0.00    +0.146 HD
ATOM      4  C   LIG    1       30.960 -21.434   9.071  0.00  0.00    +0.320 C 
ATOM      5  N   LIG    1       31.907 -20.462   8.978  0.00  0.00    -0.181 N 
ATOM      6  H   LIG    1       32.505 -20.278   9.776  0.00  0.00    +0.184 HD
ATOM      7  O   LIG    1       30.858 -22.198  10.021  0.00  0.00    -0.251 OA
ENDROOT
BRANCH   5   8
ATOM      8  O   LIG    1       31.741 -19.424   8.037  0.00  0.00    -0.294 OA
ATOM      9  H   LIG    1       30.770 -19.401   7.924  0.00  0.00    +0.241 HD
ENDBRANCH   5   8
TORSDOF 1
ENDMDL
MODEL 4
REMARK VINA RESULT:      -3.7      1.513      2.873
REMARK  Name = *****
REMARK                            x       y       z     vdW  Elec       q    Type
REMARK                         _______ _______ _______ _____ _____    ______ ____
ROOT
ATOM      1  N   LIG    1       31.673 -19.720   8.562  0.00  0.00    -0.312 N 
ATOM      2  H   LIG    1       30.878 -19.097   8.484  0.00  0.00    +0.146 HD
ATOM      3  H   LIG    1       32.402 -19.390   9.184  0.00  0.00    +0.146 HD
ATOM      4  C   LIG    1       31.341 -21.021   8.782  0.00  0.00    +0.320 C 
ATOM      5  N   LIG    1       30.257 -21.447   8.081  0.00  0.00    -0.181 N 
ATOM      6  H   LIG    1       30.014 -22.432   8.097  0.00  0.00    +0.184 HD
ATOM      7  O   LIG    1       31.982 -21.731   9.544  0.00  0.00    -0.251 OA
ENDROOT
BRANCH   5   8
ATOM      8  O   LIG    1       29.798 -20.684   6.986  0.00  0.00    -0.294 OA
ATOM      9  H   LIG    1       30.502 -20.011   6.895  0.00  0.00    +0.241 HD
ENDBRANCH   5   8
TORSDOF 1
ENDMDL
MODEL 5
REMARK VINA RESULT:      -3.7      1.818      2.225
REMARK  Name = *****
REMARK                            x       y       z     vdW  Elec       q    Type
REMARK                         _______ _______ _______ _____ _____    ______ ____
ROOT
ATOM      1  N   LIG    1       31.631 -20.912   9.185  0.00  0.00    -0.312 N 
ATOM      2  H   LIG    1       32.462 -21.182   8.672  0.00  0.00    +0.146 HD
ATOM      3  H   LIG    1       31.562 -21.317  10.111  0.00  0.00    +0.146 HD
ATOM      4  C   LIG    1       31.382 -19.574   9.176  0.00  0.00    +0.320 C 
ATOM      5  N   LIG    1       31.627 -18.968   7.983  0.00  0.00    -0.181 N 
ATOM      6  H   LIG    1       31.357 -17.998   7.857  0.00  0.00    +0.184 HD
ATOM      7  O   LIG    1       30.966 -18.987  10.165  0.00  0.00    -0.251 OA
ENDROOT
BRANCH   5   8
ATOM      8  O   LIG    1       31.768 -19.758   6.823  0.00  0.00    -0.294 OA
ATOM      9  H   LIG    1       30.953 -20.299   6.842  0.00  0.00    +0.241 HD
ENDBRANCH   5   8
TORSDOF 1
ENDMDL
MODEL 6
REMARK VINA RESULT:      -3.5      2.872      3.572
REMARK  Name = *****
REMARK                            x       y       z     vdW  Elec       q    Type
REMARK                         _______ _______ _______ _____ _____    ______ ____
ROOT
ATOM      1  N   LIG    1       32.238 -16.943   9.113  0.00  0.00    -0.312 N 
ATOM      2  H   LIG    1       32.446 -16.199   9.769  0.00  0.00    +0.146 HD
ATOM      3  H   LIG    1       32.969 -17.115   8.433  0.00  0.00    +0.146 HD
ATOM      4  C   LIG    1       31.780 -18.085   9.695  0.00  0.00    +0.320 C 
ATOM      5  N   LIG    1       30.919 -17.879  10.728  0.00  0.00    -0.181 N 
ATOM      6  H   LIG    1       30.442 -18.674  11.139  0.00  0.00    +0.184 HD
ATOM      7  O   LIG    1       32.120 -19.192   9.301  0.00  0.00    -0.251 OA
ENDROOT
BRANCH   5   8
ATOM      8  O   LIG    1       30.323 -16.611  10.888  0.00  0.00    -0.294 OA
ATOM      9  H   LIG    1       30.657 -16.335  11.766  0.00  0.00    +0.241 HD
ENDBRANCH   5   8
TORSDOF 1
ENDMDL
MODEL 7
REMARK VINA RESULT:      -3.5      1.478      2.646
REMARK  Name = *****
REMARK                            x       y       z     vdW  Elec       q    Type
REMARK                         _______ _______ _______ _____ _____    ______ ____
ROOT
ATOM      1  N   LIG    1       30.269 -18.388   8.902  0.00  0.00    -0.312 N 
ATOM      2  H   LIG    1       29.409 -18.622   8.421  0.00  0.00    +0.146 HD
ATOM      3  H   LIG    1       30.172 -18.287   9.905  0.00  0.00    +0.146 HD
ATOM      4  C   LIG    1       31.332 -19.162   8.550  0.00  0.00    +0.320 C 
ATOM      5  N   LIG    1       31.396 -19.454   7.223  0.00  0.00    -0.181 N 
ATOM      6  H   LIG    1       32.216 -19.926   6.861  0.00  0.00    +0.184 HD
ATOM      7  O   LIG    1       32.151 -19.546   9.373  0.00  0.00    -0.251 OA
ENDROOT
BRANCH   5   8
ATOM      8  O   LIG    1       30.625 -18.701   6.313  0.00  0.00    -0.294 OA
ATOM      9  H   LIG    1       29.841 -18.468   6.850  0.00  0.00    +0.241 HD
ENDBRANCH   5   8
TORSDOF 1
ENDMDL
MODEL 8
REMARK VINA RESULT:      -3.5      2.299      2.308
REMARK  Name = *****
REMARK                            x       y       z     vdW  Elec       q    Type
REMARK                         _______ _______ _______ _____ _____    ______ ____
ROOT
ATOM      1  N   LIG    1       30.188 -18.191   8.088  0.00  0.00    -0.312 N 
ATOM      2  H   LIG    1       30.028 -19.190   8.046  0.00  0.00    +0.146 HD
ATOM      3  H   LIG    1       29.461 -17.634   7.655  0.00  0.00    +0.146 HD
ATOM      4  C   LIG    1       30.537 -17.734   9.322  0.00  0.00    +0.320 C 
ATOM      5  N   LIG    1       31.387 -18.551  10.000  0.00  0.00    -0.181 N 
ATOM      6  H   LIG    1       31.788 -18.230  10.874  0.00  0.00    +0.184 HD
ATOM      7  O   LIG    1       30.116 -16.673   9.761  0.00  0.00    -0.251 OA
ENDROOT
BRANCH   5   8
ATOM      8  O   LIG    1       32.083 -19.559   9.299  0.00  0.00    -0.294 OA
ATOM      9  H   LIG    1       31.466 -19.763   8.567  0.00  0.00    +0.241 HD
ENDBRANCH   5   8
TORSDOF 1
ENDMDL
MODEL 9
REMARK VINA RESULT:      -3.4      2.824      3.626
REMARK  Name = *****
REMARK                            x       y       z     vdW  Elec       q    Type
REMARK                         _______ _______ _______ _____ _____    ______ ____
ROOT
ATOM      1  N   LIG    1       30.565 -16.825  10.223  0.00  0.00    -0.312 N 
ATOM      2  H   LIG    1       30.339 -16.099   9.553  0.00  0.00    +0.146 HD
ATOM      3  H   LIG    1       29.778 -17.139  10.779  0.00  0.00    +0.146 HD
ATOM      4  C   LIG    1       31.288 -17.855   9.704  0.00  0.00    +0.320 C 
ATOM      5  N   LIG    1       32.248 -17.474   8.819  0.00  0.00    -0.181 N 
ATOM      6  H   LIG    1       32.906 -18.165   8.477  0.00  0.00    +0.184 HD
ATOM      7  O   LIG    1       31.079 -19.016  10.025  0.00  0.00    -0.251 OA
ENDROOT
BRANCH   5   8
ATOM      8  O   LIG    1       32.645 -16.121   8.770  0.00  0.00    -0.294 OA
ATOM      9  H   LIG    1       32.262 -15.764   9.597  0.00  0.00    +0.241 HD
ENDBRANCH   5   8
TORSDOF 1
ENDMDL
