MODEL 1
REMARK VINA RESULT:      -8.0      0.000      0.000
REMARK  Name = *****
REMARK                            x       y       z     vdW  Elec       q    Type
REMARK                         _______ _______ _______ _____ _____    ______ ____
ROOT
ATOM      1  O   LIG    1       26.464 -21.299   7.374  0.00  0.00    -0.340 OA
ENDROOT
BRANCH   1   6
ATOM      2  C   LIG    1       29.988 -21.383   8.068  0.00  0.00    +0.178 C 
ATOM      3  C   LIG    1       30.363 -19.940   7.712  0.00  0.00    +0.177 C 
ATOM      4  C   LIG    1       29.729 -19.614   6.359  0.00  0.00    +0.179 C 
ATOM      5  C   LIG    1       28.214 -19.850   6.364  0.00  0.00    +0.201 C 
ATOM      6  C   LIG    1       27.848 -21.207   7.013  0.00  0.00    +0.282 C 
ATOM      7  O   LIG    1       28.565 -21.428   8.239  0.00  0.00    -0.341 OA
BRANCH   3   8
ATOM      8  O   LIG    1       29.833 -19.007   8.676  0.00  0.00    -0.387 OA
ATOM      9  H   LIG    1       29.492 -19.529   9.428  0.00  0.00    +0.210 HD
ENDBRANCH   3   8
BRANCH   4  10
ATOM     10  O   LIG    1       29.961 -18.242   6.006  0.00  0.00    -0.386 OA
ATOM     11  H   LIG    1       30.856 -18.030   6.348  0.00  0.00    +0.210 HD
ENDBRANCH   4  10
BRANCH   5  12
ATOM     12  O   LIG    1       27.753 -19.779   4.998  0.00  0.00    -0.384 OA
ATOM     13  H   LIG    1       27.861 -20.689   4.647  0.00  0.00    +0.210 HD
ENDBRANCH   5  12
BRANCH   2  14
ATOM     14  C   LIG    1       30.661 -21.862   9.355  0.00  0.00    +0.190 C 
BRANCH  14  15
ATOM     15  O   LIG    1       31.955 -21.285   9.478  0.00  0.00    -0.392 OA
ATOM     16  H   LIG    1       31.875 -20.531  10.081  0.00  0.00    +0.209 HD
ENDBRANCH  14  15
ENDBRANCH   2  14
ENDBRANCH   1   6
BRANCH   1  17
ATOM     17  C   LIG    1       25.481 -21.248   6.321  0.00  0.00    +0.183 C 
ATOM     18  C   LIG    1       25.364 -22.590   5.571  0.00  0.00    +0.179 C 
ATOM     19  C   LIG    1       24.819 -23.683   6.501  0.00  0.00    +0.201 C 
ATOM     20  C   LIG    1       23.484 -23.229   7.126  0.00  0.00    +0.279 C 
ATOM     21  O   LIG    1       23.605 -21.971   7.785  0.00  0.00    -0.341 OA
ATOM     22  C   LIG    1       24.138 -20.884   7.004  0.00  0.00    +0.178 C 
BRANCH  18  23
ATOM     23  O   LIG    1       24.520 -22.461   4.420  0.00  0.00    -0.386 OA
ATOM     24  H   LIG    1       24.868 -23.082   3.751  0.00  0.00    +0.210 HD
ENDBRANCH  18  23
BRANCH  19  25
ATOM     25  O   LIG    1       25.780 -23.993   7.519  0.00  0.00    -0.384 OA
ATOM     26  H   LIG    1       25.429 -24.766   8.013  0.00  0.00    +0.210 HD
ENDBRANCH  19  25
BRANCH  20  27
ATOM     27  O   LIG    1       22.413 -23.211   6.198  0.00  0.00    -0.365 OA
ATOM     28  H   LIG    1       21.649 -23.645   6.629  0.00  0.00    +0.213 HD
ENDBRANCH  20  27
BRANCH  22  29
ATOM     29  C   LIG    1       23.085 -20.297   6.046  0.00  0.00    +0.190 C 
BRANCH  29  30
ATOM     30  O   LIG    1       23.723 -19.738   4.898  0.00  0.00    -0.392 OA
ATOM     31  H   LIG    1       23.097 -19.884   4.160  0.00  0.00    +0.209 HD
ENDBRANCH  29  30
ENDBRANCH  22  29
ENDBRANCH   1  17
TORSDOF 12
ENDMDL
MODEL 2
REMARK VINA RESULT:      -7.7      1.513      1.978
REMARK  Name = *****
REMARK                            x       y       z     vdW  Elec       q    Type
REMARK                         _______ _______ _______ _____ _____    ______ ____
ROOT
ATOM      1  O   LIG    1       27.581 -20.132   7.124  0.00  0.00    -0.340 OA
ENDROOT
BRANCH   1   6
ATOM      2  C   LIG    1       30.787 -21.137   8.396  0.00  0.00    +0.178 C 
ATOM      3  C   LIG    1       31.341 -19.774   8.824  0.00  0.00    +0.177 C 
ATOM      4  C   LIG    1       31.107 -18.794   7.675  0.00  0.00    +0.179 C 
ATOM      5  C   LIG    1       29.630 -18.732   7.266  0.00  0.00    +0.201 C 
ATOM      6  C   LIG    1       29.014 -20.146   7.133  0.00  0.00    +0.282 C 
ATOM      7  O   LIG    1       29.369 -20.995   8.237  0.00  0.00    -0.341 OA
BRANCH   3   8
ATOM      8  O   LIG    1       30.645 -19.263   9.980  0.00  0.00    -0.387 OA
ATOM      9  H   LIG    1       29.737 -19.626   9.956  0.00  0.00    +0.210 HD
ENDBRANCH   3   8
BRANCH   4  10
ATOM     10  O   LIG    1       31.517 -17.469   8.044  0.00  0.00    -0.386 OA
ATOM     11  H   LIG    1       31.547 -16.958   7.207  0.00  0.00    +0.210 HD
ENDBRANCH   4  10
BRANCH   5  12
ATOM     12  O   LIG    1       29.547 -18.002   6.023  0.00  0.00    -0.384 OA
ATOM     13  H   LIG    1       29.850 -17.094   6.242  0.00  0.00    +0.210 HD
ENDBRANCH   5  12
BRANCH   2  14
ATOM     14  C   LIG    1       31.066 -22.233   9.426  0.00  0.00    +0.190 C 
BRANCH  14  15
ATOM     15  O   LIG    1       31.906 -23.234   8.865  0.00  0.00    -0.392 OA
ATOM     16  H   LIG    1       32.756 -22.815   8.665  0.00  0.00    +0.209 HD
ENDBRANCH  14  15
ENDBRANCH   2  14
ENDBRANCH   1   6
BRANCH   1  17
ATOM     17  C   LIG    1       26.894 -21.130   6.343  0.00  0.00    +0.183 C 
ATOM     18  C   LIG    1       26.663 -22.432   7.138  0.00  0.00    +0.179 C 
ATOM     19  C   LIG    1       25.700 -22.186   8.308  0.00  0.00    +0.201 C 
ATOM     20  C   LIG    1       24.389 -21.559   7.793  0.00  0.00    +0.279 C 
ATOM     21  O   LIG    1       24.626 -20.377   7.033  0.00  0.00    -0.341 OA
ATOM     22  C   LIG    1       25.542 -20.495   5.927  0.00  0.00    +0.178 C 
BRANCH  18  23
ATOM     23  O   LIG    1       26.148 -23.464   6.289  0.00  0.00    -0.386 OA
ATOM     24  H   LIG    1       26.908 -24.027   6.044  0.00  0.00    +0.210 HD
ENDBRANCH  18  23
BRANCH  19  25
ATOM     25  O   LIG    1       26.318 -21.343   9.290  0.00  0.00    -0.384 OA
ATOM     26  H   LIG    1       25.974 -21.628  10.164  0.00  0.00    +0.210 HD
ENDBRANCH  19  25
BRANCH  20  27
ATOM     27  O   LIG    1       23.584 -22.472   7.067  0.00  0.00    -0.365 OA
ATOM     28  H   LIG    1       23.082 -22.999   7.721  0.00  0.00    +0.213 HD
ENDBRANCH  20  27
BRANCH  22  29
ATOM     29  C   LIG    1       24.884 -21.165   4.707  0.00  0.00    +0.190 C 
BRANCH  29  30
ATOM     30  O   LIG    1       23.535 -20.719   4.570  0.00  0.00    -0.392 OA
ATOM     31  H   LIG    1       23.115 -20.900   5.436  0.00  0.00    +0.209 HD
ENDBRANCH  29  30
ENDBRANCH  22  29
ENDBRANCH   1  17
TORSDOF 12
ENDMDL
MODEL 3
REMARK VINA RESULT:      -6.9      0.995      2.065
REMARK  Name = *****
REMARK                            x       y       z     vdW  Elec       q    Type
REMARK                         _______ _______ _______ _____ _____    ______ ____
ROOT
ATOM      1  O   LIG    1       26.335 -21.270   7.337  0.00  0.00    -0.340 OA
ENDROOT
BRANCH   1   6
ATOM      2  C   LIG    1       29.845 -21.434   8.084  0.00  0.00    +0.178 C 
ATOM      3  C   LIG    1       30.262 -20.007   7.714  0.00  0.00    +0.177 C 
ATOM      4  C   LIG    1       29.657 -19.685   6.347  0.00  0.00    +0.179 C 
ATOM      5  C   LIG    1       28.136 -19.881   6.334  0.00  0.00    +0.201 C 
ATOM      6  C   LIG    1       27.726 -21.219   6.996  0.00  0.00    +0.282 C 
ATOM      7  O   LIG    1       28.420 -21.441   8.235  0.00  0.00    -0.341 OA
BRANCH   3   8
ATOM      8  O   LIG    1       29.743 -19.046   8.657  0.00  0.00    -0.387 OA
ATOM      9  H   LIG    1       29.413 -19.547   9.429  0.00  0.00    +0.210 HD
ENDBRANCH   3   8
BRANCH   4  10
ATOM     10  O   LIG    1       29.929 -18.324   5.979  0.00  0.00    -0.386 OA
ATOM     11  H   LIG    1       29.163 -18.040   5.435  0.00  0.00    +0.210 HD
ENDBRANCH   4  10
BRANCH   5  12
ATOM     12  O   LIG    1       27.697 -19.818   4.959  0.00  0.00    -0.384 OA
ATOM     13  H   LIG    1       28.125 -19.013   4.594  0.00  0.00    +0.210 HD
ENDBRANCH   5  12
BRANCH   2  14
ATOM     14  C   LIG    1       30.487 -21.912   9.388  0.00  0.00    +0.190 C 
BRANCH  14  15
ATOM     15  O   LIG    1       31.903 -21.799   9.310  0.00  0.00    -0.392 OA
ATOM     16  H   LIG    1       32.098 -21.097   8.672  0.00  0.00    +0.209 HD
ENDBRANCH  14  15
ENDBRANCH   2  14
ENDBRANCH   1   6
BRANCH   1  17
ATOM     17  C   LIG    1       25.513 -22.269   6.703  0.00  0.00    +0.183 C 
ATOM     18  C   LIG    1       24.226 -22.555   7.502  0.00  0.00    +0.179 C 
ATOM     19  C   LIG    1       23.315 -21.319   7.517  0.00  0.00    +0.201 C 
ATOM     20  C   LIG    1       23.033 -20.850   6.075  0.00  0.00    +0.279 C 
ATOM     21  O   LIG    1       24.236 -20.625   5.344  0.00  0.00    -0.341 OA
ATOM     22  C   LIG    1       25.174 -21.717   5.295  0.00  0.00    +0.178 C 
BRANCH  18  23
ATOM     23  O   LIG    1       23.521 -23.675   6.952  0.00  0.00    -0.386 OA
ATOM     24  H   LIG    1       24.145 -24.127   6.351  0.00  0.00    +0.210 HD
ENDBRANCH  18  23
BRANCH  19  25
ATOM     25  O   LIG    1       23.917 -20.269   8.287  0.00  0.00    -0.384 OA
ATOM     26  H   LIG    1       24.789 -20.604   8.589  0.00  0.00    +0.210 HD
ENDBRANCH  19  25
BRANCH  20  27
ATOM     27  O   LIG    1       22.167 -21.721   5.366  0.00  0.00    -0.365 OA
ATOM     28  H   LIG    1       21.416 -21.926   5.958  0.00  0.00    +0.213 HD
ENDBRANCH  20  27
BRANCH  22  29
ATOM     29  C   LIG    1       24.744 -22.796   4.284  0.00  0.00    +0.190 C 
BRANCH  29  30
ATOM     30  O   LIG    1       25.080 -24.092   4.777  0.00  0.00    -0.392 OA
ATOM     31  H   LIG    1       25.094 -24.671   3.988  0.00  0.00    +0.209 HD
ENDBRANCH  29  30
ENDBRANCH  22  29
ENDBRANCH   1  17
TORSDOF 12
ENDMDL
MODEL 4
REMARK VINA RESULT:      -6.4      1.700      6.328
REMARK  Name = *****
REMARK                            x       y       z     vdW  Elec       q    Type
REMARK                         _______ _______ _______ _____ _____    ______ ____
ROOT
ATOM      1  O   LIG    1       28.455 -21.473   8.074  0.00  0.00    -0.340 OA
ENDROOT
BRANCH   1   6
ATOM      2  C   LIG    1       25.687 -23.513   7.030  0.00  0.00    +0.178 C 
ATOM      3  C   LIG    1       24.642 -22.424   6.765  0.00  0.00    +0.177 C 
ATOM      4  C   LIG    1       24.645 -21.473   7.962  0.00  0.00    +0.179 C 
ATOM      5  C   LIG    1       26.041 -20.901   8.235  0.00  0.00    +0.201 C 
ATOM      6  C   LIG    1       27.129 -22.002   8.197  0.00  0.00    +0.282 C 
ATOM      7  O   LIG    1       26.971 -22.876   7.066  0.00  0.00    -0.341 OA
BRANCH   3   8
ATOM      8  O   LIG    1       24.974 -21.650   5.594  0.00  0.00    -0.387 OA
ATOM      9  H   LIG    1       24.146 -21.511   5.093  0.00  0.00    +0.210 HD
ENDBRANCH   3   8
BRANCH   4  10
ATOM     10  O   LIG    1       23.753 -20.371   7.739  0.00  0.00    -0.386 OA
ATOM     11  H   LIG    1       22.850 -20.733   7.870  0.00  0.00    +0.210 HD
ENDBRANCH   4  10
BRANCH   5  12
ATOM     12  O   LIG    1       26.003 -20.242   9.519  0.00  0.00    -0.384 OA
ATOM     13  H   LIG    1       26.766 -19.624   9.509  0.00  0.00    +0.210 HD
ENDBRANCH   5  12
BRANCH   2  14
ATOM     14  C   LIG    1       25.697 -24.592   5.946  0.00  0.00    +0.190 C 
BRANCH  14  15
ATOM     15  O   LIG    1       24.954 -24.159   4.813  0.00  0.00    -0.392 OA
ATOM     16  H   LIG    1       24.042 -24.459   4.938  0.00  0.00    +0.209 HD
ENDBRANCH  14  15
ENDBRANCH   2  14
ENDBRANCH   1   6
BRANCH   1  17
ATOM     17  C   LIG    1       28.612 -20.046   7.953  0.00  0.00    +0.183 C 
ATOM     18  C   LIG    1       29.416 -19.449   9.125  0.00  0.00    +0.179 C 
ATOM     19  C   LIG    1       30.864 -19.958   9.100  0.00  0.00    +0.201 C 
ATOM     20  C   LIG    1       31.504 -19.669   7.727  0.00  0.00    +0.279 C 
ATOM     21  O   LIG    1       30.727 -20.199   6.655  0.00  0.00    -0.341 OA
ATOM     22  C   LIG    1       29.342 -19.805   6.608  0.00  0.00    +0.178 C 
BRANCH  18  23
ATOM     23  O   LIG    1       29.400 -18.017   9.080  0.00  0.00    -0.386 OA
ATOM     24  H   LIG    1       28.534 -17.762   8.706  0.00  0.00    +0.210 HD
ENDBRANCH  18  23
BRANCH  19  25
ATOM     25  O   LIG    1       30.903 -21.361   9.396  0.00  0.00    -0.384 OA
ATOM     26  H   LIG    1       31.270 -21.449  10.302  0.00  0.00    +0.210 HD
ENDBRANCH  19  25
BRANCH  20  27
ATOM     27  O   LIG    1       31.778 -18.294   7.519  0.00  0.00    -0.365 OA
ATOM     28  H   LIG    1       31.055 -17.788   7.942  0.00  0.00    +0.213 HD
ENDBRANCH  20  27
BRANCH  22  29
ATOM     29  C   LIG    1       29.172 -18.382   6.047  0.00  0.00    +0.190 C 
BRANCH  29  30
ATOM     30  O   LIG    1       30.082 -18.166   4.969  0.00  0.00    -0.392 OA
ATOM     31  H   LIG    1       30.712 -18.914   5.010  0.00  0.00    +0.209 HD
ENDBRANCH  29  30
ENDBRANCH  22  29
ENDBRANCH   1  17
TORSDOF 12
ENDMDL
MODEL 5
REMARK VINA RESULT:      -6.1      1.132      2.597
REMARK  Name = *****
REMARK                            x       y       z     vdW  Elec       q    Type
REMARK                         _______ _______ _______ _____ _____    ______ ____
ROOT
ATOM      1  O   LIG    1       27.234 -20.660   6.225  0.00  0.00    -0.340 OA
ENDROOT
BRANCH   1   6
ATOM      2  C   LIG    1       30.247 -21.284   8.080  0.00  0.00    +0.178 C 
ATOM      3  C   LIG    1       30.698 -19.844   8.345  0.00  0.00    +0.177 C 
ATOM      4  C   LIG    1       30.608 -19.077   7.026  0.00  0.00    +0.179 C 
ATOM      5  C   LIG    1       29.205 -19.155   6.412  0.00  0.00    +0.201 C 
ATOM      6  C   LIG    1       28.651 -20.601   6.434  0.00  0.00    +0.282 C 
ATOM      7  O   LIG    1       28.864 -21.240   7.704  0.00  0.00    -0.341 OA
BRANCH   3   8
ATOM      8  O   LIG    1       29.829 -19.187   9.290  0.00  0.00    -0.387 OA
ATOM      9  H   LIG    1       30.240 -19.273  10.172  0.00  0.00    +0.210 HD
ENDBRANCH   3   8
BRANCH   4  10
ATOM     10  O   LIG    1       30.926 -17.690   7.221  0.00  0.00    -0.386 OA
ATOM     11  H   LIG    1       30.068 -17.215   7.185  0.00  0.00    +0.210 HD
ENDBRANCH   4  10
BRANCH   5  12
ATOM     12  O   LIG    1       29.285 -18.643   5.064  0.00  0.00    -0.384 OA
ATOM     13  H   LIG    1       29.026 -19.397   4.492  0.00  0.00    +0.210 HD
ENDBRANCH   5  12
BRANCH   2  14
ATOM     14  C   LIG    1       30.402 -22.182   9.308  0.00  0.00    +0.190 C 
BRANCH  14  15
ATOM     15  O   LIG    1       31.712 -22.056   9.849  0.00  0.00    -0.392 OA
ATOM     16  H   LIG    1       32.285 -22.657   9.350  0.00  0.00    +0.209 HD
ENDBRANCH  14  15
ENDBRANCH   2  14
ENDBRANCH   1   6
BRANCH   1  17
ATOM     17  C   LIG    1       26.443 -21.451   7.132  0.00  0.00    +0.183 C 
ATOM     18  C   LIG    1       25.093 -20.781   7.460  0.00  0.00    +0.179 C 
ATOM     19  C   LIG    1       24.210 -20.707   6.207  0.00  0.00    +0.201 C 
ATOM     20  C   LIG    1       24.047 -22.111   5.589  0.00  0.00    +0.279 C 
ATOM     21  O   LIG    1       25.306 -22.726   5.325  0.00  0.00    -0.341 OA
ATOM     22  C   LIG    1       26.222 -22.816   6.433  0.00  0.00    +0.178 C 
BRANCH  18  23
ATOM     23  O   LIG    1       24.409 -21.492   8.500  0.00  0.00    -0.386 OA
ATOM     24  H   LIG    1       25.075 -21.684   9.189  0.00  0.00    +0.210 HD
ENDBRANCH  18  23
BRANCH  19  25
ATOM     25  O   LIG    1       24.772 -19.793   5.256  0.00  0.00    -0.384 OA
ATOM     26  H   LIG    1       25.547 -19.375   5.691  0.00  0.00    +0.210 HD
ENDBRANCH  19  25
BRANCH  20  27
ATOM     27  O   LIG    1       23.220 -22.966   6.360  0.00  0.00    -0.365 OA
ATOM     28  H   LIG    1       23.235 -23.846   5.932  0.00  0.00    +0.213 HD
ENDBRANCH  20  27
BRANCH  22  29
ATOM     29  C   LIG    1       25.848 -23.960   7.393  0.00  0.00    +0.190 C 
BRANCH  29  30
ATOM     30  O   LIG    1       25.461 -25.117   6.652  0.00  0.00    -0.392 OA
ATOM     31  H   LIG    1       26.227 -25.724   6.706  0.00  0.00    +0.209 HD
ENDBRANCH  29  30
ENDBRANCH  22  29
ENDBRANCH   1  17
TORSDOF 12
ENDMDL
MODEL 6
REMARK VINA RESULT:      -6.1      1.749      6.541
REMARK  Name = *****
REMARK                            x       y       z     vdW  Elec       q    Type
REMARK                         _______ _______ _______ _____ _____    ______ ____
ROOT
ATOM      1  O   LIG    1       27.151 -19.746   7.638  0.00  0.00    -0.340 OA
ENDROOT
BRANCH   1   6
ATOM      2  C   LIG    1       24.965 -21.184   5.176  0.00  0.00    +0.178 C 
ATOM      3  C   LIG    1       23.661 -21.239   5.979  0.00  0.00    +0.177 C 
ATOM      4  C   LIG    1       23.981 -21.842   7.347  0.00  0.00    +0.179 C 
ATOM      5  C   LIG    1       25.091 -21.069   8.069  0.00  0.00    +0.201 C 
ATOM      6  C   LIG    1       26.283 -20.766   7.128  0.00  0.00    +0.282 C 
ATOM      7  O   LIG    1       25.847 -20.276   5.849  0.00  0.00    -0.341 OA
BRANCH   3   8
ATOM      8  O   LIG    1       23.126 -19.918   6.202  0.00  0.00    -0.387 OA
ATOM      9  H   LIG    1       23.872 -19.289   6.153  0.00  0.00    +0.210 HD
ENDBRANCH   3   8
BRANCH   4  10
ATOM     10  O   LIG    1       22.819 -21.837   8.190  0.00  0.00    -0.386 OA
ATOM     11  H   LIG    1       22.378 -22.700   8.035  0.00  0.00    +0.210 HD
ENDBRANCH   4  10
BRANCH   5  12
ATOM     12  O   LIG    1       25.506 -21.855   9.207  0.00  0.00    -0.384 OA
ATOM     13  H   LIG    1       25.197 -21.348   9.990  0.00  0.00    +0.210 HD
ENDBRANCH   5  12
BRANCH   2  14
ATOM     14  C   LIG    1       24.750 -20.699   3.741  0.00  0.00    +0.190 C 
BRANCH  14  15
ATOM     15  O   LIG    1       25.725 -19.721   3.400  0.00  0.00    -0.392 OA
ATOM     16  H   LIG    1       26.028 -19.921   2.502  0.00  0.00    +0.209 HD
ENDBRANCH  14  15
ENDBRANCH   2  14
ENDBRANCH   1   6
BRANCH   1  17
ATOM     17  C   LIG    1       28.414 -20.146   8.204  0.00  0.00    +0.183 C 
ATOM     18  C   LIG    1       29.194 -21.095   7.272  0.00  0.00    +0.179 C 
ATOM     19  C   LIG    1       29.607 -20.367   5.985  0.00  0.00    +0.201 C 
ATOM     20  C   LIG    1       30.395 -19.088   6.330  0.00  0.00    +0.279 C 
ATOM     21  O   LIG    1       29.672 -18.240   7.219  0.00  0.00    -0.341 OA
ATOM     22  C   LIG    1       29.211 -18.839   8.446  0.00  0.00    +0.178 C 
BRANCH  18  23
ATOM     23  O   LIG    1       30.353 -21.621   7.930  0.00  0.00    -0.386 OA
ATOM     24  H   LIG    1       31.044 -20.934   7.865  0.00  0.00    +0.210 HD
ENDBRANCH  18  23
BRANCH  19  25
ATOM     25  O   LIG    1       28.450 -20.058   5.196  0.00  0.00    -0.384 OA
ATOM     26  H   LIG    1       27.708 -19.921   5.824  0.00  0.00    +0.210 HD
ENDBRANCH  19  25
BRANCH  20  27
ATOM     27  O   LIG    1       31.695 -19.352   6.830  0.00  0.00    -0.365 OA
ATOM     28  H   LIG    1       32.097 -20.027   6.247  0.00  0.00    +0.213 HD
ENDBRANCH  20  27
BRANCH  22  29
ATOM     29  C   LIG    1       30.346 -18.977   9.477  0.00  0.00    +0.190 C 
BRANCH  29  30
ATOM     30  O   LIG    1       30.048 -18.208  10.642  0.00  0.00    -0.392 OA
ATOM     31  H   LIG    1       30.550 -17.375  10.536  0.00  0.00    +0.209 HD
ENDBRANCH  29  30
ENDBRANCH  22  29
ENDBRANCH   1  17
TORSDOF 12
ENDMDL
MODEL 7
REMARK VINA RESULT:      -5.8      1.481      3.524
REMARK  Name = *****
REMARK                            x       y       z     vdW  Elec       q    Type
REMARK                         _______ _______ _______ _____ _____    ______ ____
ROOT
ATOM      1  O   LIG    1       27.738 -21.841   7.158  0.00  0.00    -0.340 OA
ENDROOT
BRANCH   1   6
ATOM      2  C   LIG    1       29.633 -18.807   7.489  0.00  0.00    +0.178 C 
ATOM      3  C   LIG    1       31.020 -19.391   7.776  0.00  0.00    +0.177 C 
ATOM      4  C   LIG    1       30.860 -20.463   8.854  0.00  0.00    +0.179 C 
ATOM      5  C   LIG    1       29.838 -21.533   8.452  0.00  0.00    +0.201 C 
ATOM      6  C   LIG    1       28.546 -20.902   7.878  0.00  0.00    +0.282 C 
ATOM      7  O   LIG    1       28.830 -19.857   6.933  0.00  0.00    -0.341 OA
BRANCH   3   8
ATOM      8  O   LIG    1       31.573 -20.030   6.607  0.00  0.00    -0.387 OA
ATOM      9  H   LIG    1       31.143 -19.629   5.826  0.00  0.00    +0.210 HD
ENDBRANCH   3   8
BRANCH   4  10
ATOM     10  O   LIG    1       32.111 -21.122   9.106  0.00  0.00    -0.386 OA
ATOM     11  H   LIG    1       32.262 -21.039  10.073  0.00  0.00    +0.210 HD
ENDBRANCH   4  10
BRANCH   5  12
ATOM     12  O   LIG    1       29.559 -22.336   9.619  0.00  0.00    -0.384 OA
ATOM     13  H   LIG    1       28.860 -21.844  10.103  0.00  0.00    +0.210 HD
ENDBRANCH   5  12
BRANCH   2  14
ATOM     14  C   LIG    1       29.681 -17.640   6.502  0.00  0.00    +0.190 C 
BRANCH  14  15
ATOM     15  O   LIG    1       29.765 -18.127   5.168  0.00  0.00    -0.392 OA
ATOM     16  H   LIG    1       29.858 -19.089   5.221  0.00  0.00    +0.209 HD
ENDBRANCH  14  15
ENDBRANCH   2  14
ENDBRANCH   1   6
BRANCH   1  17
ATOM     17  C   LIG    1       26.358 -21.993   7.545  0.00  0.00    +0.183 C 
ATOM     18  C   LIG    1       25.538 -20.713   7.285  0.00  0.00    +0.179 C 
ATOM     19  C   LIG    1       25.445 -20.429   5.779  0.00  0.00    +0.201 C 
ATOM     20  C   LIG    1       24.881 -21.661   5.042  0.00  0.00    +0.279 C 
ATOM     21  O   LIG    1       25.632 -22.839   5.322  0.00  0.00    -0.341 OA
ATOM     22  C   LIG    1       25.804 -23.177   6.712  0.00  0.00    +0.178 C 
BRANCH  18  23
ATOM     23  O   LIG    1       24.224 -20.825   7.844  0.00  0.00    -0.386 OA
ATOM     24  H   LIG    1       23.615 -20.399   7.209  0.00  0.00    +0.210 HD
ENDBRANCH  18  23
BRANCH  19  25
ATOM     25  O   LIG    1       26.732 -20.069   5.261  0.00  0.00    -0.384 OA
ATOM     26  H   LIG    1       26.669 -20.125   4.283  0.00  0.00    +0.210 HD
ENDBRANCH  19  25
BRANCH  20  27
ATOM     27  O   LIG    1       23.501 -21.872   5.286  0.00  0.00    -0.365 OA
ATOM     28  H   LIG    1       23.429 -22.627   5.904  0.00  0.00    +0.213 HD
ENDBRANCH  20  27
BRANCH  22  29
ATOM     29  C   LIG    1       24.540 -23.824   7.305  0.00  0.00    +0.190 C 
BRANCH  29  30
ATOM     30  O   LIG    1       23.854 -24.573   6.301  0.00  0.00    -0.392 OA
ATOM     31  H   LIG    1       22.915 -24.570   6.576  0.00  0.00    +0.209 HD
ENDBRANCH  29  30
ENDBRANCH  22  29
ENDBRANCH   1  17
TORSDOF 12
ENDMDL
MODEL 8
REMARK VINA RESULT:      -5.7      1.698      6.855
REMARK  Name = *****
REMARK                            x       y       z     vdW  Elec       q    Type
REMARK                         _______ _______ _______ _____ _____    ______ ____
ROOT
ATOM      1  O   LIG    1       28.250 -19.927   7.212  0.00  0.00    -0.340 OA
ENDROOT
BRANCH   1   6
ATOM      2  C   LIG    1       25.584 -20.954   5.033  0.00  0.00    +0.178 C 
ATOM      3  C   LIG    1       24.439 -21.057   6.046  0.00  0.00    +0.177 C 
ATOM      4  C   LIG    1       24.954 -21.841   7.253  0.00  0.00    +0.179 C 
ATOM      5  C   LIG    1       26.218 -21.210   7.849  0.00  0.00    +0.201 C 
ATOM      6  C   LIG    1       27.244 -20.839   6.751  0.00  0.00    +0.282 C 
ATOM      7  O   LIG    1       26.624 -20.174   5.637  0.00  0.00    -0.341 OA
BRANCH   3   8
ATOM      8  O   LIG    1       24.033 -19.754   6.514  0.00  0.00    -0.387 OA
ATOM      9  H   LIG    1       23.398 -19.397   5.863  0.00  0.00    +0.210 HD
ENDBRANCH   3   8
BRANCH   4  10
ATOM     10  O   LIG    1       23.959 -21.895   8.287  0.00  0.00    -0.386 OA
ATOM     11  H   LIG    1       24.105 -22.748   8.749  0.00  0.00    +0.210 HD
ENDBRANCH   4  10
BRANCH   5  12
ATOM     12  O   LIG    1       26.775 -22.149   8.794  0.00  0.00    -0.384 OA
ATOM     13  H   LIG    1       26.412 -23.021   8.528  0.00  0.00    +0.210 HD
ENDBRANCH   5  12
BRANCH   2  14
ATOM     14  C   LIG    1       25.153 -20.284   3.727  0.00  0.00    +0.190 C 
BRANCH  14  15
ATOM     15  O   LIG    1       25.879 -19.077   3.530  0.00  0.00    -0.392 OA
ATOM     16  H   LIG    1       26.237 -19.103   2.630  0.00  0.00    +0.209 HD
ENDBRANCH  14  15
ENDBRANCH   2  14
ENDBRANCH   1   6
BRANCH   1  17
ATOM     17  C   LIG    1       29.627 -20.347   7.159  0.00  0.00    +0.183 C 
ATOM     18  C   LIG    1       30.577 -19.183   6.814  0.00  0.00    +0.179 C 
ATOM     19  C   LIG    1       30.578 -18.137   7.938  0.00  0.00    +0.201 C 
ATOM     20  C   LIG    1       30.918 -18.806   9.284  0.00  0.00    +0.279 C 
ATOM     21  O   LIG    1       30.050 -19.901   9.568  0.00  0.00    -0.341 OA
ATOM     22  C   LIG    1       29.955 -20.925   8.560  0.00  0.00    +0.178 C 
BRANCH  18  23
ATOM     23  O   LIG    1       31.909 -19.659   6.588  0.00  0.00    -0.386 OA
ATOM     24  H   LIG    1       32.405 -19.498   7.414  0.00  0.00    +0.210 HD
ENDBRANCH  18  23
BRANCH  19  25
ATOM     25  O   LIG    1       29.307 -17.476   8.002  0.00  0.00    -0.384 OA
ATOM     26  H   LIG    1       29.326 -16.762   7.327  0.00  0.00    +0.210 HD
ENDBRANCH  19  25
BRANCH  20  27
ATOM     27  O   LIG    1       32.276 -19.200   9.384  0.00  0.00    -0.365 OA
ATOM     28  H   LIG    1       32.777 -18.679   8.724  0.00  0.00    +0.213 HD
ENDBRANCH  20  27
BRANCH  22  29
ATOM     29  C   LIG    1       31.173 -21.866   8.581  0.00  0.00    +0.190 C 
BRANCH  29  30
ATOM     30  O   LIG    1       31.575 -22.118   9.928  0.00  0.00    -0.392 OA
ATOM     31  H   LIG    1       32.334 -21.521  10.085  0.00  0.00    +0.209 HD
ENDBRANCH  29  30
ENDBRANCH  22  29
ENDBRANCH   1  17
TORSDOF 12
ENDMDL
MODEL 9
REMARK VINA RESULT:      -5.6      1.871      2.533
REMARK  Name = *****
REMARK                            x       y       z     vdW  Elec       q    Type
REMARK                         _______ _______ _______ _____ _____    ______ ____
ROOT
ATOM      1  O   LIG    1       27.256 -19.991   7.756  0.00  0.00    -0.340 OA
ENDROOT
BRANCH   1   6
ATOM      2  C   LIG    1       30.078 -18.828   9.650  0.00  0.00    +0.178 C 
ATOM      3  C   LIG    1       31.088 -18.615   8.517  0.00  0.00    +0.177 C 
ATOM      4  C   LIG    1       31.063 -19.859   7.630  0.00  0.00    +0.179 C 
ATOM      5  C   LIG    1       29.652 -20.169   7.117  0.00  0.00    +0.201 C 
ATOM      6  C   LIG    1       28.599 -20.080   8.249  0.00  0.00    +0.282 C 
ATOM      7  O   LIG    1       28.775 -18.905   9.057  0.00  0.00    -0.341 OA
BRANCH   3   8
ATOM      8  O   LIG    1       30.723 -17.487   7.695  0.00  0.00    -0.387 OA
ATOM      9  H   LIG    1       31.113 -17.634   6.811  0.00  0.00    +0.210 HD
ENDBRANCH   3   8
BRANCH   4  10
ATOM     10  O   LIG    1       31.919 -19.689   6.490  0.00  0.00    -0.386 OA
ATOM     11  H   LIG    1       31.625 -20.359   5.837  0.00  0.00    +0.210 HD
ENDBRANCH   4  10
BRANCH   5  12
ATOM     12  O   LIG    1       29.678 -21.485   6.524  0.00  0.00    -0.384 OA
ATOM     13  H   LIG    1       29.795 -22.101   7.280  0.00  0.00    +0.210 HD
ENDBRANCH   5  12
BRANCH   2  14
ATOM     14  C   LIG    1       30.095 -17.690  10.672  0.00  0.00    +0.190 C 
BRANCH  14  15
ATOM     15  O   LIG    1       30.047 -16.433  10.010  0.00  0.00    -0.392 OA
ATOM     16  H   LIG    1       30.723 -15.870  10.415  0.00  0.00    +0.209 HD
ENDBRANCH  14  15
ENDBRANCH   2  14
ENDBRANCH   1   6
BRANCH   1  17
ATOM     17  C   LIG    1       26.821 -20.961   6.783  0.00  0.00    +0.183 C 
ATOM     18  C   LIG    1       26.537 -22.336   7.420  0.00  0.00    +0.179 C 
ATOM     19  C   LIG    1       25.342 -22.250   8.379  0.00  0.00    +0.201 C 
ATOM     20  C   LIG    1       24.116 -21.665   7.648  0.00  0.00    +0.279 C 
ATOM     21  O   LIG    1       24.409 -20.411   7.038  0.00  0.00    -0.341 OA
ATOM     22  C   LIG    1       25.535 -20.379   6.141  0.00  0.00    +0.178 C 
BRANCH  18  23
ATOM     23  O   LIG    1       26.286 -23.324   6.413  0.00  0.00    -0.386 OA
ATOM     24  H   LIG    1       25.933 -22.845   5.637  0.00  0.00    +0.210 HD
ENDBRANCH  18  23
BRANCH  19  25
ATOM     25  O   LIG    1       25.681 -21.455   9.524  0.00  0.00    -0.384 OA
ATOM     26  H   LIG    1       25.154 -21.804  10.276  0.00  0.00    +0.210 HD
ENDBRANCH  19  25
BRANCH  20  27
ATOM     27  O   LIG    1       23.548 -22.563   6.710  0.00  0.00    -0.365 OA
ATOM     28  H   LIG    1       23.437 -22.072   5.871  0.00  0.00    +0.213 HD
ENDBRANCH  20  27
BRANCH  22  29
ATOM     29  C   LIG    1       25.191 -20.983   4.768  0.00  0.00    +0.190 C 
BRANCH  29  30
ATOM     30  O   LIG    1       23.865 -20.616   4.387  0.00  0.00    -0.392 OA
ATOM     31  H   LIG    1       23.902 -20.487   3.417  0.00  0.00    +0.209 HD
ENDBRANCH  29  30
ENDBRANCH  22  29
ENDBRANCH   1  17
TORSDOF 12
ENDMDL
