MODEL 1
REMARK VINA RESULT:      -4.9      0.000      0.000
REMARK  Name = *****
REMARK                            x       y       z     vdW  Elec       q    Type
REMARK                         _______ _______ _______ _____ _____    ______ ____
ROOT
ATOM      1  N   LIG    1       26.097 -16.014   3.552  0.00  0.00    -0.314 N 
ENDROOT
BRANCH   1   2
ATOM      2  C   LIG    1       25.377 -14.834   3.375  0.00  0.00    +0.030 A 
ATOM      3  C   LIG    1       25.553 -14.007   2.249  0.00  0.00    +0.023 A 
ATOM      4  C   LIG    1       24.832 -12.816   2.064  0.00  0.00    +0.002 A 
ATOM      5  C   LIG    1       23.904 -12.410   3.009  0.00  0.00    +0.000 A 
ATOM      6  C   LIG    1       23.703 -13.193   4.136  0.00  0.00    +0.002 A 
ATOM      7  C   LIG    1       24.433 -14.377   4.312  0.00  0.00    +0.023 A 
ENDBRANCH   1   2
BRANCH   1   8
ATOM      8  C   LIG    1       25.778 -17.269   2.850  0.00  0.00    +0.140 C 
BRANCH   8  12
ATOM      9  C   LIG    1       23.228 -19.937   5.115  0.00  0.00    +0.000 A 
ATOM     10  C   LIG    1       22.701 -18.758   4.594  0.00  0.00    +0.000 A 
ATOM     11  C   LIG    1       23.514 -17.889   3.858  0.00  0.00    +0.005 A 
ATOM     12  C   LIG    1       24.869 -18.182   3.646  0.00  0.00    -0.030 A 
ATOM     13  C   LIG    1       25.376 -19.389   4.158  0.00  0.00    +0.005 A 
ATOM     14  C   LIG    1       24.564 -20.258   4.889  0.00  0.00    +0.000 A 
ENDBRANCH   8  12
ENDBRANCH   1   8
BRANCH   1  15
ATOM     15  C   LIG    1       27.440 -15.983   4.186  0.00  0.00    +0.233 C 
BRANCH  15  16
ATOM     16  C   LIG    1       27.914 -14.546   4.395  0.00  0.00    +0.298 C 
ATOM     17  N   LIG    1       28.713 -13.906   3.466  0.00  0.00    -0.232 N 
ATOM     18  H   LIG    1       28.506 -14.169   2.508  0.00  0.00    +0.291 HD
ATOM     19  C   LIG    1       28.691 -12.496   3.775  0.00  0.00    +0.273 C 
ATOM     20  C   LIG    1       28.217 -12.520   5.233  0.00  0.00    +0.333 C 
ATOM     21  N   LIG    1       27.585 -13.855   5.457  0.00  0.00    -0.082 NA
ENDBRANCH  15  16
ENDBRANCH   1  15
TORSDOF 5
ENDMDL
MODEL 2
REMARK VINA RESULT:      -4.4      2.502      6.468
REMARK  Name = *****
REMARK                            x       y       z     vdW  Elec       q    Type
REMARK                         _______ _______ _______ _____ _____    ______ ____
ROOT
ATOM      1  N   LIG    1       26.393 -18.599   3.822  0.00  0.00    -0.314 N 
ENDROOT
BRANCH   1   2
ATOM      2  C   LIG    1       27.312 -18.918   4.820  0.00  0.00    +0.030 A 
ATOM      3  C   LIG    1       28.543 -18.246   4.951  0.00  0.00    +0.023 A 
ATOM      4  C   LIG    1       29.475 -18.562   5.952  0.00  0.00    +0.002 A 
ATOM      5  C   LIG    1       29.204 -19.571   6.862  0.00  0.00    +0.000 A 
ATOM      6  C   LIG    1       28.005 -20.261   6.765  0.00  0.00    +0.002 A 
ATOM      7  C   LIG    1       27.085 -19.940   5.758  0.00  0.00    +0.023 A 
ENDBRANCH   1   2
BRANCH   1   8
ATOM      8  C   LIG    1       26.554 -17.453   2.909  0.00  0.00    +0.140 C 
BRANCH   8  12
ATOM      9  C   LIG    1       25.658 -13.644   4.762  0.00  0.00    +0.000 A 
ATOM     10  C   LIG    1       26.982 -14.058   4.645  0.00  0.00    +0.000 A 
ATOM     11  C   LIG    1       27.285 -15.285   4.045  0.00  0.00    +0.005 A 
ATOM     12  C   LIG    1       26.265 -16.121   3.569  0.00  0.00    -0.030 A 
ATOM     13  C   LIG    1       24.936 -15.674   3.672  0.00  0.00    +0.005 A 
ATOM     14  C   LIG    1       24.635 -14.448   4.267  0.00  0.00    +0.000 A 
ENDBRANCH   8  12
ENDBRANCH   1   8
BRANCH   1  15
ATOM     15  C   LIG    1       25.380 -19.596   3.390  0.00  0.00    +0.233 C 
BRANCH  15  16
ATOM     16  C   LIG    1       24.062 -19.395   4.137  0.00  0.00    +0.298 C 
ATOM     17  N   LIG    1       23.199 -18.363   3.815  0.00  0.00    -0.232 N 
ATOM     18  H   LIG    1       23.185 -18.146   2.825  0.00  0.00    +0.291 HD
ATOM     19  C   LIG    1       21.931 -18.651   4.440  0.00  0.00    +0.273 C 
ATOM     20  C   LIG    1       22.352 -19.659   5.516  0.00  0.00    +0.333 C 
ATOM     21  N   LIG    1       23.689 -20.186   5.109  0.00  0.00    -0.082 NA
ENDBRANCH  15  16
ENDBRANCH   1  15
TORSDOF 5
ENDMDL
MODEL 3
REMARK VINA RESULT:      -4.3      2.487      6.391
REMARK  Name = *****
REMARK                            x       y       z     vdW  Elec       q    Type
REMARK                         _______ _______ _______ _____ _____    ______ ____
ROOT
ATOM      1  N   LIG    1       26.431 -18.544   3.808  0.00  0.00    -0.314 N 
ENDROOT
BRANCH   1   2
ATOM      2  C   LIG    1       27.325 -18.880   4.823  0.00  0.00    +0.030 A 
ATOM      3  C   LIG    1       28.558 -18.218   4.990  0.00  0.00    +0.023 A 
ATOM      4  C   LIG    1       29.464 -18.552   6.009  0.00  0.00    +0.002 A 
ATOM      5  C   LIG    1       29.164 -19.568   6.902  0.00  0.00    +0.000 A 
ATOM      6  C   LIG    1       27.964 -20.249   6.770  0.00  0.00    +0.002 A 
ATOM      7  C   LIG    1       27.069 -19.911   5.745  0.00  0.00    +0.023 A 
ENDBRANCH   1   2
BRANCH   1   8
ATOM      8  C   LIG    1       26.632 -17.403   2.898  0.00  0.00    +0.140 C 
BRANCH   8  12
ATOM      9  C   LIG    1       25.682 -13.592   4.722  0.00  0.00    +0.000 A 
ATOM     10  C   LIG    1       24.653 -14.414   4.267  0.00  0.00    +0.000 A 
ATOM     11  C   LIG    1       24.947 -15.649   3.678  0.00  0.00    +0.005 A 
ATOM     12  C   LIG    1       26.275 -16.071   3.524  0.00  0.00    -0.030 A 
ATOM     13  C   LIG    1       27.299 -15.240   4.013  0.00  0.00    +0.005 A 
ATOM     14  C   LIG    1       27.005 -14.009   4.603  0.00  0.00    +0.000 A 
ENDBRANCH   8  12
ENDBRANCH   1   8
BRANCH   1  15
ATOM     15  C   LIG    1       25.408 -19.522   3.357  0.00  0.00    +0.233 C 
BRANCH  15  16
ATOM     16  C   LIG    1       24.097 -19.330   4.119  0.00  0.00    +0.298 C 
ATOM     17  N   LIG    1       23.231 -18.295   3.819  0.00  0.00    -0.232 N 
ATOM     18  H   LIG    1       23.207 -18.064   2.831  0.00  0.00    +0.291 HD
ATOM     19  C   LIG    1       21.968 -18.591   4.452  0.00  0.00    +0.273 C 
ATOM     20  C   LIG    1       22.400 -19.612   5.511  0.00  0.00    +0.333 C 
ATOM     21  N   LIG    1       23.733 -20.134   5.085  0.00  0.00    -0.082 NA
ENDBRANCH  15  16
ENDBRANCH   1  15
TORSDOF 5
ENDMDL
MODEL 4
REMARK VINA RESULT:      -3.8      1.551      3.394
REMARK  Name = *****
REMARK                            x       y       z     vdW  Elec       q    Type
REMARK                         _______ _______ _______ _____ _____    ______ ____
ROOT
ATOM      1  N   LIG    1       25.708 -15.418   3.513  0.00  0.00    -0.314 N 
ENDROOT
BRANCH   1   2
ATOM      2  C   LIG    1       26.674 -14.500   3.922  0.00  0.00    +0.030 A 
ATOM      3  C   LIG    1       26.740 -14.017   5.244  0.00  0.00    +0.023 A 
ATOM      4  C   LIG    1       27.709 -13.092   5.663  0.00  0.00    +0.002 A 
ATOM      5  C   LIG    1       28.651 -12.615   4.766  0.00  0.00    +0.000 A 
ATOM      6  C   LIG    1       28.618 -13.061   3.453  0.00  0.00    +0.002 A 
ATOM      7  C   LIG    1       27.642 -13.981   3.045  0.00  0.00    +0.023 A 
ENDBRANCH   1   2
BRANCH   1   8
ATOM      8  C   LIG    1       26.004 -16.835   3.238  0.00  0.00    +0.140 C 
BRANCH   8  12
ATOM      9  C   LIG    1       22.883 -19.570   4.476  0.00  0.00    +0.000 A 
ATOM     10  C   LIG    1       22.628 -18.200   4.448  0.00  0.00    +0.000 A 
ATOM     11  C   LIG    1       23.627 -17.307   4.047  0.00  0.00    +0.005 A 
ATOM     12  C   LIG    1       24.899 -17.771   3.683  0.00  0.00    -0.030 A 
ATOM     13  C   LIG    1       25.129 -19.158   3.693  0.00  0.00    +0.005 A 
ATOM     14  C   LIG    1       24.131 -20.049   4.090  0.00  0.00    +0.000 A 
ENDBRANCH   8  12
ENDBRANCH   1   8
BRANCH   1  15
ATOM     15  C   LIG    1       24.264 -15.106   3.671  0.00  0.00    +0.233 C 
BRANCH  15  16
ATOM     16  C   LIG    1       24.007 -13.609   3.508  0.00  0.00    +0.298 C 
ATOM     17  N   LIG    1       23.597 -12.826   4.571  0.00  0.00    -0.232 N 
ATOM     18  H   LIG    1       23.995 -13.113   5.459  0.00  0.00    +0.291 HD
ATOM     19  C   LIG    1       23.780 -11.447   4.187  0.00  0.00    +0.273 C 
ATOM     20  C   LIG    1       23.851 -11.571   2.661  0.00  0.00    +0.333 C 
ATOM     21  N   LIG    1       24.165 -13.000   2.361  0.00  0.00    -0.082 NA
ENDBRANCH  15  16
ENDBRANCH   1  15
TORSDOF 5
ENDMDL
MODEL 5
REMARK VINA RESULT:      -3.7      2.155      3.232
REMARK  Name = *****
REMARK                            x       y       z     vdW  Elec       q    Type
REMARK                         _______ _______ _______ _____ _____    ______ ____
ROOT
ATOM      1  N   LIG    1       26.381 -17.251   3.613  0.00  0.00    -0.314 N 
ENDROOT
BRANCH   1   2
ATOM      2  C   LIG    1       25.804 -15.997   3.804  0.00  0.00    +0.030 A 
ATOM      3  C   LIG    1       26.573 -14.819   3.884  0.00  0.00    +0.023 A 
ATOM      4  C   LIG    1       25.999 -13.553   4.079  0.00  0.00    +0.002 A 
ATOM      5  C   LIG    1       24.625 -13.422   4.201  0.00  0.00    +0.000 A 
ATOM      6  C   LIG    1       23.832 -14.557   4.134  0.00  0.00    +0.002 A 
ATOM      7  C   LIG    1       24.417 -15.817   3.945  0.00  0.00    +0.023 A 
ENDBRANCH   1   2
BRANCH   1   8
ATOM      8  C   LIG    1       25.664 -18.388   3.010  0.00  0.00    +0.140 C 
BRANCH   8  12
ATOM      9  C   LIG    1       22.694 -20.133   5.635  0.00  0.00    +0.000 A 
ATOM     10  C   LIG    1       22.310 -19.171   4.702  0.00  0.00    +0.000 A 
ATOM     11  C   LIG    1       23.260 -18.603   3.847  0.00  0.00    +0.005 A 
ATOM     12  C   LIG    1       24.608 -18.978   3.923  0.00  0.00    -0.030 A 
ATOM     13  C   LIG    1       24.972 -19.967   4.853  0.00  0.00    +0.005 A 
ATOM     14  C   LIG    1       24.024 -20.537   5.704  0.00  0.00    +0.000 A 
ENDBRANCH   8  12
ENDBRANCH   1   8
BRANCH   1  15
ATOM     15  C   LIG    1       27.856 -17.414   3.678  0.00  0.00    +0.233 C 
BRANCH  15  16
ATOM     16  C   LIG    1       28.257 -18.302   4.855  0.00  0.00    +0.298 C 
ATOM     17  N   LIG    1       27.717 -19.564   5.025  0.00  0.00    -0.232 N 
ATOM     18  H   LIG    1       27.534 -20.044   4.150  0.00  0.00    +0.291 HD
ATOM     19  C   LIG    1       28.534 -20.256   5.992  0.00  0.00    +0.273 C 
ATOM     20  C   LIG    1       29.244 -19.081   6.676  0.00  0.00    +0.333 C 
ATOM     21  N   LIG    1       29.125 -17.913   5.752  0.00  0.00    -0.082 NA
ENDBRANCH  15  16
ENDBRANCH   1  15
TORSDOF 5
ENDMDL
MODEL 6
REMARK VINA RESULT:      -3.5      1.386      5.508
REMARK  Name = *****
REMARK                            x       y       z     vdW  Elec       q    Type
REMARK                         _______ _______ _______ _____ _____    ______ ____
ROOT
ATOM      1  N   LIG    1       26.448 -15.658   3.785  0.00  0.00    -0.314 N 
ENDROOT
BRANCH   1   2
ATOM      2  C   LIG    1       27.243 -14.569   4.140  0.00  0.00    +0.030 A 
ATOM      3  C   LIG    1       27.178 -13.975   5.415  0.00  0.00    +0.023 A 
ATOM      4  C   LIG    1       27.974 -12.878   5.779  0.00  0.00    +0.002 A 
ATOM      5  C   LIG    1       28.869 -12.334   4.871  0.00  0.00    +0.000 A 
ATOM      6  C   LIG    1       28.960 -12.886   3.603  0.00  0.00    +0.002 A 
ATOM      7  C   LIG    1       28.156 -13.978   3.249  0.00  0.00    +0.023 A 
ENDBRANCH   1   2
BRANCH   1   8
ATOM      8  C   LIG    1       25.016 -15.542   3.458  0.00  0.00    +0.140 C 
BRANCH   8  12
ATOM      9  C   LIG    1       23.667 -11.450   3.025  0.00  0.00    +0.000 A 
ATOM     10  C   LIG    1       24.217 -12.114   1.931  0.00  0.00    +0.000 A 
ATOM     11  C   LIG    1       24.654 -13.437   2.057  0.00  0.00    +0.005 A 
ATOM     12  C   LIG    1       24.559 -14.108   3.284  0.00  0.00    -0.030 A 
ATOM     13  C   LIG    1       23.977 -13.431   4.370  0.00  0.00    +0.005 A 
ATOM     14  C   LIG    1       23.538 -12.112   4.243  0.00  0.00    +0.000 A 
ENDBRANCH   8  12
ENDBRANCH   1   8
BRANCH   1  15
ATOM     15  C   LIG    1       27.074 -16.940   3.372  0.00  0.00    +0.233 C 
BRANCH  15  16
ATOM     16  C   LIG    1       26.151 -18.121   3.671  0.00  0.00    +0.298 C 
ATOM     17  N   LIG    1       26.600 -19.233   4.359  0.00  0.00    -0.232 N 
ATOM     18  H   LIG    1       27.285 -19.013   5.075  0.00  0.00    +0.291 HD
ATOM     19  C   LIG    1       25.438 -19.982   4.774  0.00  0.00    +0.273 C 
ATOM     20  C   LIG    1       24.374 -19.430   3.819  0.00  0.00    +0.333 C 
ATOM     21  N   LIG    1       24.899 -18.134   3.294  0.00  0.00    -0.082 NA
ENDBRANCH  15  16
ENDBRANCH   1  15
TORSDOF 5
ENDMDL
MODEL 7
REMARK VINA RESULT:      -3.4      1.989      4.553
REMARK  Name = *****
REMARK                            x       y       z     vdW  Elec       q    Type
REMARK                         _______ _______ _______ _____ _____    ______ ____
ROOT
ATOM      1  N   LIG    1       27.104 -17.404   3.900  0.00  0.00    -0.314 N 
ENDROOT
BRANCH   1   2
ATOM      2  C   LIG    1       27.620 -18.372   4.760  0.00  0.00    +0.030 A 
ATOM      3  C   LIG    1       28.936 -18.310   5.259  0.00  0.00    +0.023 A 
ATOM      4  C   LIG    1       29.463 -19.282   6.124  0.00  0.00    +0.002 A 
ATOM      5  C   LIG    1       28.684 -20.357   6.522  0.00  0.00    +0.000 A 
ATOM      6  C   LIG    1       27.384 -20.458   6.050  0.00  0.00    +0.002 A 
ATOM      7  C   LIG    1       26.871 -19.485   5.182  0.00  0.00    +0.023 A 
ENDBRANCH   1   2
BRANCH   1   8
ATOM      8  C   LIG    1       26.007 -17.666   2.952  0.00  0.00    +0.140 C 
BRANCH   8  12
ATOM      9  C   LIG    1       22.882 -20.183   4.580  0.00  0.00    +0.000 A 
ATOM     10  C   LIG    1       22.798 -18.800   4.723  0.00  0.00    +0.000 A 
ATOM     11  C   LIG    1       23.800 -17.976   4.199  0.00  0.00    +0.005 A 
ATOM     12  C   LIG    1       24.906 -18.526   3.537  0.00  0.00    -0.030 A 
ATOM     13  C   LIG    1       24.961 -19.922   3.380  0.00  0.00    +0.005 A 
ATOM     14  C   LIG    1       23.960 -20.744   3.900  0.00  0.00    +0.000 A 
ENDBRANCH   8  12
ENDBRANCH   1   8
BRANCH   1  15
ATOM     15  C   LIG    1       27.387 -15.965   4.136  0.00  0.00    +0.233 C 
BRANCH  15  16
ATOM     16  C   LIG    1       26.348 -15.083   3.445  0.00  0.00    +0.298 C 
ATOM     17  N   LIG    1       25.118 -14.828   4.022  0.00  0.00    -0.232 N 
ATOM     18  H   LIG    1       25.155 -14.759   5.034  0.00  0.00    +0.291 HD
ATOM     19  C   LIG    1       24.530 -13.717   3.312  0.00  0.00    +0.273 C 
ATOM     20  C   LIG    1       25.334 -13.741   2.008  0.00  0.00    +0.333 C 
ATOM     21  N   LIG    1       26.573 -14.530   2.281  0.00  0.00    -0.082 NA
ENDBRANCH  15  16
ENDBRANCH   1  15
TORSDOF 5
ENDMDL
MODEL 8
REMARK VINA RESULT:      -3.2      1.992      4.661
REMARK  Name = *****
REMARK                            x       y       z     vdW  Elec       q    Type
REMARK                         _______ _______ _______ _____ _____    ______ ____
ROOT
ATOM      1  N   LIG    1       25.304 -17.515   3.675  0.00  0.00    -0.314 N 
ENDROOT
BRANCH   1   2
ATOM      2  C   LIG    1       24.419 -18.565   3.907  0.00  0.00    +0.030 A 
ATOM      3  C   LIG    1       24.712 -19.892   3.535  0.00  0.00    +0.023 A 
ATOM      4  C   LIG    1       23.824 -20.955   3.764  0.00  0.00    +0.002 A 
ATOM      5  C   LIG    1       22.603 -20.724   4.377  0.00  0.00    +0.000 A 
ATOM      6  C   LIG    1       22.273 -19.432   4.754  0.00  0.00    +0.002 A 
ATOM      7  C   LIG    1       23.165 -18.377   4.515  0.00  0.00    +0.023 A 
ENDBRANCH   1   2
BRANCH   1   8
ATOM      8  C   LIG    1       26.728 -17.713   3.353  0.00  0.00    +0.140 C 
BRANCH   8  12
ATOM      9  C   LIG    1       29.025 -19.516   6.550  0.00  0.00    +0.000 A 
ATOM     10  C   LIG    1       27.840 -20.116   6.130  0.00  0.00    +0.000 A 
ATOM     11  C   LIG    1       27.091 -19.544   5.096  0.00  0.00    +0.005 A 
ATOM     12  C   LIG    1       27.510 -18.358   4.479  0.00  0.00    -0.030 A 
ATOM     13  C   LIG    1       28.721 -17.781   4.899  0.00  0.00    +0.005 A 
ATOM     14  C   LIG    1       29.471 -18.353   5.928  0.00  0.00    +0.000 A 
ENDBRANCH   8  12
ENDBRANCH   1   8
BRANCH   1  15
ATOM     15  C   LIG    1       24.790 -16.150   3.391  0.00  0.00    +0.233 C 
BRANCH  15  16
ATOM     16  C   LIG    1       25.892 -15.105   3.559  0.00  0.00    +0.298 C 
ATOM     17  N   LIG    1       25.998 -14.346   4.710  0.00  0.00    -0.232 N 
ATOM     18  H   LIG    1       25.735 -14.851   5.550  0.00  0.00    +0.291 HD
ATOM     19  C   LIG    1       27.303 -13.730   4.701  0.00  0.00    +0.273 C 
ATOM     20  C   LIG    1       27.670 -13.833   3.216  0.00  0.00    +0.333 C 
ATOM     21  N   LIG    1       26.783 -14.881   2.627  0.00  0.00    -0.082 NA
ENDBRANCH  15  16
ENDBRANCH   1  15
TORSDOF 5
ENDMDL
MODEL 9
REMARK VINA RESULT:      -3.1      1.963      3.611
REMARK  Name = *****
REMARK                            x       y       z     vdW  Elec       q    Type
REMARK                         _______ _______ _______ _____ _____    ______ ____
ROOT
ATOM      1  N   LIG    1       25.107 -17.368   3.606  0.00  0.00    -0.314 N 
ENDROOT
BRANCH   1   2
ATOM      2  C   LIG    1       25.441 -16.016   3.665  0.00  0.00    +0.030 A 
ATOM      3  C   LIG    1       24.518 -15.031   4.068  0.00  0.00    +0.023 A 
ATOM      4  C   LIG    1       24.847 -13.667   4.128  0.00  0.00    +0.002 A 
ATOM      5  C   LIG    1       26.119 -13.241   3.784  0.00  0.00    +0.000 A 
ATOM      6  C   LIG    1       27.056 -14.178   3.377  0.00  0.00    +0.002 A 
ATOM      7  C   LIG    1       26.715 -15.536   3.314  0.00  0.00    +0.023 A 
ENDBRANCH   1   2
BRANCH   1   8
ATOM      8  C   LIG    1       23.718 -17.860   3.611  0.00  0.00    +0.140 C 
BRANCH   8  12
ATOM      9  C   LIG    1       23.231 -21.565   5.798  0.00  0.00    +0.000 A 
ATOM     10  C   LIG    1       23.900 -21.569   4.576  0.00  0.00    +0.000 A 
ATOM     11  C   LIG    1       24.067 -20.378   3.862  0.00  0.00    +0.005 A 
ATOM     12  C   LIG    1       23.553 -19.170   4.353  0.00  0.00    -0.030 A 
ATOM     13  C   LIG    1       22.903 -19.181   5.600  0.00  0.00    +0.005 A 
ATOM     14  C   LIG    1       22.740 -20.369   6.314  0.00  0.00    +0.000 A 
ENDBRANCH   8  12
ENDBRANCH   1   8
BRANCH   1  15
ATOM     15  C   LIG    1       26.117 -18.371   3.178  0.00  0.00    +0.233 C 
BRANCH  15  16
ATOM     16  C   LIG    1       27.124 -18.643   4.294  0.00  0.00    +0.298 C 
ATOM     17  N   LIG    1       26.990 -19.729   5.139  0.00  0.00    -0.232 N 
ATOM     18  H   LIG    1       26.603 -20.548   4.683  0.00  0.00    +0.291 HD
ATOM     19  C   LIG    1       28.247 -19.898   5.827  0.00  0.00    +0.273 C 
ATOM     20  C   LIG    1       28.877 -18.513   5.637  0.00  0.00    +0.333 C 
ATOM     21  N   LIG    1       28.156 -17.866   4.500  0.00  0.00    -0.082 NA
ENDBRANCH  15  16
ENDBRANCH   1  15
TORSDOF 5
ENDMDL
