MODEL 1
REMARK VINA RESULT:      -2.6      0.000      0.000
REMARK  Name = *****
REMARK                            x       y       z     vdW  Elec       q    Type
REMARK                         _______ _______ _______ _____ _____    ______ ____
ROOT
ATOM      1  C   LIG    1       27.520 -16.926   3.682  0.00  0.00    +0.203 C 
ATOM      2  C   LIG    1       26.835 -15.553   3.783  0.00  0.00    +0.253 C 
ATOM      3  C   LIG    1       25.403 -15.967   4.153  0.00  0.00    +0.269 C 
ATOM      4  C   LIG    1       25.226 -17.232   3.278  0.00  0.00    +0.268 C 
ATOM      5  O   LIG    1       26.527 -17.860   3.216  0.00  0.00    -0.342 OA
ENDROOT
BRANCH   4   6
ATOM      6  N   LIG    1       24.250 -18.221   3.753  0.00  0.00    -0.270 N 
ATOM      7  C   LIG    1       24.636 -19.560   3.774  0.00  0.00    +0.331 C 
ATOM      8  O   LIG    1       25.743 -19.963   3.419  0.00  0.00    -0.246 OA
ATOM      9  N   LIG    1       23.695 -20.444   4.238  0.00  0.00    -0.275 N 
ATOM     10  H   LIG    1       23.953 -21.418   4.252  0.00  0.00    +0.173 HD
ATOM     11  C   LIG    1       22.428 -20.139   4.646  0.00  0.00    +0.254 C 
ATOM     12  O   LIG    1       21.621 -20.978   5.019  0.00  0.00    -0.268 OA
ATOM     13  C   LIG    1       22.086 -18.710   4.624  0.00  0.00    +0.088 C 
ATOM     14  C   LIG    1       22.993 -17.835   4.187  0.00  0.00    +0.098 C 
ENDBRANCH   4   6
BRANCH   1  15
ATOM     15  C   LIG    1       28.076 -17.429   5.032  0.00  0.00    +0.267 C 
BRANCH  15  16
ATOM     16  O   LIG    1       28.353 -18.826   4.911  0.00  0.00    -0.462 OA
BRANCH  16  18
ATOM     17  C   LIG    1       27.371 -20.345   6.398  0.00  0.00    +0.136 C 
ATOM     18  C   LIG    1       28.555 -19.467   6.101  0.00  0.00    +0.304 C 
ATOM     19  O   LIG    1       29.474 -19.263   6.869  0.00  0.00    -0.251 OA
ENDBRANCH  16  18
ENDBRANCH  15  16
ENDBRANCH   1  15
BRANCH   2  20
ATOM     20  O   LIG    1       26.787 -14.880   2.499  0.00  0.00    -0.455 OA
BRANCH  20  21
ATOM     21  C   LIG    1       27.035 -13.534   2.511  0.00  0.00    +0.304 C 
ATOM     22  O   LIG    1       26.374 -12.692   1.933  0.00  0.00    -0.251 OA
ATOM     23  C   LIG    1       28.303 -13.269   3.276  0.00  0.00    +0.136 C 
ENDBRANCH  20  21
ENDBRANCH   2  20
BRANCH   3  24
ATOM     24  O   LIG    1       24.454 -14.911   3.928  0.00  0.00    -0.453 OA
BRANCH  24  25
ATOM     25  C   LIG    1       24.674 -13.776   4.645  0.00  0.00    +0.304 C 
ATOM     26  O   LIG    1       25.540 -13.670   5.516  0.00  0.00    -0.251 OA
ATOM     27  C   LIG    1       23.835 -12.631   4.187  0.00  0.00    +0.136 C 
ENDBRANCH  24  25
ENDBRANCH   3  24
TORSDOF 8
ENDMDL
MODEL 2
REMARK VINA RESULT:      -0.5      2.258      3.492
REMARK  Name = *****
REMARK                            x       y       z     vdW  Elec       q    Type
REMARK                         _______ _______ _______ _____ _____    ______ ____
ROOT
ATOM      1  C   LIG    1       26.673 -14.958   2.985  0.00  0.00    +0.203 C 
ATOM      2  C   LIG    1       25.392 -14.230   3.425  0.00  0.00    +0.253 C 
ATOM      3  C   LIG    1       24.617 -15.380   4.088  0.00  0.00    +0.269 C 
ATOM      4  C   LIG    1       24.954 -16.552   3.135  0.00  0.00    +0.268 C 
ATOM      5  O   LIG    1       26.303 -16.314   2.670  0.00  0.00    -0.342 OA
ENDROOT
BRANCH   4   6
ATOM      6  N   LIG    1       24.888 -17.900   3.713  0.00  0.00    -0.270 N 
ATOM      7  C   LIG    1       23.629 -18.430   3.989  0.00  0.00    +0.331 C 
ATOM      8  O   LIG    1       22.571 -17.838   3.777  0.00  0.00    -0.246 OA
ATOM      9  N   LIG    1       23.618 -19.697   4.516  0.00  0.00    -0.275 N 
ATOM     10  H   LIG    1       22.716 -20.094   4.730  0.00  0.00    +0.173 HD
ATOM     11  C   LIG    1       24.711 -20.459   4.817  0.00  0.00    +0.254 C 
ATOM     12  O   LIG    1       24.637 -21.572   5.318  0.00  0.00    -0.268 OA
ATOM     13  C   LIG    1       26.009 -19.857   4.483  0.00  0.00    +0.088 C 
ATOM     14  C   LIG    1       26.038 -18.631   3.959  0.00  0.00    +0.098 C 
ENDBRANCH   4   6
BRANCH   1  15
ATOM     15  C   LIG    1       27.763 -14.985   4.079  0.00  0.00    +0.267 C 
BRANCH  15  16
ATOM     16  O   LIG    1       28.561 -13.806   3.945  0.00  0.00    -0.462 OA
BRANCH  16  18
ATOM     17  C   LIG    1       27.229 -13.304   5.805  0.00  0.00    +0.136 C 
ATOM     18  C   LIG    1       28.400 -12.898   4.955  0.00  0.00    +0.304 C 
ATOM     19  O   LIG    1       29.012 -11.855   5.074  0.00  0.00    -0.251 OA
ENDBRANCH  16  18
ENDBRANCH  15  16
ENDBRANCH   1  15
BRANCH   2  20
ATOM     20  O   LIG    1       24.619 -13.769   2.287  0.00  0.00    -0.455 OA
BRANCH  20  21
ATOM     21  C   LIG    1       24.526 -12.412   2.129  0.00  0.00    +0.304 C 
ATOM     22  O   LIG    1       23.488 -11.781   2.063  0.00  0.00    -0.251 OA
ATOM     23  C   LIG    1       25.906 -11.837   1.960  0.00  0.00    +0.136 C 
ENDBRANCH  20  21
ENDBRANCH   2  20
BRANCH   3  24
ATOM     24  O   LIG    1       23.220 -15.078   4.241  0.00  0.00    -0.453 OA
BRANCH  24  25
ATOM     25  C   LIG    1       22.899 -14.396   5.374  0.00  0.00    +0.304 C 
ATOM     26  O   LIG    1       23.192 -13.215   5.573  0.00  0.00    -0.251 OA
ATOM     27  C   LIG    1       22.048 -15.193   6.305  0.00  0.00    +0.136 C 
ENDBRANCH  24  25
ENDBRANCH   3  24
TORSDOF 8
ENDMDL
