MODEL 1
REMARK VINA RESULT:      -3.9      0.000      0.000
REMARK  Name = *****
REMARK                            x       y       z     vdW  Elec       q    Type
REMARK                         _______ _______ _______ _____ _____    ______ ____
ROOT
ATOM      1  CB  ALA A  1       26.870 -13.502   5.146  0.00  0.00    +0.036 C 
ATOM      2  CA  ALA A  1       27.772 -14.110   4.081  0.00  0.00    +0.158 C 
ENDROOT
BRANCH   2   3
ATOM      3  N   ALA A  1       28.642 -13.070   3.502  0.00  0.00    -0.319 NA
ATOM      4  H1  ALA A  1       29.532 -13.443   3.182  0.00  0.00    +0.119 HD
ATOM      5  H2  ALA A  1       28.194 -12.470   2.816  0.00  0.00    +0.119 HD
ENDBRANCH   2   3
BRANCH   2   6
ATOM      6  C   ALA A  1       26.908 -14.804   3.016  0.00  0.00    +0.321 C 
ATOM      7  O   ALA A  1       26.322 -15.859   3.189  0.00  0.00    -0.249 OA
BRANCH   6   8
ATOM      8  OXT ALA A  1       26.814 -14.102   1.860  0.00  0.00    -0.479 OA
ATOM      9  HXT ALA A  1       26.156 -14.511   1.268  0.00  0.00    +0.295 HD
ENDBRANCH   6   8
ENDBRANCH   2   6
TORSDOF 3
ENDMDL
MODEL 2
REMARK VINA RESULT:      -3.8      1.758      1.986
REMARK  Name = *****
REMARK                            x       y       z     vdW  Elec       q    Type
REMARK                         _______ _______ _______ _____ _____    ______ ____
ROOT
ATOM      1  CB  ALA A  1       24.856 -13.634   4.080  0.00  0.00    +0.036 C 
ATOM      2  CA  ALA A  1       26.300 -14.059   4.305  0.00  0.00    +0.158 C 
ENDROOT
BRANCH   2   3
ATOM      3  N   ALA A  1       26.896 -13.267   5.397  0.00  0.00    -0.319 NA
ATOM      4  H1  ALA A  1       27.245 -12.366   5.078  0.00  0.00    +0.119 HD
ATOM      5  H2  ALA A  1       26.326 -13.196   6.235  0.00  0.00    +0.119 HD
ENDBRANCH   2   3
BRANCH   2   6
ATOM      6  C   ALA A  1       27.084 -13.917   2.991  0.00  0.00    +0.321 C 
ATOM      7  O   ALA A  1       26.669 -14.275   1.902  0.00  0.00    -0.249 OA
BRANCH   6   8
ATOM      8  OXT ALA A  1       28.283 -13.302   3.143  0.00  0.00    -0.479 OA
ATOM      9  HXT ALA A  1       28.614 -12.987   2.282  0.00  0.00    +0.295 HD
ENDBRANCH   6   8
ENDBRANCH   2   6
TORSDOF 3
ENDMDL
MODEL 3
REMARK VINA RESULT:      -3.6      2.156      2.466
REMARK  Name = *****
REMARK                            x       y       z     vdW  Elec       q    Type
REMARK                         _______ _______ _______ _____ _____    ______ ____
ROOT
ATOM      1  CB  ALA A  1       28.589 -13.128   3.715  0.00  0.00    +0.036 C 
ATOM      2  CA  ALA A  1       27.449 -14.122   3.540  0.00  0.00    +0.158 C 
ENDROOT
BRANCH   2   3
ATOM      3  N   ALA A  1       26.957 -14.085   2.150  0.00  0.00    -0.319 NA
ATOM      4  H1  ALA A  1       25.956 -14.257   2.089  0.00  0.00    +0.119 HD
ATOM      5  H2  ALA A  1       27.254 -13.277   1.612  0.00  0.00    +0.119 HD
ENDBRANCH   2   3
BRANCH   2   6
ATOM      6  C   ALA A  1       26.340 -13.810   4.557  0.00  0.00    +0.321 C 
ATOM      7  O   ALA A  1       25.158 -14.049   4.378  0.00  0.00    -0.249 OA
BRANCH   6   8
ATOM      8  OXT ALA A  1       26.806 -13.280   5.714  0.00  0.00    -0.479 OA
ATOM      9  HXT ALA A  1       26.513 -12.354   5.805  0.00  0.00    +0.295 HD
ENDBRANCH   6   8
ENDBRANCH   2   6
TORSDOF 3
ENDMDL
MODEL 4
REMARK VINA RESULT:      -3.6      2.656      2.852
REMARK  Name = *****
REMARK                            x       y       z     vdW  Elec       q    Type
REMARK                         _______ _______ _______ _____ _____    ______ ____
ROOT
ATOM      1  CB  ALA A  1       24.462 -13.928   4.050  0.00  0.00    +0.036 C 
ATOM      2  CA  ALA A  1       25.097 -12.946   3.075  0.00  0.00    +0.158 C 
ENDROOT
BRANCH   2   3
ATOM      3  N   ALA A  1       24.181 -12.691   1.948  0.00  0.00    -0.319 NA
ATOM      4  H1  ALA A  1       23.246 -13.056   2.117  0.00  0.00    +0.119 HD
ATOM      5  H2  ALA A  1       24.176 -11.734   1.608  0.00  0.00    +0.119 HD
ENDBRANCH   2   3
BRANCH   2   6
ATOM      6  C   ALA A  1       26.453 -13.497   2.608  0.00  0.00    +0.321 C 
ATOM      7  O   ALA A  1       26.585 -14.443   1.849  0.00  0.00    -0.249 OA
BRANCH   6   8
ATOM      8  OXT ALA A  1       27.511 -12.797   3.084  0.00  0.00    -0.479 OA
ATOM      9  HXT ALA A  1       28.140 -12.602   2.365  0.00  0.00    +0.295 HD
ENDBRANCH   6   8
ENDBRANCH   2   6
TORSDOF 3
ENDMDL
MODEL 5
REMARK VINA RESULT:      -3.5      2.047      2.243
REMARK  Name = *****
REMARK                            x       y       z     vdW  Elec       q    Type
REMARK                         _______ _______ _______ _____ _____    ______ ____
ROOT
ATOM      1  CB  ALA A  1       26.697 -13.611   5.327  0.00  0.00    +0.036 C 
ATOM      2  CA  ALA A  1       25.931 -13.476   4.019  0.00  0.00    +0.158 C 
ENDROOT
BRANCH   2   3
ATOM      3  N   ALA A  1       24.774 -14.389   4.015  0.00  0.00    -0.319 NA
ATOM      4  H1  ALA A  1       23.930 -13.947   4.375  0.00  0.00    +0.119 HD
ATOM      5  H2  ALA A  1       24.619 -14.882   3.141  0.00  0.00    +0.119 HD
ENDBRANCH   2   3
BRANCH   2   6
ATOM      6  C   ALA A  1       26.883 -13.740   2.841  0.00  0.00    +0.321 C 
ATOM      7  O   ALA A  1       26.560 -14.309   1.812  0.00  0.00    -0.249 OA
BRANCH   6   8
ATOM      8  OXT ALA A  1       28.126 -13.232   3.030  0.00  0.00    -0.479 OA
ATOM      9  HXT ALA A  1       28.563 -13.676   3.780  0.00  0.00    +0.295 HD
ENDBRANCH   6   8
ENDBRANCH   2   6
TORSDOF 3
ENDMDL
MODEL 6
REMARK VINA RESULT:      -3.5      2.439      2.751
REMARK  Name = *****
REMARK                            x       y       z     vdW  Elec       q    Type
REMARK                         _______ _______ _______ _____ _____    ______ ____
ROOT
ATOM      1  CB  ALA A  1       25.169 -14.153   4.028  0.00  0.00    +0.036 C 
ATOM      2  CA  ALA A  1       26.317 -13.516   3.258  0.00  0.00    +0.158 C 
ENDROOT
BRANCH   2   3
ATOM      3  N   ALA A  1       26.611 -14.304   2.047  0.00  0.00    -0.319 NA
ATOM      4  H1  ALA A  1       26.507 -15.305   2.201  0.00  0.00    +0.119 HD
ATOM      5  H2  ALA A  1       26.147 -13.983   1.203  0.00  0.00    +0.119 HD
ENDBRANCH   2   3
BRANCH   2   6
ATOM      6  C   ALA A  1       27.540 -13.387   4.179  0.00  0.00    +0.321 C 
ATOM      7  O   ALA A  1       28.696 -13.387   3.790  0.00  0.00    -0.249 OA
BRANCH   6   8
ATOM      8  OXT ALA A  1       27.215 -13.222   5.485  0.00  0.00    -0.479 OA
ATOM      9  HXT ALA A  1       27.462 -14.014   5.998  0.00  0.00    +0.295 HD
ENDBRANCH   6   8
ENDBRANCH   2   6
TORSDOF 3
ENDMDL
MODEL 7
REMARK VINA RESULT:      -3.4      7.026      7.387
REMARK  Name = *****
REMARK                            x       y       z     vdW  Elec       q    Type
REMARK                         _______ _______ _______ _____ _____    ______ ____
ROOT
ATOM      1  CB  ALA A  1       23.025 -20.279   5.820  0.00  0.00    +0.036 C 
ATOM      2  CA  ALA A  1       24.066 -20.379   4.714  0.00  0.00    +0.158 C 
ENDROOT
BRANCH   2   3
ATOM      3  N   ALA A  1       23.809 -21.571   3.886  0.00  0.00    -0.319 NA
ATOM      4  H1  ALA A  1       24.478 -21.667   3.126  0.00  0.00    +0.119 HD
ATOM      5  H2  ALA A  1       23.674 -22.433   4.405  0.00  0.00    +0.119 HD
ENDBRANCH   2   3
BRANCH   2   6
ATOM      6  C   ALA A  1       25.471 -20.395   5.336  0.00  0.00    +0.321 C 
ATOM      7  O   ALA A  1       25.694 -20.545   6.526  0.00  0.00    -0.249 OA
BRANCH   6   8
ATOM      8  OXT ALA A  1       26.465 -20.274   4.422  0.00  0.00    -0.479 OA
ATOM      9  HXT ALA A  1       26.816 -21.152   4.184  0.00  0.00    +0.295 HD
ENDBRANCH   6   8
ENDBRANCH   2   6
TORSDOF 3
ENDMDL
MODEL 8
REMARK VINA RESULT:      -3.3      6.178      6.785
REMARK  Name = *****
REMARK                            x       y       z     vdW  Elec       q    Type
REMARK                         _______ _______ _______ _____ _____    ______ ____
ROOT
ATOM      1  CB  ALA A  1       22.841 -19.390   4.767  0.00  0.00    +0.036 C 
ATOM      2  CA  ALA A  1       23.771 -20.190   3.866  0.00  0.00    +0.158 C 
ENDROOT
BRANCH   2   3
ATOM      3  N   ALA A  1       23.892 -21.572   4.364  0.00  0.00    -0.319 NA
ATOM      4  H1  ALA A  1       23.039 -21.900   4.810  0.00  0.00    +0.119 HD
ATOM      5  H2  ALA A  1       24.270 -22.237   3.696  0.00  0.00    +0.119 HD
ENDBRANCH   2   3
BRANCH   2   6
ATOM      6  C   ALA A  1       25.132 -19.481   3.781  0.00  0.00    +0.321 C 
ATOM      7  O   ALA A  1       25.284 -18.327   3.417  0.00  0.00    -0.249 OA
BRANCH   6   8
ATOM      8  OXT ALA A  1       26.166 -20.251   4.200  0.00  0.00    -0.479 OA
ATOM      9  HXT ALA A  1       25.935 -21.196   4.132  0.00  0.00    +0.295 HD
ENDBRANCH   6   8
ENDBRANCH   2   6
TORSDOF 3
ENDMDL
MODEL 9
REMARK VINA RESULT:      -3.3      2.724      2.856
REMARK  Name = *****
REMARK                            x       y       z     vdW  Elec       q    Type
REMARK                         _______ _______ _______ _____ _____    ______ ____
ROOT
ATOM      1  CB  ALA A  1       26.574 -13.817   4.490  0.00  0.00    +0.036 C 
ATOM      2  CA  ALA A  1       25.659 -14.137   3.317  0.00  0.00    +0.158 C 
ENDROOT
BRANCH   2   3
ATOM      3  N   ALA A  1       26.431 -14.141   2.061  0.00  0.00    -0.319 NA
ATOM      4  H1  ALA A  1       26.817 -13.226   1.839  0.00  0.00    +0.119 HD
ATOM      5  H2  ALA A  1       27.115 -14.888   1.980  0.00  0.00    +0.119 HD
ENDBRANCH   2   3
BRANCH   2   6
ATOM      6  C   ALA A  1       24.501 -13.128   3.283  0.00  0.00    +0.321 C 
ATOM      7  O   ALA A  1       24.071 -12.543   4.263  0.00  0.00    -0.249 OA
BRANCH   6   8
ATOM      8  OXT ALA A  1       24.019 -12.903   2.036  0.00  0.00    -0.479 OA
ATOM      9  HXT ALA A  1       23.986 -11.946   1.852  0.00  0.00    +0.295 HD
ENDBRANCH   6   8
ENDBRANCH   2   6
TORSDOF 3
ENDMDL
