MODEL 1
REMARK VINA RESULT:       4.1      0.000      0.000
REMARK  Name = *****
REMARK                            x       y       z     vdW  Elec       q    Type
REMARK                         _______ _______ _______ _____ _____    ______ ____
ROOT
ATOM      1  C   LIG    1       25.938 -16.378   3.524  0.00  0.00    +0.328 C 
ATOM      2  N   LIG    1       24.504 -16.484   3.734  0.00  0.00    -0.208 N 
ATOM      3  C   LIG    1       23.887 -15.229   3.706  0.00  0.00    +0.275 C 
ATOM      4  O   LIG    1       22.721 -14.914   3.868  0.00  0.00    -0.268 OA
ATOM      5  C   LIG    1       24.936 -14.248   3.402  0.00  0.00    +0.152 A 
ATOM      6  N   LIG    1       24.771 -12.921   3.239  0.00  0.00    -0.247 NA
ATOM      7  C   LIG    1       25.922 -12.273   2.933  0.00  0.00    +0.131 A 
ATOM      8  C   LIG    1       27.149 -12.927   2.804  0.00  0.00    +0.131 A 
ATOM      9  N   LIG    1       27.293 -14.267   2.976  0.00  0.00    -0.251 NA
ATOM     10  C   LIG    1       26.138 -14.906   3.273  0.00  0.00    +0.131 A 
ENDROOT
BRANCH   2  11
ATOM     11  C   LIG    1       23.833 -17.700   3.980  0.00  0.00    +0.131 A 
ATOM     12  N   LIG    1       22.669 -17.658   4.658  0.00  0.00    -0.238 NA
ATOM     13  C   LIG    1       22.011 -18.814   4.914  0.00  0.00    +0.133 A 
ATOM     14  C   LIG    1       22.464 -20.054   4.512  0.00  0.00    +0.059 A 
ATOM     15 CL   LIG    1       21.584 -21.481   4.868  0.00  0.00    -0.082 Cl
ATOM     16  C   LIG    1       23.658 -20.107   3.809  0.00  0.00    +0.025 A 
ATOM     17  C   LIG    1       24.351 -18.921   3.541  0.00  0.00    +0.045 A 
ENDBRANCH   2  11
BRANCH   1  18
ATOM     18  O   LIG    1       26.580 -16.743   4.737  0.00  0.00    -0.422 OA
BRANCH  18  24
ATOM     19  C   LIG    1       28.455 -21.569   6.734  0.00  0.00    +0.105 C 
ATOM     20  N   LIG    1       28.377 -20.147   7.061  0.00  0.00    -0.302 NA
ATOM     21  C   LIG    1       29.473 -19.376   6.424  0.00  0.00    +0.103 C 
ATOM     22  C   LIG    1       29.286 -19.104   4.914  0.00  0.00    +0.126 C 
ATOM     23  N   LIG    1       27.968 -18.522   4.676  0.00  0.00    -0.265 N 
ATOM     24  C   LIG    1       27.864 -17.145   4.626  0.00  0.00    +0.405 C 
ATOM     25  O   LIG    1       28.809 -16.375   4.482  0.00  0.00    -0.226 OA
ATOM     26  C   LIG    1       26.862 -19.332   5.188  0.00  0.00    +0.126 C 
ATOM     27  C   LIG    1       27.056 -19.582   6.697  0.00  0.00    +0.103 C 
ENDBRANCH  18  24
ENDBRANCH   1  18
TORSDOF 3
ENDMDL
MODEL 2
REMARK VINA RESULT:       6.4      2.339      4.850
REMARK  Name = *****
REMARK                            x       y       z     vdW  Elec       q    Type
REMARK                         _______ _______ _______ _____ _____    ______ ____
ROOT
ATOM      1  C   LIG    1       25.104 -15.148   4.056  0.00  0.00    +0.328 C 
ATOM      2  N   LIG    1       26.493 -15.395   3.708  0.00  0.00    -0.208 N 
ATOM      3  C   LIG    1       26.979 -14.428   2.821  0.00  0.00    +0.275 C 
ATOM      4  O   LIG    1       28.070 -14.315   2.291  0.00  0.00    -0.268 OA
ATOM      5  C   LIG    1       25.896 -13.458   2.617  0.00  0.00    +0.152 A 
ATOM      6  N   LIG    1       25.951 -12.340   1.868  0.00  0.00    -0.247 NA
ATOM      7  C   LIG    1       24.800 -11.623   1.894  0.00  0.00    +0.131 A 
ATOM      8  C   LIG    1       23.678 -12.015   2.626  0.00  0.00    +0.131 A 
ATOM      9  N   LIG    1       23.644 -13.150   3.372  0.00  0.00    -0.251 NA
ATOM     10  C   LIG    1       24.798 -13.855   3.346  0.00  0.00    +0.131 A 
ENDROOT
BRANCH   2  11
ATOM     11  C   LIG    1       27.236 -16.499   4.173  0.00  0.00    +0.131 A 
ATOM     12  N   LIG    1       26.791 -17.736   3.875  0.00  0.00    -0.238 NA
ATOM     13  C   LIG    1       27.485 -18.812   4.318  0.00  0.00    +0.133 A 
ATOM     14  C   LIG    1       28.641 -18.719   5.064  0.00  0.00    +0.059 A 
ATOM     15 CL   LIG    1       29.473 -20.121   5.596  0.00  0.00    -0.082 Cl
ATOM     16  C   LIG    1       29.110 -17.452   5.371  0.00  0.00    +0.025 A 
ATOM     17  C   LIG    1       28.402 -16.329   4.924  0.00  0.00    +0.045 A 
ENDBRANCH   2  11
BRANCH   1  18
ATOM     18  O   LIG    1       24.326 -16.193   3.491  0.00  0.00    -0.422 OA
BRANCH  18  24
ATOM     19  C   LIG    1       23.093 -21.556   4.205  0.00  0.00    +0.105 C 
ATOM     20  N   LIG    1       22.718 -20.392   3.408  0.00  0.00    -0.302 NA
ATOM     21  C   LIG    1       21.747 -19.526   4.122  0.00  0.00    +0.103 C 
ATOM     22  C   LIG    1       22.358 -18.645   5.236  0.00  0.00    +0.126 C 
ATOM     23  N   LIG    1       23.502 -17.905   4.710  0.00  0.00    -0.265 N 
ATOM     24  C   LIG    1       23.286 -16.624   4.237  0.00  0.00    +0.405 C 
ATOM     25  O   LIG    1       22.290 -15.948   4.473  0.00  0.00    -0.226 OA
ATOM     26  C   LIG    1       24.532 -18.754   4.111  0.00  0.00    +0.126 C 
ATOM     27  C   LIG    1       23.910 -19.615   2.993  0.00  0.00    +0.103 C 
ENDBRANCH  18  24
ENDBRANCH   1  18
TORSDOF 3
ENDMDL
