MODEL 1
REMARK VINA RESULT:       6.5      0.000      0.000
REMARK  Name = *****
REMARK                            x       y       z     vdW  Elec       q    Type
REMARK                         _______ _______ _______ _____ _____    ______ ____
ROOT
ATOM      1  C   LIG    1       26.034 -18.908   4.420  0.00  0.00    +0.062 A 
ATOM      2  C   LIG    1       24.724 -19.498   4.419  0.00  0.00    +0.058 A 
ATOM      3  I   LIG    1       24.591 -21.571   5.069  0.00  0.00    -0.040 I 
ATOM      4  C   LIG    1       23.583 -18.711   4.137  0.00  0.00    +0.065 A 
ATOM      5  C   LIG    1       23.810 -17.325   4.011  0.00  0.00    +0.049 A 
ATOM      6  I   LIG    1       22.778 -16.225   5.796  0.00  0.00    -0.041 I 
ATOM      7  C   LIG    1       25.094 -16.772   3.858  0.00  0.00    +0.067 A 
ATOM      8  C   LIG    1       26.204 -17.530   4.195  0.00  0.00    +0.049 A 
ATOM      9  I   LIG    1       28.086 -16.589   4.502  0.00  0.00    -0.041 I 
ENDROOT
BRANCH   1  12
ATOM     10  C   LIG    1       26.942 -19.970   7.062  0.00  0.00    +0.109 C 
ATOM     11  C   LIG    1       27.690 -20.185   5.764  0.00  0.00    +0.214 C 
ATOM     12  N   LIG    1       27.200 -19.684   4.583  0.00  0.00    -0.284 N 
ATOM     13  H   LIG    1       27.512 -20.247   3.795  0.00  0.00    +0.155 HD
ATOM     14  O   LIG    1       28.699 -20.891   5.729  0.00  0.00    -0.276 OA
ENDBRANCH   1  12
BRANCH   4  15
ATOM     15  N   LIG    1       22.263 -19.206   3.826  0.00  0.00    -0.273 N 
ATOM     16  C   LIG    1       21.674 -20.333   4.427  0.00  0.00    +0.216 C 
ATOM     17  O   LIG    1       20.597 -20.801   4.045  0.00  0.00    -0.276 OA
ATOM     18  C   LIG    1       22.327 -20.956   5.639  0.00  0.00    +0.110 C 
ATOM     19  C   LIG    1       21.484 -18.575   2.769  0.00  0.00    +0.138 C 
ENDBRANCH   4  15
BRANCH   7  20
ATOM     20  C   LIG    1       25.145 -15.564   3.002  0.00  0.00    +0.247 C 
ATOM     21  N   LIG    1       24.741 -14.373   3.592  0.00  0.00    -0.299 N 
ATOM     22  H   LIG    1       24.477 -14.341   4.564  0.00  0.00    +0.150 HD
ATOM     23  O   LIG    1       25.604 -15.636   1.890  0.00  0.00    -0.270 OA
BRANCH  21  24
ATOM     24  CA  LIG    1       24.844 -13.074   2.911  0.00  0.00    +0.167 C 
BRANCH  24  25
ATOM     25  C   LIG    1       24.146 -12.048   3.795  0.00  0.00    +0.248 C 
ATOM     26  O   LIG    1       23.906 -12.233   4.990  0.00  0.00    -0.299 OA
ENDBRANCH  24  25
BRANCH  24  27
ATOM     27  C   LIG    1       26.270 -12.621   2.537  0.00  0.00    +0.173 C 
BRANCH  27  28
ATOM     28  O   LIG    1       26.917 -13.680   1.812  0.00  0.00    -0.387 OA
ATOM     29  H   LIG    1       27.612 -13.248   1.265  0.00  0.00    +0.210 HD
ENDBRANCH  27  28
BRANCH  27  30
ATOM     30  C   LIG    1       27.110 -12.253   3.793  0.00  0.00    +0.176 C 
BRANCH  30  31
ATOM     31  O   LIG    1       26.863 -13.236   4.813  0.00  0.00    -0.387 OA
ATOM     32  H   LIG    1       25.900 -13.172   4.988  0.00  0.00    +0.210 HD
ENDBRANCH  30  31
BRANCH  30  33
ATOM     33  C   LIG    1       28.621 -12.235   3.505  0.00  0.00    +0.171 C 
BRANCH  33  34
ATOM     34  O   LIG    1       29.020 -13.567   3.114  0.00  0.00    -0.387 OA
ATOM     35  H   LIG    1       29.182 -14.041   3.957  0.00  0.00    +0.210 HD
ENDBRANCH  33  34
BRANCH  33  36
ATOM     36  C   LIG    1       29.449 -11.820   4.731  0.00  0.00    +0.190 C 
BRANCH  36  37
ATOM     37  O   LIG    1       28.698 -12.147   5.903  0.00  0.00    -0.392 OA
ATOM     38  H   LIG    1       28.198 -12.960   5.705  0.00  0.00    +0.209 HD
ENDBRANCH  36  37
ENDBRANCH  33  36
ENDBRANCH  30  33
ENDBRANCH  27  30
ENDBRANCH  24  27
ENDBRANCH  21  24
ENDBRANCH   7  20
TORSDOF 13
ENDMDL
MODEL 2
REMARK VINA RESULT:       9.0      1.180      1.806
REMARK  Name = *****
REMARK                            x       y       z     vdW  Elec       q    Type
REMARK                         _______ _______ _______ _____ _____    ______ ____
ROOT
ATOM      1  C   LIG    1       25.558 -18.870   4.391  0.00  0.00    +0.062 A 
ATOM      2  C   LIG    1       24.247 -19.456   4.418  0.00  0.00    +0.058 A 
ATOM      3  I   LIG    1       24.133 -21.562   4.959  0.00  0.00    -0.040 I 
ATOM      4  C   LIG    1       23.098 -18.651   4.232  0.00  0.00    +0.065 A 
ATOM      5  C   LIG    1       23.327 -17.262   4.171  0.00  0.00    +0.049 A 
ATOM      6  I   LIG    1       22.382 -16.259   6.059  0.00  0.00    -0.041 I 
ATOM      7  C   LIG    1       24.604 -16.704   3.991  0.00  0.00    +0.067 A 
ATOM      8  C   LIG    1       25.726 -17.482   4.235  0.00  0.00    +0.049 A 
ATOM      9  I   LIG    1       27.624 -16.565   4.507  0.00  0.00    -0.041 I 
ENDROOT
BRANCH   1  12
ATOM     10  C   LIG    1       26.741 -19.836   6.961  0.00  0.00    +0.109 C 
ATOM     11  C   LIG    1       27.339 -20.116   5.599  0.00  0.00    +0.214 C 
ATOM     12  N   LIG    1       26.727 -19.657   4.459  0.00  0.00    -0.284 N 
ATOM     13  H   LIG    1       26.944 -20.257   3.666  0.00  0.00    +0.155 HD
ATOM     14  O   LIG    1       28.330 -20.839   5.484  0.00  0.00    -0.276 OA
ENDBRANCH   1  12
BRANCH   4  15
ATOM     15  N   LIG    1       21.763 -19.126   3.954  0.00  0.00    -0.273 N 
ATOM     16  C   LIG    1       20.767 -18.367   3.312  0.00  0.00    +0.216 C 
ATOM     17  O   LIG    1       19.601 -18.761   3.206  0.00  0.00    -0.276 OA
ATOM     18  C   LIG    1       21.138 -17.061   2.650  0.00  0.00    +0.110 C 
ATOM     19  C   LIG    1       21.351 -20.442   4.422  0.00  0.00    +0.138 C 
ENDBRANCH   4  15
BRANCH   7  20
ATOM     20  C   LIG    1       24.623 -15.451   3.201  0.00  0.00    +0.247 C 
ATOM     21  N   LIG    1       25.867 -14.860   3.013  0.00  0.00    -0.299 N 
ATOM     22  H   LIG    1       26.706 -15.298   3.358  0.00  0.00    +0.150 HD
ATOM     23  O   LIG    1       23.608 -15.048   2.691  0.00  0.00    -0.270 OA
BRANCH  21  24
ATOM     24  CA  LIG    1       26.064 -13.680   2.158  0.00  0.00    +0.167 C 
BRANCH  24  25
ATOM     25  C   LIG    1       24.681 -13.127   1.833  0.00  0.00    +0.248 C 
ATOM     26  O   LIG    1       24.419 -11.923   1.814  0.00  0.00    -0.299 OA
ENDBRANCH  24  25
BRANCH  24  27
ATOM     27  C   LIG    1       26.991 -12.585   2.724  0.00  0.00    +0.173 C 
BRANCH  27  28
ATOM     28  O   LIG    1       28.354 -13.023   2.597  0.00  0.00    -0.387 OA
ATOM     29  H   LIG    1       28.366 -13.959   2.905  0.00  0.00    +0.210 HD
ENDBRANCH  27  28
BRANCH  27  30
ATOM     30  C   LIG    1       26.675 -12.270   4.213  0.00  0.00    +0.176 C 
BRANCH  30  31
ATOM     31  O   LIG    1       25.268 -12.468   4.436  0.00  0.00    -0.387 OA
ATOM     32  H   LIG    1       25.019 -11.766   5.074  0.00  0.00    +0.210 HD
ENDBRANCH  30  31
BRANCH  30  33
ATOM     33  C   LIG    1       27.443 -13.185   5.183  0.00  0.00    +0.171 C 
BRANCH  33  34
ATOM     34  O   LIG    1       26.578 -13.480   6.302  0.00  0.00    -0.387 OA
ATOM     35  H   LIG    1       26.942 -14.302   6.695  0.00  0.00    +0.210 HD
ENDBRANCH  33  34
BRANCH  33  36
ATOM     36  C   LIG    1       28.726 -12.532   5.719  0.00  0.00    +0.190 C 
BRANCH  36  37
ATOM     37  O   LIG    1       29.167 -11.569   4.757  0.00  0.00    -0.392 OA
ATOM     38  H   LIG    1       29.013 -11.955   3.876  0.00  0.00    +0.209 HD
ENDBRANCH  36  37
ENDBRANCH  33  36
ENDBRANCH  30  33
ENDBRANCH  27  30
ENDBRANCH  24  27
ENDBRANCH  21  24
ENDBRANCH   7  20
TORSDOF 13
ENDMDL
MODEL 3
REMARK VINA RESULT:       9.1      1.316      1.537
REMARK  Name = *****
REMARK                            x       y       z     vdW  Elec       q    Type
REMARK                         _______ _______ _______ _____ _____    ______ ____
ROOT
ATOM      1  C   LIG    1       26.321 -19.207   4.280  0.00  0.00    +0.062 A 
ATOM      2  C   LIG    1       24.947 -19.552   4.041  0.00  0.00    +0.058 A 
ATOM      3  I   LIG    1       24.342 -21.571   4.585  0.00  0.00    -0.040 I 
ATOM      4  C   LIG    1       24.027 -18.571   3.601  0.00  0.00    +0.065 A 
ATOM      5  C   LIG    1       24.513 -17.248   3.564  0.00  0.00    +0.049 A 
ATOM      6  I   LIG    1       23.403 -15.990   5.191  0.00  0.00    -0.041 I 
ATOM      7  C   LIG    1       25.881 -16.934   3.646  0.00  0.00    +0.067 A 
ATOM      8  C   LIG    1       26.767 -17.881   4.136  0.00  0.00    +0.049 A 
ATOM      9  I   LIG    1       28.705 -17.295   4.785  0.00  0.00    -0.041 I 
ENDROOT
BRANCH   1  12
ATOM     10  C   LIG    1       27.320 -19.658   7.061  0.00  0.00    +0.109 C 
ATOM     11  C   LIG    1       27.809 -20.429   5.853  0.00  0.00    +0.214 C 
ATOM     12  N   LIG    1       27.288 -20.181   4.607  0.00  0.00    -0.284 N 
ATOM     13  H   LIG    1       27.348 -21.009   4.020  0.00  0.00    +0.155 HD
ATOM     14  O   LIG    1       28.613 -21.354   5.981  0.00  0.00    -0.276 OA
ENDBRANCH   1  12
BRANCH   4  15
ATOM     15  N   LIG    1       22.713 -18.820   3.057  0.00  0.00    -0.273 N 
ATOM     16  C   LIG    1       21.510 -18.443   3.681  0.00  0.00    +0.216 C 
ATOM     17  O   LIG    1       20.405 -18.785   3.248  0.00  0.00    -0.276 OA
ATOM     18  C   LIG    1       21.549 -17.518   4.875  0.00  0.00    +0.110 C 
ATOM     19  C   LIG    1       22.573 -19.578   1.822  0.00  0.00    +0.138 C 
ENDBRANCH   4  15
BRANCH   7  20
ATOM     20  C   LIG    1       26.289 -15.750   2.855  0.00  0.00    +0.247 C 
ATOM     21  N   LIG    1       25.452 -14.643   2.925  0.00  0.00    -0.299 N 
ATOM     22  H   LIG    1       24.642 -14.644   3.525  0.00  0.00    +0.150 HD
ATOM     23  O   LIG    1       27.342 -15.755   2.268  0.00  0.00    -0.270 OA
BRANCH  21  24
ATOM     24  CA  LIG    1       25.780 -13.359   2.290  0.00  0.00    +0.167 C 
BRANCH  24  25
ATOM     25  C   LIG    1       24.482 -12.565   2.188  0.00  0.00    +0.248 C 
ATOM     26  O   LIG    1       23.866 -12.144   3.168  0.00  0.00    -0.299 OA
ENDBRANCH  24  25
BRANCH  24  27
ATOM     27  C   LIG    1       26.893 -12.535   2.971  0.00  0.00    +0.173 C 
BRANCH  27  28
ATOM     28  O   LIG    1       28.114 -13.293   2.937  0.00  0.00    -0.387 OA
ATOM     29  H   LIG    1       28.022 -13.983   3.634  0.00  0.00    +0.210 HD
ENDBRANCH  27  28
BRANCH  27  30
ATOM     30  C   LIG    1       26.534 -12.180   4.441  0.00  0.00    +0.176 C 
BRANCH  30  31
ATOM     31  O   LIG    1       25.483 -13.057   4.882  0.00  0.00    -0.387 OA
ATOM     32  H   LIG    1       25.635 -13.158   5.846  0.00  0.00    +0.210 HD
ENDBRANCH  30  31
BRANCH  30  33
ATOM     33  C   LIG    1       27.729 -12.351   5.396  0.00  0.00    +0.171 C 
BRANCH  33  34
ATOM     34  O   LIG    1       28.926 -11.954   4.692  0.00  0.00    -0.387 OA
ATOM     35  H   LIG    1       29.232 -12.766   4.234  0.00  0.00    +0.210 HD
ENDBRANCH  33  34
BRANCH  33  36
ATOM     36  C   LIG    1       27.901 -13.802   5.870  0.00  0.00    +0.190 C 
BRANCH  36  37
ATOM     37  O   LIG    1       26.965 -14.037   6.926  0.00  0.00    -0.392 OA
ATOM     38  H   LIG    1       27.364 -13.690   7.744  0.00  0.00    +0.209 HD
ENDBRANCH  36  37
ENDBRANCH  33  36
ENDBRANCH  30  33
ENDBRANCH  27  30
ENDBRANCH  24  27
ENDBRANCH  21  24
ENDBRANCH   7  20
TORSDOF 13
ENDMDL
MODEL 4
REMARK VINA RESULT:       9.2      1.695      4.351
REMARK  Name = *****
REMARK                            x       y       z     vdW  Elec       q    Type
REMARK                         _______ _______ _______ _____ _____    ______ ____
ROOT
ATOM      1  C   LIG    1       22.858 -19.008   4.716  0.00  0.00    +0.062 A 
ATOM      2  C   LIG    1       23.818 -19.885   5.327  0.00  0.00    +0.058 A 
ATOM      3  I   LIG    1       23.019 -21.572   6.448  0.00  0.00    -0.040 I 
ATOM      4  C   LIG    1       25.201 -19.715   5.084  0.00  0.00    +0.065 A 
ATOM      5  C   LIG    1       25.539 -18.751   4.113  0.00  0.00    +0.049 A 
ATOM      6  I   LIG    1       26.460 -19.836   2.259  0.00  0.00    -0.041 I 
ATOM      7  C   LIG    1       24.625 -17.796   3.633  0.00  0.00    +0.067 A 
ATOM      8  C   LIG    1       23.267 -18.002   3.822  0.00  0.00    +0.049 A 
ATOM      9  I   LIG    1       21.851 -16.908   2.673  0.00  0.00    -0.041 I 
ENDROOT
BRANCH   1  12
ATOM     10  C   LIG    1       20.990 -20.980   3.468  0.00  0.00    +0.109 C 
ATOM     11  C   LIG    1       20.564 -19.937   4.478  0.00  0.00    +0.214 C 
ATOM     12  N   LIG    1       21.483 -19.076   5.025  0.00  0.00    -0.284 N 
ATOM     13  H   LIG    1       21.187 -18.773   5.950  0.00  0.00    +0.155 HD
ATOM     14  O   LIG    1       19.405 -19.903   4.896  0.00  0.00    -0.276 OA
ENDBRANCH   1  12
BRANCH   4  15
ATOM     15  N   LIG    1       26.277 -20.321   5.832  0.00  0.00    -0.273 N 
ATOM     16  C   LIG    1       27.619 -19.904   5.774  0.00  0.00    +0.216 C 
ATOM     17  O   LIG    1       28.530 -20.526   6.330  0.00  0.00    -0.276 OA
ATOM     18  C   LIG    1       27.966 -18.606   5.083  0.00  0.00    +0.110 C 
ATOM     19  C   LIG    1       26.015 -21.495   6.653  0.00  0.00    +0.138 C 
ENDBRANCH   4  15
BRANCH   7  20
ATOM     20  C   LIG    1       25.225 -16.483   3.298  0.00  0.00    +0.247 C 
ATOM     21  N   LIG    1       24.524 -15.360   3.721  0.00  0.00    -0.299 N 
ATOM     22  H   LIG    1       23.682 -15.451   4.267  0.00  0.00    +0.150 HD
ATOM     23  O   LIG    1       26.306 -16.436   2.768  0.00  0.00    -0.270 OA
BRANCH  21  24
ATOM     24  CA  LIG    1       25.046 -13.995   3.566  0.00  0.00    +0.167 C 
BRANCH  24  25
ATOM     25  C   LIG    1       23.898 -13.132   3.053  0.00  0.00    +0.248 C 
ATOM     26  O   LIG    1       23.967 -11.907   2.945  0.00  0.00    -0.299 OA
ENDBRANCH  24  25
BRANCH  24  27
ATOM     27  C   LIG    1       25.700 -13.377   4.819  0.00  0.00    +0.173 C 
BRANCH  27  28
ATOM     28  O   LIG    1       24.827 -12.363   5.344  0.00  0.00    -0.387 OA
ATOM     29  H   LIG    1       25.321 -11.938   6.083  0.00  0.00    +0.210 HD
ENDBRANCH  27  28
BRANCH  27  30
ATOM     30  C   LIG    1       27.092 -12.762   4.502  0.00  0.00    +0.176 C 
BRANCH  30  31
ATOM     31  O   LIG    1       27.770 -12.496   5.743  0.00  0.00    -0.387 OA
ATOM     32  H   LIG    1       28.516 -11.909   5.494  0.00  0.00    +0.210 HD
ENDBRANCH  30  31
BRANCH  30  33
ATOM     33  C   LIG    1       27.977 -13.707   3.670  0.00  0.00    +0.171 C 
BRANCH  33  34
ATOM     34  O   LIG    1       28.052 -14.974   4.359  0.00  0.00    -0.387 OA
ATOM     35  H   LIG    1       28.541 -14.784   5.188  0.00  0.00    +0.210 HD
ENDBRANCH  33  34
BRANCH  33  36
ATOM     36  C   LIG    1       29.403 -13.168   3.485  0.00  0.00    +0.190 C 
BRANCH  36  37
ATOM     37  O   LIG    1       29.329 -11.743   3.388  0.00  0.00    -0.392 OA
ATOM     38  H   LIG    1       28.590 -11.536   2.788  0.00  0.00    +0.209 HD
ENDBRANCH  36  37
ENDBRANCH  33  36
ENDBRANCH  30  33
ENDBRANCH  27  30
ENDBRANCH  24  27
ENDBRANCH  21  24
ENDBRANCH   7  20
TORSDOF 13
ENDMDL
MODEL 5
REMARK VINA RESULT:       9.5      1.638      4.373
REMARK  Name = *****
REMARK                            x       y       z     vdW  Elec       q    Type
REMARK                         _______ _______ _______ _____ _____    ______ ____
ROOT
ATOM      1  C   LIG    1       23.335 -19.286   4.961  0.00  0.00    +0.062 A 
ATOM      2  C   LIG    1       24.451 -19.935   5.592  0.00  0.00    +0.058 A 
ATOM      3  I   LIG    1       23.985 -21.570   6.952  0.00  0.00    -0.040 I 
ATOM      4  C   LIG    1       25.776 -19.599   5.227  0.00  0.00    +0.065 A 
ATOM      5  C   LIG    1       25.906 -18.721   4.131  0.00  0.00    +0.049 A 
ATOM      6  I   LIG    1       26.870 -19.880   2.346  0.00  0.00    -0.041 I 
ATOM      7  C   LIG    1       24.831 -17.974   3.619  0.00  0.00    +0.067 A 
ATOM      8  C   LIG    1       23.533 -18.348   3.933  0.00  0.00    +0.049 A 
ATOM      9  I   LIG    1       21.903 -17.617   2.780  0.00  0.00    -0.041 I 
ENDROOT
BRANCH   1  12
ATOM     10  C   LIG    1       21.601 -21.439   3.825  0.00  0.00    +0.109 C 
ATOM     11  C   LIG    1       21.147 -20.464   4.890  0.00  0.00    +0.214 C 
ATOM     12  N   LIG    1       22.007 -19.513   5.380  0.00  0.00    -0.284 N 
ATOM     13  H   LIG    1       21.758 -19.257   6.333  0.00  0.00    +0.155 HD
ATOM     14  O   LIG    1       20.031 -20.567   5.402  0.00  0.00    -0.276 OA
ENDBRANCH   1  12
BRANCH   4  15
ATOM     15  N   LIG    1       26.974 -19.948   5.954  0.00  0.00    -0.273 N 
ATOM     16  C   LIG    1       28.223 -19.327   5.774  0.00  0.00    +0.216 C 
ATOM     17  O   LIG    1       29.251 -19.737   6.321  0.00  0.00    -0.276 OA
ATOM     18  C   LIG    1       28.314 -18.063   4.951  0.00  0.00    +0.110 C 
ATOM     19  C   LIG    1       26.952 -21.063   6.890  0.00  0.00    +0.138 C 
ENDBRANCH   4  15
BRANCH   7  20
ATOM     20  C   LIG    1       25.204 -16.639   3.095  0.00  0.00    +0.247 C 
ATOM     21  N   LIG    1       24.509 -15.555   3.619  0.00  0.00    -0.299 N 
ATOM     22  H   LIG    1       23.828 -15.682   4.350  0.00  0.00    +0.150 HD
ATOM     23  O   LIG    1       26.125 -16.532   2.325  0.00  0.00    -0.270 OA
BRANCH  21  24
ATOM     24  CA  LIG    1       24.842 -14.163   3.286  0.00  0.00    +0.167 C 
BRANCH  24  25
ATOM     25  C   LIG    1       23.994 -13.272   4.186  0.00  0.00    +0.248 C 
ATOM     26  O   LIG    1       24.465 -12.388   4.904  0.00  0.00    -0.299 OA
ENDBRANCH  24  25
BRANCH  24  27
ATOM     27  C   LIG    1       26.337 -13.789   3.368  0.00  0.00    +0.173 C 
BRANCH  27  28
ATOM     28  O   LIG    1       26.955 -14.076   2.103  0.00  0.00    -0.387 OA
ATOM     29  H   LIG    1       27.728 -13.468   2.036  0.00  0.00    +0.210 HD
ENDBRANCH  27  28
BRANCH  27  30
ATOM     30  C   LIG    1       27.067 -14.567   4.499  0.00  0.00    +0.176 C 
BRANCH  30  31
ATOM     31  O   LIG    1       28.050 -15.431   3.902  0.00  0.00    -0.387 OA
ATOM     32  H   LIG    1       27.564 -15.900   3.190  0.00  0.00    +0.210 HD
ENDBRANCH  30  31
BRANCH  30  33
ATOM     33  C   LIG    1       27.791 -13.631   5.483  0.00  0.00    +0.171 C 
BRANCH  33  34
ATOM     34  O   LIG    1       26.837 -13.201   6.479  0.00  0.00    -0.387 OA
ATOM     35  H   LIG    1       26.144 -12.722   5.976  0.00  0.00    +0.210 HD
ENDBRANCH  33  34
BRANCH  33  36
ATOM     36  C   LIG    1       28.370 -12.386   4.795  0.00  0.00    +0.190 C 
BRANCH  36  37
ATOM     37  O   LIG    1       29.305 -12.822   3.804  0.00  0.00    -0.392 OA
ATOM     38  H   LIG    1       29.568 -12.036   3.293  0.00  0.00    +0.209 HD
ENDBRANCH  36  37
ENDBRANCH  33  36
ENDBRANCH  30  33
ENDBRANCH  27  30
ENDBRANCH  24  27
ENDBRANCH  21  24
ENDBRANCH   7  20
TORSDOF 13
ENDMDL
