MODEL 1
REMARK VINA RESULT:      -8.0      0.000      0.000
REMARK  Name = *****
REMARK                            x       y       z     vdW  Elec       q    Type
REMARK                         _______ _______ _______ _____ _____    ______ ____
ROOT
ATOM      1  CA  LIG    1       27.333 -21.752   7.931  0.00  0.00    +0.299 C 
ATOM      2  C   LIG    1       27.930 -20.963   6.786  0.00  0.00    +0.253 C 
ATOM      3  O   LIG    1       29.108 -20.593   6.799  0.00  0.00    -0.273 OA
ATOM      4  N   LIG    1       27.151 -20.594   5.725  0.00  0.00    -0.283 N 
ATOM      5  H   LIG    1       27.598 -19.886   5.152  0.00  0.00    +0.155 HD
ATOM      6  C   LIG    1       25.799 -20.885   5.514  0.00  0.00    +0.043 A 
ATOM      7  C   LIG    1       25.150 -22.032   5.992  0.00  0.00    +0.023 A 
ATOM      8  C   LIG    1       23.762 -22.167   5.816  0.00  0.00    +0.032 A 
ATOM      9  C   LIG    1       23.046 -21.202   5.111  0.00  0.00    +0.042 A 
ATOM     10  C   LIG    1       23.700 -20.101   4.569  0.00  0.00    +0.022 A 
ATOM     11 CL   LIG    1       21.353 -21.390   4.882  0.00  0.00    -0.084 Cl
ATOM     12  C   LIG    1       25.892 -23.175   6.606  0.00  0.00    +0.076 C 
ATOM     13  C   LIG    1       25.073 -19.946   4.767  0.00  0.00    +0.025 A 
ATOM     14  N   LIG    1       26.819 -23.071   7.499  0.00  0.00    -0.259 NA
ENDROOT
BRANCH  12  15
ATOM     15  C   LIG    1       25.538 -24.568   6.170  0.00  0.00    +0.001 A 
ATOM     16  C   LIG    1       25.721 -25.634   7.060  0.00  0.00    +0.010 A 
ATOM     17  C   LIG    1       25.405 -26.935   6.670  0.00  0.00    +0.001 A 
ATOM     18  C   LIG    1       24.916 -27.180   5.388  0.00  0.00    +0.000 A 
ATOM     19  C   LIG    1       24.752 -26.128   4.488  0.00  0.00    +0.001 A 
ATOM     20  C   LIG    1       25.068 -24.823   4.873  0.00  0.00    +0.010 A 
ENDBRANCH  12  15
BRANCH   1  22
ATOM     21  O   LIG    1       26.173 -19.807   8.853  0.00  0.00    -0.248 OA
ATOM     22  C   LIG    1       26.303 -21.019   8.768  0.00  0.00    +0.339 C 
BRANCH  22  23
ATOM     23  OXT LIG    1       25.523 -21.887   9.473  0.00  0.00    -0.479 OA
ATOM     24  HXT LIG    1       24.587 -21.751   9.200  0.00  0.00    +0.295 HD
ENDBRANCH  22  23
ENDBRANCH   1  22
TORSDOF 3
ENDMDL
MODEL 2
REMARK VINA RESULT:      -7.3      6.543      9.402
REMARK  Name = *****
REMARK                            x       y       z     vdW  Elec       q    Type
REMARK                         _______ _______ _______ _____ _____    ______ ____
ROOT
ATOM      1  CA  LIG    1       25.430 -31.820   5.516  0.00  0.00    +0.299 C 
ATOM      2  C   LIG    1       26.741 -32.244   6.143  0.00  0.00    +0.253 C 
ATOM      3  O   LIG    1       27.586 -32.882   5.507  0.00  0.00    -0.273 OA
ATOM      4  N   LIG    1       26.995 -31.972   7.458  0.00  0.00    -0.283 N 
ATOM      5  H   LIG    1       27.784 -32.501   7.811  0.00  0.00    +0.155 HD
ATOM      6  C   LIG    1       26.178 -31.284   8.362  0.00  0.00    +0.043 A 
ATOM      7  C   LIG    1       25.272 -30.277   8.005  0.00  0.00    +0.023 A 
ATOM      8  C   LIG    1       24.421 -29.732   8.983  0.00  0.00    +0.032 A 
ATOM      9  C   LIG    1       24.526 -30.140  10.311  0.00  0.00    +0.042 A 
ATOM     10  C   LIG    1       25.476 -31.084  10.682  0.00  0.00    +0.022 A 
ATOM     11 CL   LIG    1       23.495 -29.449  11.501  0.00  0.00    -0.084 Cl
ATOM     12  C   LIG    1       25.233 -29.682   6.634  0.00  0.00    +0.076 C 
ATOM     13  C   LIG    1       26.303 -31.650   9.710  0.00  0.00    +0.025 A 
ATOM     14  N   LIG    1       25.249 -30.350   5.529  0.00  0.00    -0.259 NA
ENDROOT
BRANCH  12  15
ATOM     15  C   LIG    1       25.158 -28.187   6.510  0.00  0.00    +0.001 A 
ATOM     16  C   LIG    1       24.207 -27.616   5.655  0.00  0.00    +0.010 A 
ATOM     17  C   LIG    1       24.128 -26.230   5.521  0.00  0.00    +0.001 A 
ATOM     18  C   LIG    1       25.004 -25.409   6.229  0.00  0.00    +0.000 A 
ATOM     19  C   LIG    1       25.968 -25.971   7.065  0.00  0.00    +0.001 A 
ATOM     20  C   LIG    1       26.052 -27.358   7.202  0.00  0.00    +0.010 A 
ENDBRANCH  12  15
BRANCH   1  22
ATOM     21  O   LIG    1       24.172 -33.458   6.823  0.00  0.00    -0.248 OA
ATOM     22  C   LIG    1       24.193 -32.521   6.040  0.00  0.00    +0.339 C 
BRANCH  22  23
ATOM     23  OXT LIG    1       23.056 -31.997   5.501  0.00  0.00    -0.479 OA
ATOM     24  HXT LIG    1       22.370 -32.704   5.481  0.00  0.00    +0.295 HD
ENDBRANCH  22  23
ENDBRANCH   1  22
TORSDOF 3
ENDMDL
MODEL 3
REMARK VINA RESULT:      -7.3      2.967      4.312
REMARK  Name = *****
REMARK                            x       y       z     vdW  Elec       q    Type
REMARK                         _______ _______ _______ _____ _____    ______ ____
ROOT
ATOM      1  CA  LIG    1       23.905 -21.172   4.375  0.00  0.00    +0.299 C 
ATOM      2  C   LIG    1       23.113 -20.654   5.555  0.00  0.00    +0.253 C 
ATOM      3  O   LIG    1       21.956 -20.242   5.428  0.00  0.00    -0.273 OA
ATOM      4  N   LIG    1       23.690 -20.582   6.792  0.00  0.00    -0.283 N 
ATOM      5  H   LIG    1       23.148 -20.013   7.433  0.00  0.00    +0.155 HD
ATOM      6  C   LIG    1       24.982 -20.973   7.158  0.00  0.00    +0.043 A 
ATOM      7  C   LIG    1       25.706 -22.000   6.536  0.00  0.00    +0.023 A 
ATOM      8  C   LIG    1       27.041 -22.233   6.912  0.00  0.00    +0.032 A 
ATOM      9  C   LIG    1       27.618 -21.496   7.943  0.00  0.00    +0.042 A 
ATOM     10  C   LIG    1       26.879 -20.528   8.614  0.00  0.00    +0.022 A 
ATOM     11 CL   LIG    1       29.244 -21.806   8.409  0.00  0.00    -0.084 Cl
ATOM     12  C   LIG    1       25.086 -22.931   5.545  0.00  0.00    +0.076 C 
ATOM     13  C   LIG    1       25.563 -20.272   8.224  0.00  0.00    +0.025 A 
ATOM     14  N   LIG    1       24.333 -22.577   4.556  0.00  0.00    -0.259 NA
ENDROOT
BRANCH  12  15
ATOM     15  C   LIG    1       25.357 -24.402   5.685  0.00  0.00    +0.001 A 
ATOM     16  C   LIG    1       25.174 -25.242   4.579  0.00  0.00    +0.010 A 
ATOM     17  C   LIG    1       25.413 -26.612   4.693  0.00  0.00    +0.001 A 
ATOM     18  C   LIG    1       25.824 -27.150   5.911  0.00  0.00    +0.000 A 
ATOM     19  C   LIG    1       25.986 -26.324   7.022  0.00  0.00    +0.001 A 
ATOM     20  C   LIG    1       25.747 -24.952   6.914  0.00  0.00    +0.010 A 
ENDBRANCH  12  15
BRANCH   1  22
ATOM     21  O   LIG    1       25.728 -19.566   4.643  0.00  0.00    -0.248 OA
ATOM     22  C   LIG    1       25.067 -20.306   3.931  0.00  0.00    +0.339 C 
BRANCH  22  23
ATOM     23  OXT LIG    1       25.291 -20.418   2.591  0.00  0.00    -0.479 OA
ATOM     24  HXT LIG    1       26.179 -20.822   2.460  0.00  0.00    +0.295 HD
ENDBRANCH  22  23
ENDBRANCH   1  22
TORSDOF 3
ENDMDL
MODEL 4
REMARK VINA RESULT:      -7.2      2.789      5.178
REMARK  Name = *****
REMARK                            x       y       z     vdW  Elec       q    Type
REMARK                         _______ _______ _______ _____ _____    ______ ____
ROOT
ATOM      1  CA  LIG    1       23.851 -20.564   5.865  0.00  0.00    +0.299 C 
ATOM      2  C   LIG    1       23.861 -21.004   4.418  0.00  0.00    +0.253 C 
ATOM      3  O   LIG    1       23.375 -20.303   3.524  0.00  0.00    -0.273 OA
ATOM      4  N   LIG    1       24.366 -22.227   4.074  0.00  0.00    -0.283 N 
ATOM      5  H   LIG    1       24.106 -22.495   3.131  0.00  0.00    +0.155 HD
ATOM      6  C   LIG    1       24.943 -23.182   4.917  0.00  0.00    +0.043 A 
ATOM      7  C   LIG    1       25.631 -22.883   6.101  0.00  0.00    +0.023 A 
ATOM      8  C   LIG    1       26.072 -23.929   6.929  0.00  0.00    +0.032 A 
ATOM      9  C   LIG    1       25.890 -25.255   6.543  0.00  0.00    +0.042 A 
ATOM     10  C   LIG    1       25.276 -25.555   5.332  0.00  0.00    +0.022 A 
ATOM     11 CL   LIG    1       26.455 -26.526   7.554  0.00  0.00    -0.084 Cl
ATOM     12  C   LIG    1       26.002 -21.486   6.482  0.00  0.00    +0.076 C 
ATOM     13  C   LIG    1       24.808 -24.520   4.520  0.00  0.00    +0.025 A 
ATOM     14  N   LIG    1       25.215 -20.463   6.433  0.00  0.00    -0.259 NA
ENDROOT
BRANCH  12  15
ATOM     15  C   LIG    1       27.399 -21.230   6.973  0.00  0.00    +0.001 A 
ATOM     16  C   LIG    1       28.255 -20.419   6.217  0.00  0.00    +0.010 A 
ATOM     17  C   LIG    1       29.557 -20.177   6.653  0.00  0.00    +0.001 A 
ATOM     18  C   LIG    1       30.014 -20.750   7.838  0.00  0.00    +0.000 A 
ATOM     19  C   LIG    1       29.176 -21.577   8.585  0.00  0.00    +0.001 A 
ATOM     20  C   LIG    1       27.871 -21.824   8.152  0.00  0.00    +0.010 A 
ENDBRANCH  12  15
BRANCH   1  22
ATOM     21  O   LIG    1       22.947 -21.321   8.007  0.00  0.00    -0.248 OA
ATOM     22  C   LIG    1       22.939 -21.350   6.786  0.00  0.00    +0.339 C 
BRANCH  22  23
ATOM     23  OXT LIG    1       22.091 -22.153   6.082  0.00  0.00    -0.479 OA
ATOM     24  HXT LIG    1       22.137 -23.059   6.464  0.00  0.00    +0.295 HD
ENDBRANCH  22  23
ENDBRANCH   1  22
TORSDOF 3
ENDMDL
MODEL 5
REMARK VINA RESULT:      -6.7      7.085      9.218
REMARK  Name = *****
REMARK                            x       y       z     vdW  Elec       q    Type
REMARK                         _______ _______ _______ _____ _____    ______ ____
ROOT
ATOM      1  CA  LIG    1       25.110 -32.608   7.232  0.00  0.00    +0.299 C 
ATOM      2  C   LIG    1       23.974 -32.468   6.243  0.00  0.00    +0.253 C 
ATOM      3  O   LIG    1       23.393 -33.454   5.780  0.00  0.00    -0.273 OA
ATOM      4  N   LIG    1       23.600 -31.231   5.796  0.00  0.00    -0.283 N 
ATOM      5  H   LIG    1       23.001 -31.286   4.980  0.00  0.00    +0.155 HD
ATOM      6  C   LIG    1       24.129 -29.991   6.169  0.00  0.00    +0.043 A 
ATOM      7  C   LIG    1       24.690 -29.712   7.423  0.00  0.00    +0.023 A 
ATOM      8  C   LIG    1       25.294 -28.463   7.650  0.00  0.00    +0.032 A 
ATOM      9  C   LIG    1       25.273 -27.483   6.660  0.00  0.00    +0.042 A 
ATOM     10  C   LIG    1       24.649 -27.729   5.442  0.00  0.00    +0.022 A 
ATOM     11 CL   LIG    1       25.994 -25.951   6.958  0.00  0.00    -0.084 Cl
ATOM     12  C   LIG    1       24.593 -30.661   8.574  0.00  0.00    +0.076 C 
ATOM     13  C   LIG    1       24.075 -28.979   5.201  0.00  0.00    +0.025 A 
ATOM     14  N   LIG    1       24.825 -31.930   8.517  0.00  0.00    -0.259 NA
ENDROOT
BRANCH  12  15
ATOM     15  C   LIG    1       24.204 -30.112   9.917  0.00  0.00    +0.001 A 
ATOM     16  C   LIG    1       25.195 -29.587  10.757  0.00  0.00    +0.010 A 
ATOM     17  C   LIG    1       24.854 -29.079  12.010  0.00  0.00    +0.001 A 
ATOM     18  C   LIG    1       23.527 -29.104  12.436  0.00  0.00    +0.000 A 
ATOM     19  C   LIG    1       22.539 -29.646  11.615  0.00  0.00    +0.001 A 
ATOM     20  C   LIG    1       22.875 -30.157  10.359  0.00  0.00    +0.010 A 
ENDBRANCH  12  15
BRANCH   1  22
ATOM     21  O   LIG    1       26.801 -32.093   5.544  0.00  0.00    -0.248 OA
ATOM     22  C   LIG    1       26.484 -32.231   6.715  0.00  0.00    +0.339 C 
BRANCH  22  23
ATOM     23  OXT LIG    1       27.378 -32.085   7.734  0.00  0.00    -0.479 OA
ATOM     24  HXT LIG    1       27.246 -31.195   8.134  0.00  0.00    +0.295 HD
ENDBRANCH  22  23
ENDBRANCH   1  22
TORSDOF 3
ENDMDL
MODEL 6
REMARK VINA RESULT:      -6.6      6.049      9.067
REMARK  Name = *****
REMARK                            x       y       z     vdW  Elec       q    Type
REMARK                         _______ _______ _______ _____ _____    ______ ____
ROOT
ATOM      1  CA  LIG    1       25.379 -30.101  10.105  0.00  0.00    +0.299 C 
ATOM      2  C   LIG    1       24.002 -30.726  10.153  0.00  0.00    +0.253 C 
ATOM      3  O   LIG    1       23.332 -30.738  11.190  0.00  0.00    -0.273 OA
ATOM      4  N   LIG    1       23.489 -31.346   9.047  0.00  0.00    -0.283 N 
ATOM      5  H   LIG    1       22.681 -31.916   9.271  0.00  0.00    +0.155 HD
ATOM      6  C   LIG    1       24.077 -31.467   7.784  0.00  0.00    +0.043 A 
ATOM      7  C   LIG    1       24.972 -30.539   7.233  0.00  0.00    +0.023 A 
ATOM      8  C   LIG    1       25.589 -30.819   6.001  0.00  0.00    +0.032 A 
ATOM      9  C   LIG    1       25.261 -31.976   5.298  0.00  0.00    +0.042 A 
ATOM     10  C   LIG    1       24.317 -32.861   5.805  0.00  0.00    +0.022 A 
ATOM     11 CL   LIG    1       26.005 -32.294   3.782  0.00  0.00    -0.084 Cl
ATOM     12  C   LIG    1       25.233 -29.207   7.860  0.00  0.00    +0.076 C 
ATOM     13  C   LIG    1       23.723 -32.603   7.043  0.00  0.00    +0.025 A 
ATOM     14  N   LIG    1       25.465 -29.004   9.114  0.00  0.00    -0.259 NA
ENDROOT
BRANCH  12  15
ATOM     15  C   LIG    1       25.239 -27.994   6.974  0.00  0.00    +0.001 A 
ATOM     16  C   LIG    1       26.186 -26.986   7.197  0.00  0.00    +0.010 A 
ATOM     17  C   LIG    1       26.202 -25.849   6.390  0.00  0.00    +0.001 A 
ATOM     18  C   LIG    1       25.268 -25.707   5.365  0.00  0.00    +0.000 A 
ATOM     19  C   LIG    1       24.308 -26.696   5.151  0.00  0.00    +0.001 A 
ATOM     20  C   LIG    1       24.287 -27.836   5.957  0.00  0.00    +0.010 A 
ENDBRANCH  12  15
BRANCH   1  22
ATOM     21  O   LIG    1       26.452 -32.281   9.833  0.00  0.00    -0.248 OA
ATOM     22  C   LIG    1       26.536 -31.067   9.943  0.00  0.00    +0.339 C 
BRANCH  22  23
ATOM     23  OXT LIG    1       27.735 -30.419   9.964  0.00  0.00    -0.479 OA
ATOM     24  HXT LIG    1       28.265 -30.777  10.713  0.00  0.00    +0.295 HD
ENDBRANCH  22  23
ENDBRANCH   1  22
TORSDOF 3
ENDMDL
MODEL 7
REMARK VINA RESULT:      -6.6      6.238      9.016
REMARK  Name = *****
REMARK                            x       y       z     vdW  Elec       q    Type
REMARK                         _______ _______ _______ _____ _____    ______ ____
ROOT
ATOM      1  CA  LIG    1       24.069 -31.463   7.516  0.00  0.00    +0.299 C 
ATOM      2  C   LIG    1       25.378 -32.217   7.432  0.00  0.00    +0.253 C 
ATOM      3  O   LIG    1       25.483 -33.261   6.780  0.00  0.00    -0.273 OA
ATOM      4  N   LIG    1       26.469 -31.780   8.130  0.00  0.00    -0.283 N 
ATOM      5  H   LIG    1       27.198 -32.485   8.177  0.00  0.00    +0.155 HD
ATOM      6  C   LIG    1       26.569 -30.644   8.940  0.00  0.00    +0.043 A 
ATOM      7  C   LIG    1       25.830 -29.469   8.751  0.00  0.00    +0.023 A 
ATOM      8  C   LIG    1       25.928 -28.429   9.693  0.00  0.00    +0.032 A 
ATOM      9  C   LIG    1       26.806 -28.538  10.769  0.00  0.00    +0.042 A 
ATOM     10  C   LIG    1       27.598 -29.671  10.917  0.00  0.00    +0.022 A 
ATOM     11 CL   LIG    1       26.934 -27.251  11.901  0.00  0.00    -0.084 Cl
ATOM     12  C   LIG    1       25.001 -29.229   7.530  0.00  0.00    +0.076 C 
ATOM     13  C   LIG    1       27.482 -30.719  10.001  0.00  0.00    +0.025 A 
ATOM     14  N   LIG    1       24.183 -30.078   7.004  0.00  0.00    -0.259 NA
ENDROOT
BRANCH  12  15
ATOM     15  C   LIG    1       25.108 -27.894   6.849  0.00  0.00    +0.001 A 
ATOM     16  C   LIG    1       24.147 -27.530   5.898  0.00  0.00    +0.010 A 
ATOM     17  C   LIG    1       24.233 -26.298   5.250  0.00  0.00    +0.001 A 
ATOM     18  C   LIG    1       25.285 -25.430   5.539  0.00  0.00    +0.000 A 
ATOM     19  C   LIG    1       26.258 -25.795   6.468  0.00  0.00    +0.001 A 
ATOM     20  C   LIG    1       26.177 -27.028   7.119  0.00  0.00    +0.010 A 
ENDBRANCH  12  15
BRANCH   1  22
ATOM     21  O   LIG    1       22.575 -30.667   9.279  0.00  0.00    -0.248 OA
ATOM     22  C   LIG    1       23.383 -31.484   8.867  0.00  0.00    +0.339 C 
BRANCH  22  23
ATOM     23  OXT LIG    1       23.801 -32.540   9.623  0.00  0.00    -0.479 OA
ATOM     24  HXT LIG    1       24.774 -32.634   9.507  0.00  0.00    +0.295 HD
ENDBRANCH  22  23
ENDBRANCH   1  22
TORSDOF 3
ENDMDL
MODEL 8
REMARK VINA RESULT:      -6.3      2.835      5.093
REMARK  Name = *****
REMARK                            x       y       z     vdW  Elec       q    Type
REMARK                         _______ _______ _______ _____ _____    ______ ____
ROOT
ATOM      1  CA  LIG    1       24.631 -23.950   6.093  0.00  0.00    +0.299 C 
ATOM      2  C   LIG    1       23.292 -23.417   6.557  0.00  0.00    +0.253 C 
ATOM      3  O   LIG    1       22.496 -24.124   7.183  0.00  0.00    -0.273 OA
ATOM      4  N   LIG    1       22.913 -22.142   6.242  0.00  0.00    -0.283 N 
ATOM      5  H   LIG    1       21.923 -21.988   6.404  0.00  0.00    +0.155 HD
ATOM      6  C   LIG    1       23.643 -21.183   5.533  0.00  0.00    +0.043 A 
ATOM      7  C   LIG    1       25.042 -21.104   5.514  0.00  0.00    +0.023 A 
ATOM      8  C   LIG    1       25.672 -20.168   4.676  0.00  0.00    +0.032 A 
ATOM      9  C   LIG    1       24.912 -19.277   3.922  0.00  0.00    +0.042 A 
ATOM     10  C   LIG    1       23.524 -19.301   3.996  0.00  0.00    +0.022 A 
ATOM     11 CL   LIG    1       25.695 -18.121   2.918  0.00  0.00    -0.084 Cl
ATOM     12  C   LIG    1       25.903 -21.918   6.426  0.00  0.00    +0.076 C 
ATOM     13  C   LIG    1       22.892 -20.249   4.804  0.00  0.00    +0.025 A 
ATOM     14  N   LIG    1       25.767 -23.182   6.651  0.00  0.00    -0.259 NA
ENDROOT
BRANCH  12  15
ATOM     15  C   LIG    1       27.030 -21.229   7.141  0.00  0.00    +0.001 A 
ATOM     16  C   LIG    1       28.351 -21.492   6.754  0.00  0.00    +0.010 A 
ATOM     17  C   LIG    1       29.411 -20.868   7.411  0.00  0.00    +0.001 A 
ATOM     18  C   LIG    1       29.159 -19.988   8.463  0.00  0.00    +0.000 A 
ATOM     19  C   LIG    1       27.849 -19.739   8.869  0.00  0.00    +0.001 A 
ATOM     20  C   LIG    1       26.784 -20.362   8.215  0.00  0.00    +0.010 A 
ENDBRANCH  12  15
BRANCH   1  22
ATOM     21  O   LIG    1       24.420 -23.345   3.734  0.00  0.00    -0.248 OA
ATOM     22  C   LIG    1       24.783 -24.130   4.596  0.00  0.00    +0.339 C 
BRANCH  22  23
ATOM     23  OXT LIG    1       25.366 -25.325   4.294  0.00  0.00    -0.479 OA
ATOM     24  HXT LIG    1       24.731 -26.043   4.521  0.00  0.00    +0.295 HD
ENDBRANCH  22  23
ENDBRANCH   1  22
TORSDOF 3
ENDMDL
MODEL 9
REMARK VINA RESULT:      -6.2      6.708      8.878
REMARK  Name = *****
REMARK                            x       y       z     vdW  Elec       q    Type
REMARK                         _______ _______ _______ _____ _____    ______ ____
ROOT
ATOM      1  CA  LIG    1       24.245 -31.734   9.936  0.00  0.00    +0.299 C 
ATOM      2  C   LIG    1       25.632 -31.304  10.361  0.00  0.00    +0.253 C 
ATOM      3  O   LIG    1       26.200 -31.816  11.331  0.00  0.00    -0.273 OA
ATOM      4  N   LIG    1       26.269 -30.290   9.703  0.00  0.00    -0.283 N 
ATOM      5  H   LIG    1       27.073 -29.947  10.218  0.00  0.00    +0.155 HD
ATOM      6  C   LIG    1       25.809 -29.563   8.599  0.00  0.00    +0.043 A 
ATOM      7  C   LIG    1       24.939 -30.069   7.624  0.00  0.00    +0.023 A 
ATOM      8  C   LIG    1       24.452 -29.214   6.620  0.00  0.00    +0.032 A 
ATOM      9  C   LIG    1       24.885 -27.892   6.552  0.00  0.00    +0.042 A 
ATOM     10  C   LIG    1       25.808 -27.408   7.473  0.00  0.00    +0.022 A 
ATOM     11 CL   LIG    1       24.301 -26.863   5.305  0.00  0.00    -0.084 Cl
ATOM     12  C   LIG    1       24.573 -31.516   7.548  0.00  0.00    +0.076 C 
ATOM     13  C   LIG    1       26.271 -28.244   8.491  0.00  0.00    +0.025 A 
ATOM     14  N   LIG    1       24.215 -32.250   8.549  0.00  0.00    -0.259 NA
ENDROOT
BRANCH  12  15
ATOM     15  C   LIG    1       24.608 -32.189   6.205  0.00  0.00    +0.001 A 
ATOM     16  C   LIG    1       23.479 -32.884   5.755  0.00  0.00    +0.010 A 
ATOM     17  C   LIG    1       23.495 -33.520   4.515  0.00  0.00    +0.001 A 
ATOM     18  C   LIG    1       24.642 -33.477   3.723  0.00  0.00    +0.000 A 
ATOM     19  C   LIG    1       25.779 -32.807   4.174  0.00  0.00    +0.001 A 
ATOM     20  C   LIG    1       25.767 -32.168   5.416  0.00  0.00    +0.010 A 
ENDBRANCH  12  15
BRANCH   1  22
ATOM     21  O   LIG    1       22.056 -30.699   9.605  0.00  0.00    -0.248 OA
ATOM     22  C   LIG    1       23.144 -30.717  10.158  0.00  0.00    +0.339 C 
BRANCH  22  23
ATOM     23  OXT LIG    1       23.520 -29.762  11.057  0.00  0.00    -0.479 OA
ATOM     24  HXT LIG    1       23.640 -28.913  10.572  0.00  0.00    +0.295 HD
ENDBRANCH  22  23
ENDBRANCH   1  22
TORSDOF 3
ENDMDL
