MODEL 1
REMARK VINA RESULT:      -8.1      0.000      0.000
REMARK  Name = *****
REMARK                            x       y       z     vdW  Elec       q    Type
REMARK                         _______ _______ _______ _____ _____    ______ ____
ROOT
ATOM      1  C   LIG    1       24.063 -30.536  10.241  0.00  0.00    -0.004 C 
ATOM      2  C   LIG    1       24.888 -30.797  11.320  0.00  0.00    -0.016 C 
ATOM      3  C   LIG    1       26.252 -30.304  11.483  0.00  0.00    +0.015 C 
ATOM      4  C   LIG    1       26.566 -29.595  12.577  0.00  0.00    +0.078 C 
ATOM      5  C   LIG    1       25.538 -29.580  13.679  0.00  0.00    +0.203 C 
ATOM      6  N   LIG    1       25.328 -28.572  14.479  0.00  0.00    -0.225 N 
ATOM      7  C   LIG    1       24.813 -30.900  13.739  0.00  0.00    +0.078 C 
ATOM      8  C   LIG    1       24.520 -31.492  12.561  0.00  0.00    +0.015 C 
ENDROOT
BRANCH   1  12
ATOM      9  C   LIG    1       25.468 -28.001   6.790  0.00  0.00    +0.030 A 
ATOM     10  C   LIG    1       24.436 -28.912   6.670  0.00  0.00    +0.024 A 
ATOM     11  C   LIG    1       24.033 -29.737   7.728  0.00  0.00    +0.010 A 
ATOM     12  C   LIG    1       24.581 -29.716   9.015  0.00  0.00    -0.017 A 
ATOM     13  C   LIG    1       25.704 -28.882   9.084  0.00  0.00    +0.010 A 
ATOM     14  C   LIG    1       26.121 -28.047   8.023  0.00  0.00    +0.024 A 
BRANCH   9  15
ATOM     15  N   LIG    1       25.876 -27.170   5.737  0.00  0.00    -0.326 N 
BRANCH  15  17
ATOM     16  C   LIG    1       27.958 -27.360   4.387  0.00  0.00    +0.024 C 
ATOM     17  C   LIG    1       26.539 -27.860   4.606  0.00  0.00    +0.102 C 
ENDBRANCH  15  17
BRANCH  15  18
ATOM     18  C   LIG    1       26.414 -25.825   6.073  0.00  0.00    +0.140 C 
BRANCH  18  19
ATOM     19  C   LIG    1       25.352 -24.814   6.498  0.00  0.00    -0.028 A 
ATOM     20  C   LIG    1       25.752 -23.553   6.986  0.00  0.00    +0.034 A 
ATOM     21  C   LIG    1       24.799 -22.563   7.276  0.00  0.00    +0.117 A 
ATOM     22  C   LIG    1       23.443 -22.791   7.043  0.00  0.00    +0.029 A 
ATOM     23  C   LIG    1       23.035 -24.041   6.581  0.00  0.00    +0.002 A 
ATOM     24  C   LIG    1       23.979 -25.043   6.319  0.00  0.00    +0.005 A 
BRANCH  21  25
ATOM     25  S   LIG    1       25.311 -20.991   7.922  0.00  0.00    +0.110 S 
ATOM     26  O   LIG    1       26.063 -20.287   6.927  0.00  0.00    -0.142 OA
ATOM     27  O   LIG    1       25.848 -21.202   9.258  0.00  0.00    -0.142 OA
BRANCH  25  28
ATOM     28  O   LIG    1       23.926 -20.184   8.122  0.00  0.00    -0.250 OA
ATOM     29  H   LIG    1       23.208 -20.849   8.197  0.00  0.00    +0.245 HD
ENDBRANCH  25  28
ENDBRANCH  21  25
ENDBRANCH  18  19
ENDBRANCH  15  18
ENDBRANCH   9  15
ENDBRANCH   1  12
BRANCH   1  30
ATOM     30  C   LIG    1       22.590 -31.041  10.287  0.00  0.00    -0.017 A 
ATOM     31  C   LIG    1       22.207 -32.304   9.789  0.00  0.00    +0.010 A 
ATOM     32  C   LIG    1       20.886 -32.779   9.850  0.00  0.00    +0.030 A 
ATOM     33  C   LIG    1       19.909 -32.026  10.490  0.00  0.00    +0.117 A 
ATOM     34  C   LIG    1       20.238 -30.791  11.032  0.00  0.00    +0.030 A 
ATOM     35  C   LIG    1       21.548 -30.298  10.889  0.00  0.00    +0.010 A 
BRANCH  33  36
ATOM     36  S   LIG    1       18.234 -32.604  10.548  0.00  0.00    +0.110 S 
ATOM     37  O   LIG    1       17.398 -31.457  10.834  0.00  0.00    -0.142 OA
ATOM     38  O   LIG    1       18.170 -33.805  11.342  0.00  0.00    -0.142 OA
BRANCH  36  39
ATOM     39  O   LIG    1       17.907 -33.048   9.032  0.00  0.00    -0.250 OA
ATOM     40  H   LIG    1       18.376 -33.897   8.868  0.00  0.00    +0.245 HD
ENDBRANCH  36  39
ENDBRANCH  33  36
ENDBRANCH   1  30
BRANCH   6  41
ATOM     41  C   LIG    1       26.096 -27.282  14.265  0.00  0.00    +0.348 C 
ATOM     42  C   LIG    1       25.969 -26.374  15.479  0.00  0.00    +0.082 C 
ENDBRANCH   6  41
BRANCH   6  43
ATOM     43  C   LIG    1       24.118 -28.502  15.423  0.00  0.00    +0.387 C 
BRANCH  43  44
ATOM     44  C   LIG    1       22.766 -28.129  14.831  0.00  0.00    +0.019 A 
ATOM     45  C   LIG    1       21.620 -28.908  15.057  0.00  0.00    +0.039 A 
ATOM     46  C   LIG    1       20.401 -28.584  14.435  0.00  0.00    +0.117 A 
ATOM     47  C   LIG    1       20.290 -27.506  13.552  0.00  0.00    +0.029 A 
ATOM     48  C   LIG    1       21.432 -26.758  13.277  0.00  0.00    +0.002 A 
ATOM     49  C   LIG    1       22.653 -27.074  13.894  0.00  0.00    +0.010 A 
BRANCH  46  50
ATOM     50  S   LIG    1       18.941 -29.558  14.709  0.00  0.00    +0.110 S 
ATOM     51  O   LIG    1       18.047 -28.795  15.500  0.00  0.00    -0.142 OA
ATOM     52  O   LIG    1       19.404 -30.882  15.128  0.00  0.00    -0.142 OA
BRANCH  50  53
ATOM     53  O   LIG    1       18.295 -29.764  13.248  0.00  0.00    -0.250 OA
ATOM     54  H   LIG    1       18.726 -30.517  12.801  0.00  0.00    +0.245 HD
ENDBRANCH  50  53
ENDBRANCH  46  50
ENDBRANCH  43  44
ENDBRANCH   6  43
TORSDOF 15
ENDMDL
MODEL 2
REMARK VINA RESULT:      -7.0      3.827      9.860
REMARK  Name = *****
REMARK                            x       y       z     vdW  Elec       q    Type
REMARK                         _______ _______ _______ _____ _____    ______ ____
ROOT
ATOM      1  C   LIG    1       23.347 -29.621  14.245  0.00  0.00    -0.004 C 
ATOM      2  C   LIG    1       23.808 -30.923  14.174  0.00  0.00    -0.016 C 
ATOM      3  C   LIG    1       22.971 -32.111  14.031  0.00  0.00    +0.015 C 
ATOM      4  C   LIG    1       23.186 -32.943  13.001  0.00  0.00    +0.078 C 
ATOM      5  C   LIG    1       24.447 -32.713  12.210  0.00  0.00    +0.203 C 
ATOM      6  N   LIG    1       24.566 -32.928  10.930  0.00  0.00    -0.225 N 
ATOM      7  C   LIG    1       25.552 -32.226  13.113  0.00  0.00    +0.078 C 
ATOM      8  C   LIG    1       25.208 -31.358  14.089  0.00  0.00    +0.015 C 
ENDROOT
BRANCH   1  12
ATOM      9  C   LIG    1       18.893 -28.933  14.255  0.00  0.00    +0.030 A 
ATOM     10  C   LIG    1       19.692 -28.603  13.177  0.00  0.00    +0.024 A 
ATOM     11  C   LIG    1       21.083 -28.769  13.193  0.00  0.00    +0.010 A 
ATOM     12  C   LIG    1       21.814 -29.311  14.256  0.00  0.00    -0.017 A 
ATOM     13  C   LIG    1       21.010 -29.521  15.382  0.00  0.00    +0.010 A 
ATOM     14  C   LIG    1       19.606 -29.355  15.379  0.00  0.00    +0.024 A 
BRANCH   9  15
ATOM     15  N   LIG    1       17.500 -28.773  14.248  0.00  0.00    -0.326 N 
BRANCH  15  17
ATOM     16  C   LIG    1       17.877 -26.313  14.234  0.00  0.00    +0.024 C 
ATOM     17  C   LIG    1       17.011 -27.459  14.729  0.00  0.00    +0.102 C 
ENDBRANCH  15  17
BRANCH  15  18
ATOM     18  C   LIG    1       16.657 -29.944  14.608  0.00  0.00    +0.140 C 
BRANCH  18  19
ATOM     19  C   LIG    1       16.631 -31.045  13.552  0.00  0.00    -0.028 A 
ATOM     20  C   LIG    1       17.241 -30.821  12.301  0.00  0.00    +0.034 A 
ATOM     21  C   LIG    1       17.332 -31.854  11.354  0.00  0.00    +0.117 A 
ATOM     22  C   LIG    1       16.863 -33.133  11.650  0.00  0.00    +0.029 A 
ATOM     23  C   LIG    1       16.238 -33.360  12.874  0.00  0.00    +0.002 A 
ATOM     24  C   LIG    1       16.117 -32.325  13.811  0.00  0.00    +0.005 A 
BRANCH  21  25
ATOM     25  S   LIG    1       18.072 -31.551   9.770  0.00  0.00    +0.110 S 
ATOM     26  O   LIG    1       17.816 -32.662   8.902  0.00  0.00    -0.142 OA
ATOM     27  O   LIG    1       19.427 -31.067   9.986  0.00  0.00    -0.142 OA
BRANCH  25  28
ATOM     28  O   LIG    1       17.238 -30.297   9.186  0.00  0.00    -0.250 OA
ATOM     29  H   LIG    1       17.877 -29.708   8.730  0.00  0.00    +0.245 HD
ENDBRANCH  25  28
ENDBRANCH  21  25
ENDBRANCH  18  19
ENDBRANCH  15  18
ENDBRANCH   9  15
ENDBRANCH   1  12
BRANCH   1  30
ATOM     30  C   LIG    1       24.387 -28.461  14.272  0.00  0.00    -0.017 A 
ATOM     31  C   LIG    1       24.935 -27.909  13.095  0.00  0.00    +0.010 A 
ATOM     32  C   LIG    1       25.854 -26.846  13.109  0.00  0.00    +0.030 A 
ATOM     33  C   LIG    1       26.197 -26.243  14.314  0.00  0.00    +0.117 A 
ATOM     34  C   LIG    1       25.658 -26.723  15.499  0.00  0.00    +0.030 A 
ATOM     35  C   LIG    1       24.804 -27.839  15.472  0.00  0.00    +0.010 A 
BRANCH  33  36
ATOM     36  S   LIG    1       27.376 -24.920  14.344  0.00  0.00    +0.110 S 
ATOM     37  O   LIG    1       28.513 -25.380  15.114  0.00  0.00    -0.142 OA
ATOM     38  O   LIG    1       26.700 -23.685  14.656  0.00  0.00    -0.142 OA
BRANCH  36  39
ATOM     39  O   LIG    1       27.874 -24.787  12.816  0.00  0.00    -0.250 OA
ATOM     40  H   LIG    1       27.856 -23.831  12.584  0.00  0.00    +0.245 HD
ENDBRANCH  36  39
ENDBRANCH  33  36
ENDBRANCH   1  30
BRANCH   6  41
ATOM     41  C   LIG    1       23.350 -33.366  10.135  0.00  0.00    +0.348 C 
ATOM     42  C   LIG    1       22.447 -32.178   9.839  0.00  0.00    +0.082 C 
ENDBRANCH   6  41
BRANCH   6  43
ATOM     43  C   LIG    1       25.782 -32.456  10.119  0.00  0.00    +0.387 C 
BRANCH  43  44
ATOM     44  C   LIG    1       25.701 -31.103   9.427  0.00  0.00    +0.019 A 
ATOM     45  C   LIG    1       25.343 -30.985   8.074  0.00  0.00    +0.039 A 
ATOM     46  C   LIG    1       25.352 -29.731   7.438  0.00  0.00    +0.117 A 
ATOM     47  C   LIG    1       25.743 -28.569   8.110  0.00  0.00    +0.029 A 
ATOM     48  C   LIG    1       26.152 -28.680   9.437  0.00  0.00    +0.002 A 
ATOM     49  C   LIG    1       26.146 -29.929  10.080  0.00  0.00    +0.010 A 
BRANCH  46  50
ATOM     50  S   LIG    1       24.902 -29.563   5.728  0.00  0.00    +0.110 S 
ATOM     51  O   LIG    1       25.417 -30.681   5.027  0.00  0.00    -0.142 OA
ATOM     52  O   LIG    1       25.243 -28.191   5.347  0.00  0.00    -0.142 OA
BRANCH  50  53
ATOM     53  O   LIG    1       23.294 -29.633   5.709  0.00  0.00    -0.250 OA
ATOM     54  H   LIG    1       22.928 -28.747   5.527  0.00  0.00    +0.245 HD
ENDBRANCH  50  53
ENDBRANCH  46  50
ENDBRANCH  43  44
ENDBRANCH   6  43
TORSDOF 15
ENDMDL
MODEL 3
REMARK VINA RESULT:      -6.9      3.383     10.162
REMARK  Name = *****
REMARK                            x       y       z     vdW  Elec       q    Type
REMARK                         _______ _______ _______ _____ _____    ______ ____
ROOT
ATOM      1  C   LIG    1       23.882 -28.984  13.624  0.00  0.00    -0.004 C 
ATOM      2  C   LIG    1       24.357 -30.170  13.094  0.00  0.00    -0.016 C 
ATOM      3  C   LIG    1       23.532 -31.292  12.655  0.00  0.00    +0.015 C 
ATOM      4  C   LIG    1       23.652 -31.739  11.396  0.00  0.00    +0.078 C 
ATOM      5  C   LIG    1       24.819 -31.204  10.606  0.00  0.00    +0.203 C 
ATOM      6  N   LIG    1       24.806 -30.993   9.320  0.00  0.00    -0.225 N 
ATOM      7  C   LIG    1       26.003 -30.975  11.510  0.00  0.00    +0.078 C 
ATOM      8  C   LIG    1       25.748 -30.482  12.742  0.00  0.00    +0.015 C 
ENDROOT
BRANCH   1  12
ATOM      9  C   LIG    1       19.445 -28.572  14.292  0.00  0.00    +0.030 A 
ATOM     10  C   LIG    1       20.098 -27.955  13.242  0.00  0.00    +0.024 A 
ATOM     11  C   LIG    1       21.484 -28.041  13.063  0.00  0.00    +0.010 A 
ATOM     12  C   LIG    1       22.354 -28.773  13.879  0.00  0.00    -0.017 A 
ATOM     13  C   LIG    1       21.699 -29.284  15.005  0.00  0.00    +0.010 A 
ATOM     14  C   LIG    1       20.301 -29.202  15.198  0.00  0.00    +0.024 A 
BRANCH   9  15
ATOM     15  N   LIG    1       18.058 -28.493  14.478  0.00  0.00    -0.326 N 
BRANCH  15  17
ATOM     16  C   LIG    1       16.172 -26.869  14.497  0.00  0.00    +0.024 C 
ATOM     17  C   LIG    1       17.561 -27.204  15.013  0.00  0.00    +0.102 C 
ENDBRANCH  15  17
BRANCH  15  18
ATOM     18  C   LIG    1       17.344 -29.706  14.959  0.00  0.00    +0.140 C 
BRANCH  18  19
ATOM     19  C   LIG    1       17.009 -30.712  13.863  0.00  0.00    -0.028 A 
ATOM     20  C   LIG    1       17.835 -30.797  12.723  0.00  0.00    +0.034 A 
ATOM     21  C   LIG    1       17.618 -31.790  11.754  0.00  0.00    +0.117 A 
ATOM     22  C   LIG    1       16.611 -32.740  11.922  0.00  0.00    +0.029 A 
ATOM     23  C   LIG    1       15.775 -32.652  13.033  0.00  0.00    +0.002 A 
ATOM     24  C   LIG    1       15.968 -31.645  13.989  0.00  0.00    +0.005 A 
BRANCH  21  25
ATOM     25  S   LIG    1       18.642 -31.865  10.307  0.00  0.00    +0.110 S 
ATOM     26  O   LIG    1       18.125 -32.850   9.405  0.00  0.00    -0.142 OA
ATOM     27  O   LIG    1       20.032 -31.899  10.735  0.00  0.00    -0.142 OA
BRANCH  25  28
ATOM     28  O   LIG    1       18.428 -30.426   9.604  0.00  0.00    -0.250 OA
ATOM     29  H   LIG    1       18.460 -30.566   8.634  0.00  0.00    +0.245 HD
ENDBRANCH  25  28
ENDBRANCH  21  25
ENDBRANCH  18  19
ENDBRANCH  15  18
ENDBRANCH   9  15
ENDBRANCH   1  12
BRANCH   1  30
ATOM     30  C   LIG    1       24.898 -27.842  13.927  0.00  0.00    -0.017 A 
ATOM     31  C   LIG    1       25.483 -27.667  15.199  0.00  0.00    +0.010 A 
ATOM     32  C   LIG    1       26.420 -26.656  15.474  0.00  0.00    +0.030 A 
ATOM     33  C   LIG    1       26.864 -25.827  14.451  0.00  0.00    +0.117 A 
ATOM     34  C   LIG    1       26.349 -25.979  13.171  0.00  0.00    +0.030 A 
ATOM     35  C   LIG    1       25.353 -26.944  12.933  0.00  0.00    +0.010 A 
BRANCH  33  36
ATOM     36  S   LIG    1       28.024 -24.531  14.794  0.00  0.00    +0.110 S 
ATOM     37  O   LIG    1       29.136 -25.131  15.500  0.00  0.00    -0.142 OA
ATOM     38  O   LIG    1       27.321 -23.388  15.320  0.00  0.00    -0.142 OA
BRANCH  36  39
ATOM     39  O   LIG    1       28.579 -24.091  13.344  0.00  0.00    -0.250 OA
ATOM     40  H   LIG    1       27.822 -23.713  12.843  0.00  0.00    +0.245 HD
ENDBRANCH  36  39
ENDBRANCH  33  36
ENDBRANCH   1  30
BRANCH   6  41
ATOM     41  C   LIG    1       23.521 -31.216   8.545  0.00  0.00    +0.348 C 
ATOM     42  C   LIG    1       23.392 -32.673   8.125  0.00  0.00    +0.082 C 
ENDBRANCH   6  41
BRANCH   6  43
ATOM     43  C   LIG    1       25.920 -30.225   8.595  0.00  0.00    +0.387 C 
BRANCH  43  44
ATOM     44  C   LIG    1       25.549 -29.415   7.361  0.00  0.00    +0.019 A 
ATOM     45  C   LIG    1       25.474 -28.013   7.393  0.00  0.00    +0.039 A 
ATOM     46  C   LIG    1       25.052 -27.294   6.260  0.00  0.00    +0.117 A 
ATOM     47  C   LIG    1       24.666 -27.939   5.082  0.00  0.00    +0.029 A 
ATOM     48  C   LIG    1       24.684 -29.331   5.055  0.00  0.00    +0.002 A 
ATOM     49  C   LIG    1       25.103 -30.058   6.181  0.00  0.00    +0.010 A 
BRANCH  46  50
ATOM     50  S   LIG    1       24.951 -25.521   6.281  0.00  0.00    +0.110 S 
ATOM     51  O   LIG    1       25.917 -25.037   7.198  0.00  0.00    -0.142 OA
ATOM     52  O   LIG    1       23.531 -25.192   6.414  0.00  0.00    -0.142 OA
BRANCH  50  53
ATOM     53  O   LIG    1       25.368 -25.060   4.796  0.00  0.00    -0.250 OA
ATOM     54  H   LIG    1       25.722 -25.823   4.302  0.00  0.00    +0.245 HD
ENDBRANCH  50  53
ENDBRANCH  46  50
ENDBRANCH  43  44
ENDBRANCH   6  43
TORSDOF 15
ENDMDL
MODEL 4
REMARK VINA RESULT:      -5.5      3.657      5.361
REMARK  Name = *****
REMARK                            x       y       z     vdW  Elec       q    Type
REMARK                         _______ _______ _______ _____ _____    ______ ____
ROOT
ATOM      1  C   LIG    1       25.965 -28.458   7.649  0.00  0.00    -0.004 C 
ATOM      2  C   LIG    1       26.353 -28.743   8.945  0.00  0.00    -0.016 C 
ATOM      3  C   LIG    1       26.390 -27.787  10.048  0.00  0.00    +0.015 C 
ATOM      4  C   LIG    1       25.696 -28.050  11.166  0.00  0.00    +0.078 C 
ATOM      5  C   LIG    1       25.132 -29.442  11.288  0.00  0.00    +0.203 C 
ATOM      6  N   LIG    1       24.013 -29.735  11.888  0.00  0.00    -0.225 N 
ATOM      7  C   LIG    1       26.059 -30.442  10.646  0.00  0.00    +0.078 C 
ATOM      8  C   LIG    1       26.667 -30.066   9.499  0.00  0.00    +0.015 C 
ENDROOT
BRANCH   1  12
ATOM      9  C   LIG    1       24.881 -24.205   6.628  0.00  0.00    +0.030 A 
ATOM     10  C   LIG    1       23.983 -25.249   6.507  0.00  0.00    +0.024 A 
ATOM     11  C   LIG    1       24.335 -26.578   6.776  0.00  0.00    +0.010 A 
ATOM     12  C   LIG    1       25.591 -27.001   7.224  0.00  0.00    -0.017 A 
ATOM     13  C   LIG    1       26.520 -25.954   7.218  0.00  0.00    +0.010 A 
ATOM     14  C   LIG    1       26.179 -24.610   6.948  0.00  0.00    +0.024 A 
BRANCH   9  15
ATOM     15  N   LIG    1       24.538 -22.872   6.364  0.00  0.00    -0.326 N 
BRANCH  15  17
ATOM     16  C   LIG    1       23.634 -21.341   4.622  0.00  0.00    +0.024 C 
ATOM     17  C   LIG    1       24.600 -22.471   4.939  0.00  0.00    +0.102 C 
ENDBRANCH  15  17
BRANCH  15  18
ATOM     18  C   LIG    1       24.956 -21.833   7.342  0.00  0.00    +0.140 C 
BRANCH  18  19
ATOM     19  C   LIG    1       26.181 -21.029   6.917  0.00  0.00    -0.028 A 
ATOM     20  C   LIG    1       27.346 -21.068   7.711  0.00  0.00    +0.034 A 
ATOM     21  C   LIG    1       28.524 -20.433   7.286  0.00  0.00    +0.117 A 
ATOM     22  C   LIG    1       28.579 -19.789   6.050  0.00  0.00    +0.029 A 
ATOM     23  C   LIG    1       27.428 -19.725   5.268  0.00  0.00    +0.002 A 
ATOM     24  C   LIG    1       26.241 -20.332   5.700  0.00  0.00    +0.005 A 
BRANCH  21  25
ATOM     25  S   LIG    1       29.973 -20.460   8.309  0.00  0.00    +0.110 S 
ATOM     26  O   LIG    1       30.115 -21.756   8.904  0.00  0.00    -0.142 OA
ATOM     27  O   LIG    1       29.976 -19.257   9.127  0.00  0.00    -0.142 OA
BRANCH  25  28
ATOM     28  O   LIG    1       31.191 -20.289   7.262  0.00  0.00    -0.250 OA
ATOM     29  H   LIG    1       30.811 -19.952   6.423  0.00  0.00    +0.245 HD
ENDBRANCH  25  28
ENDBRANCH  21  25
ENDBRANCH  18  19
ENDBRANCH  15  18
ENDBRANCH   9  15
ENDBRANCH   1  12
BRANCH   1  30
ATOM     30  C   LIG    1       25.868 -29.629   6.624  0.00  0.00    -0.017 A 
ATOM     31  C   LIG    1       26.128 -30.969   6.980  0.00  0.00    +0.010 A 
ATOM     32  C   LIG    1       26.017 -32.034   6.070  0.00  0.00    +0.030 A 
ATOM     33  C   LIG    1       25.563 -31.796   4.778  0.00  0.00    +0.117 A 
ATOM     34  C   LIG    1       25.258 -30.500   4.385  0.00  0.00    +0.030 A 
ATOM     35  C   LIG    1       25.452 -29.437   5.286  0.00  0.00    +0.010 A 
BRANCH  33  36
ATOM     36  S   LIG    1       25.447 -33.128   3.615  0.00  0.00    +0.110 S 
ATOM     37  O   LIG    1       24.208 -33.825   3.887  0.00  0.00    -0.142 OA
ATOM     38  O   LIG    1       26.709 -33.822   3.556  0.00  0.00    -0.142 OA
BRANCH  36  39
ATOM     39  O   LIG    1       25.266 -32.402   2.185  0.00  0.00    -0.250 OA
ATOM     40  H   LIG    1       24.426 -32.731   1.794  0.00  0.00    +0.245 HD
ENDBRANCH  36  39
ENDBRANCH  33  36
ENDBRANCH   1  30
BRANCH   6  41
ATOM     41  C   LIG    1       23.152 -28.616  12.442  0.00  0.00    +0.348 C 
ATOM     42  C   LIG    1       23.557 -28.283  13.870  0.00  0.00    +0.082 C 
ENDBRANCH   6  41
BRANCH   6  43
ATOM     43  C   LIG    1       23.354 -31.119  11.783  0.00  0.00    +0.387 C 
BRANCH  43  44
ATOM     44  C   LIG    1       21.845 -31.184  11.601  0.00  0.00    +0.019 A 
ATOM     45  C   LIG    1       20.960 -30.780  12.614  0.00  0.00    +0.039 A 
ATOM     46  C   LIG    1       19.571 -30.923  12.450  0.00  0.00    +0.117 A 
ATOM     47  C   LIG    1       19.023 -31.495  11.298  0.00  0.00    +0.029 A 
ATOM     48  C   LIG    1       19.891 -31.950  10.309  0.00  0.00    +0.002 A 
ATOM     49  C   LIG    1       21.279 -31.811  10.465  0.00  0.00    +0.010 A 
BRANCH  46  50
ATOM     50  S   LIG    1       18.437 -30.418  13.720  0.00  0.00    +0.110 S 
ATOM     51  O   LIG    1       18.845 -31.019  14.937  0.00  0.00    -0.142 OA
ATOM     52  O   LIG    1       17.094 -30.617  13.174  0.00  0.00    -0.142 OA
BRANCH  50  53
ATOM     53  O   LIG    1       18.627 -28.823  13.840  0.00  0.00    -0.250 OA
ATOM     54  H   LIG    1       17.767 -28.379  13.716  0.00  0.00    +0.245 HD
ENDBRANCH  50  53
ENDBRANCH  46  50
ENDBRANCH  43  44
ENDBRANCH   6  43
TORSDOF 15
ENDMDL
