@<TRIPOS>MOLECULE
MOL
   38    40     1     0     0
SMALL
resp


@<TRIPOS>ATOM
      1 C1         -0.5090    1.3020    0.3150 c3        1 MOL      0.069556
      2 C2          0.8730    0.6840    0.5390 cc        1 MOL     -0.343627
      3 C3          1.6420    0.1460   -0.5250 c         1 MOL      0.278677
      4 C4          3.0230   -0.3150   -0.2080 ca        1 MOL     -0.009495
      5 C5          3.8570   -0.8180   -1.2160 ca        1 MOL     -0.182278
      6 C6          5.1410   -1.2460   -0.9110 ca        1 MOL      0.250749
      7 C7          5.6220   -1.1870    0.4030 ca        1 MOL     -0.261147
      8 C8          4.7990   -0.6910    1.4160 ca        1 MOL     -0.272028
      9 C9          3.5050   -0.2570    1.1080 ca        1 MOL      0.283992
     10 O1          2.7210    0.2180    2.1350 os        1 MOL     -0.457680
     11 C10         1.3470    0.7210    1.8790 cd        1 MOL      0.634276
     12 O2          0.7850    1.1140    2.9160 o         1 MOL     -0.607034
     13 O3          1.2280    0.0050   -1.7360 o         1 MOL     -0.597769
     14 C11        -1.6310    0.2880    0.1470 ca        1 MOL      0.056016
     15 C12        -1.4340   -0.9950   -0.4120 ca        1 MOL     -0.092389
     16 C13        -2.4790   -1.9040   -0.5170 ca        1 MOL     -0.192575
     17 C14        -3.7570   -1.5410   -0.0650 ca        1 MOL     -0.002664
     18 C15        -3.9910   -0.2610    0.4640 ca        1 MOL     -0.192575
     19 C16        -2.9390    0.6390    0.5630 ca        1 MOL     -0.092389
     20 N1         -4.8380   -2.4860   -0.1560 no        1 MOL      0.716742
     21 O4         -4.6160   -3.6480   -0.6480 o         1 MOL     -0.504348
     22 O5         -6.0020   -2.1510    0.2600 o         1 MOL     -0.504348
     23 C17        -0.5440    2.3850   -0.8160 c3        1 MOL     -0.009632
     24 O6         -1.6420    4.3680   -1.5840 o         1 MOL     -0.776375
     25 C18        -1.5880    3.5250   -0.6210 c         1 MOL      0.729586
     26 O7         -2.2800    3.5470    0.4690 o         1 MOL     -0.776375
     27 H1         -0.7530    1.8600    1.2210 hc        1 MOL      0.072714
     28 H2          3.4660   -0.8600   -2.2230 ha        1 MOL      0.164108
     29 H3          6.6280   -1.5250    0.6360 ha        1 MOL      0.122058
     30 H4          5.1360   -0.6330    2.4420 ha        1 MOL      0.152742
     31 H5         -0.4580   -1.2500   -0.7940 ha        1 MOL      0.147510
     32 H6         -2.3300   -2.8840   -0.9420 ha        1 MOL      0.130716
     33 H7         -4.9870    0.0030    0.7850 ha        1 MOL      0.130716
     34 H8         -3.0830    1.6550    0.9130 ha        1 MOL      0.147510
     35 H9         -0.6930    1.9300   -1.7940 hc        1 MOL      0.009028
     36 H10         0.4420    2.8580   -0.8570 hc        1 MOL      0.009028
     37 O8          5.9450   -1.7450   -1.9680 oh        1 MOL     -0.663544
     38 H11         6.8150   -2.0060   -1.6230 ho        1 MOL      0.432548
@<TRIPOS>BOND
     1    1    2 1   
     2    1   14 1   
     3    1   23 1   
     4    1   27 1   
     5    2    3 1   
     6    2   11 2   
     7    3    4 1   
     8    3   13 2   
     9    4    5 ar  
    10    4    9 ar  
    11    5    6 ar  
    12    5   28 1   
    13    6    7 ar  
    14    6   37 1   
    15    7    8 ar  
    16    7   29 1   
    17    8    9 ar  
    18    8   30 1   
    19    9   10 1   
    20   10   11 1   
    21   11   12 1   
    22   14   15 ar  
    23   14   19 ar  
    24   15   16 ar  
    25   15   31 1   
    26   16   17 ar  
    27   16   32 1   
    28   17   18 ar  
    29   17   20 1   
    30   18   19 ar  
    31   18   33 1   
    32   19   34 1   
    33   20   21 1   
    34   20   22 1   
    35   23   25 1   
    36   23   35 1   
    37   23   36 1   
    38   24   25 1   
    39   25   26 1   
    40   37   38 1   
@<TRIPOS>SUBSTRUCTURE
     1 MOL         1 TEMP              0 ****  ****    0 ROOT
