MODEL 1
REMARK VINA RESULT:      -8.2      0.000      0.000
REMARK  Name = *****
REMARK                            x       y       z     vdW  Elec       q    Type
REMARK                         _______ _______ _______ _____ _____    ______ ____
ROOT
ATOM      1  C   LIG    1       24.473 -20.559   5.285  0.00  0.00    +0.065 C 
ATOM      2  C   LIG    1       25.067 -21.181   6.571  0.00  0.00    +0.102 C 
ATOM      3  C   LIG    1       26.486 -20.618   6.833  0.00  0.00    +0.065 C 
ATOM      4  C   LIG    1       27.237 -20.167   5.793  0.00  0.00    +0.016 C 
ATOM      5  C   LIG    1       28.664 -19.677   5.867  0.00  0.00    +0.061 C 
ATOM      6  N   LIG    1       26.669 -20.097   4.525  0.00  0.00    -0.321 N 
ATOM      7  H   LIG    1       27.214 -19.577   3.837  0.00  0.00    +0.152 HD
ATOM      8  C   LIG    1       25.296 -20.097   4.315  0.00  0.00    +0.016 C 
ATOM      9  C   LIG    1       24.845 -19.586   2.968  0.00  0.00    +0.061 C 
ENDROOT
BRANCH   2  10
ATOM     10  C   LIG    1       25.070 -22.738   6.524  0.00  0.00    +0.042 A 
ATOM     11  C   LIG    1       23.949 -23.554   6.817  0.00  0.00    +0.277 A 
ATOM     12  C   LIG    1       24.004 -24.964   6.783  0.00  0.00    +0.084 A 
ATOM     13  C   LIG    1       25.184 -25.607   6.442  0.00  0.00    +0.007 A 
ATOM     14  C   LIG    1       26.310 -24.846   6.155  0.00  0.00    +0.001 A 
ATOM     15  C   LIG    1       26.258 -23.440   6.209  0.00  0.00    +0.011 A 
BRANCH  11  16
ATOM     16  N   LIG    1       22.637 -23.009   7.127  0.00  0.00    +0.080 N 
ATOM     17  O   LIG    1       22.597 -22.085   7.956  0.00  0.00    -0.576 OA
ATOM     18  O   LIG    1       21.658 -23.579   6.630  0.00  0.00    +0.042 OA
ENDBRANCH  11  16
ENDBRANCH   2  10
BRANCH   1  19
ATOM     19  C   LIG    1       23.002 -20.359   5.165  0.00  0.00    +0.337 C 
ATOM     20  O   LIG    1       22.233 -21.172   4.686  0.00  0.00    -0.245 OA
BRANCH  19  22
ATOM     21  C   LIG    1       22.128 -18.242   4.698  0.00  0.00    +0.280 C 
ATOM     22  O   LIG    1       22.646 -19.153   5.671  0.00  0.00    -0.465 OA
ENDBRANCH  19  22
ENDBRANCH   1  19
BRANCH   3  23
ATOM     23  C   LIG    1       26.879 -20.485   8.263  0.00  0.00    +0.338 C 
ATOM     24  O   LIG    1       26.072 -20.414   9.174  0.00  0.00    -0.245 OA
BRANCH  23  25
ATOM     25  O   LIG    1       28.213 -20.371   8.434  0.00  0.00    -0.454 OA
BRANCH  25  26
ATOM     26  C   LIG    1       28.951 -21.592   8.454  0.00  0.00    +0.306 C 
BRANCH  26  27
ATOM     27  C   LIG    1       30.353 -21.382   9.005  0.00  0.00    +0.168 C 
ATOM     28  O   LIG    1       30.823 -22.108   9.886  0.00  0.00    -0.294 OA
ATOM     29  C   LIG    1       31.130 -20.219   8.454  0.00  0.00    +0.090 C 
ENDBRANCH  26  27
ENDBRANCH  25  26
ENDBRANCH  23  25
ENDBRANCH   3  23
TORSDOF 8
ENDMDL
MODEL 2
REMARK VINA RESULT:      -7.2      2.415      5.162
REMARK  Name = *****
REMARK                            x       y       z     vdW  Elec       q    Type
REMARK                         _______ _______ _______ _____ _____    ______ ____
ROOT
ATOM      1  C   LIG    1       24.696 -20.401   4.717  0.00  0.00    +0.065 C 
ATOM      2  C   LIG    1       25.648 -21.464   5.313  0.00  0.00    +0.102 C 
ATOM      3  C   LIG    1       24.833 -22.591   5.996  0.00  0.00    +0.065 C 
ATOM      4  C   LIG    1       23.593 -22.328   6.484  0.00  0.00    +0.016 C 
ATOM      5  C   LIG    1       22.713 -23.285   7.253  0.00  0.00    +0.061 C 
ATOM      6  N   LIG    1       23.019 -21.082   6.246  0.00  0.00    -0.321 N 
ATOM      7  H   LIG    1       22.026 -21.016   6.468  0.00  0.00    +0.152 HD
ATOM      8  C   LIG    1       23.459 -20.232   5.240  0.00  0.00    +0.016 C 
ATOM      9  C   LIG    1       22.487 -19.151   4.833  0.00  0.00    +0.061 C 
ENDROOT
BRANCH   2  10
ATOM     10  C   LIG    1       26.689 -20.840   6.290  0.00  0.00    +0.042 A 
ATOM     11  C   LIG    1       26.481 -20.658   7.679  0.00  0.00    +0.277 A 
ATOM     12  C   LIG    1       27.446 -20.066   8.523  0.00  0.00    +0.084 A 
ATOM     13  C   LIG    1       28.661 -19.646   8.003  0.00  0.00    +0.007 A 
ATOM     14  C   LIG    1       28.903 -19.797   6.645  0.00  0.00    +0.001 A 
ATOM     15  C   LIG    1       27.932 -20.369   5.802  0.00  0.00    +0.011 A 
BRANCH  11  16
ATOM     16  N   LIG    1       25.280 -21.111   8.363  0.00  0.00    +0.080 N 
ATOM     17  O   LIG    1       24.296 -20.355   8.323  0.00  0.00    -0.576 OA
ATOM     18  O   LIG    1       25.365 -22.155   9.021  0.00  0.00    +0.042 OA
ENDBRANCH  11  16
ENDBRANCH   2  10
BRANCH   1  19
ATOM     19  C   LIG    1       25.092 -19.646   3.495  0.00  0.00    +0.337 C 
ATOM     20  O   LIG    1       24.688 -19.890   2.373  0.00  0.00    -0.245 OA
BRANCH  19  22
ATOM     21  C   LIG    1       25.636 -17.390   3.216  0.00  0.00    +0.280 C 
ATOM     22  O   LIG    1       25.953 -18.650   3.815  0.00  0.00    -0.465 OA
ENDBRANCH  19  22
ENDBRANCH   1  19
BRANCH   3  23
ATOM     23  C   LIG    1       25.436 -23.952   5.943  0.00  0.00    +0.338 C 
ATOM     24  O   LIG    1       26.266 -24.347   6.744  0.00  0.00    -0.245 OA
BRANCH  23  25
ATOM     25  O   LIG    1       25.027 -24.668   4.874  0.00  0.00    -0.454 OA
BRANCH  25  26
ATOM     26  C   LIG    1       24.401 -25.918   5.156  0.00  0.00    +0.306 C 
BRANCH  26  27
ATOM     27  C   LIG    1       25.381 -27.072   5.011  0.00  0.00    +0.168 C 
ATOM     28  O   LIG    1       26.528 -26.904   4.585  0.00  0.00    -0.294 OA
ATOM     29  C   LIG    1       24.876 -28.440   5.375  0.00  0.00    +0.090 C 
ENDBRANCH  26  27
ENDBRANCH  25  26
ENDBRANCH  23  25
ENDBRANCH   3  23
TORSDOF 8
ENDMDL
MODEL 3
REMARK VINA RESULT:      -6.5      8.751     11.309
REMARK  Name = *****
REMARK                            x       y       z     vdW  Elec       q    Type
REMARK                         _______ _______ _______ _____ _____    ______ ____
ROOT
ATOM      1  C   LIG    1       25.725 -29.864  13.008  0.00  0.00    +0.065 C 
ATOM      2  C   LIG    1       24.512 -29.948  12.052  0.00  0.00    +0.102 C 
ATOM      3  C   LIG    1       24.966 -29.718  10.589  0.00  0.00    +0.065 C 
ATOM      4  C   LIG    1       26.080 -28.983  10.335  0.00  0.00    +0.016 C 
ATOM      5  C   LIG    1       26.601 -28.591   8.972  0.00  0.00    +0.061 C 
ATOM      6  N   LIG    1       26.871 -28.558  11.398  0.00  0.00    -0.321 N 
ATOM      7  H   LIG    1       27.782 -28.182  11.134  0.00  0.00    +0.152 HD
ATOM      8  C   LIG    1       26.813 -29.140  12.658  0.00  0.00    +0.016 C 
ATOM      9  C   LIG    1       28.003 -28.877  13.549  0.00  0.00    +0.061 C 
ENDROOT
BRANCH   2  10
ATOM     10  C   LIG    1       23.373 -28.966  12.459  0.00  0.00    +0.042 A 
ATOM     11  C   LIG    1       21.990 -29.243  12.335  0.00  0.00    +0.277 A 
ATOM     12  C   LIG    1       20.991 -28.312  12.696  0.00  0.00    +0.084 A 
ATOM     13  C   LIG    1       21.346 -27.073  13.207  0.00  0.00    +0.007 A 
ATOM     14  C   LIG    1       22.692 -26.757  13.338  0.00  0.00    +0.001 A 
ATOM     15  C   LIG    1       23.686 -27.678  12.958  0.00  0.00    +0.011 A 
BRANCH  11  16
ATOM     16  N   LIG    1       21.480 -30.524  11.874  0.00  0.00    +0.080 N 
ATOM     17  O   LIG    1       20.947 -30.543  10.753  0.00  0.00    -0.576 OA
ATOM     18  O   LIG    1       21.516 -31.467  12.675  0.00  0.00    +0.042 OA
ENDBRANCH  11  16
ENDBRANCH   2  10
BRANCH   1  19
ATOM     19  C   LIG    1       25.746 -30.672  14.260  0.00  0.00    +0.337 C 
ATOM     20  O   LIG    1       25.253 -30.321  15.316  0.00  0.00    -0.245 OA
BRANCH  19  22
ATOM     21  C   LIG    1       27.107 -32.333  15.183  0.00  0.00    +0.280 C 
ATOM     22  O   LIG    1       26.381 -31.851  14.049  0.00  0.00    -0.465 OA
ENDBRANCH  19  22
ENDBRANCH   1  19
BRANCH   3  23
ATOM     23  C   LIG    1       24.198 -30.455   9.547  0.00  0.00    +0.338 C 
ATOM     24  O   LIG    1       23.455 -29.907   8.751  0.00  0.00    -0.245 OA
BRANCH  23  25
ATOM     25  O   LIG    1       24.349 -31.794   9.631  0.00  0.00    -0.454 OA
BRANCH  25  26
ATOM     26  C   LIG    1       24.871 -32.441   8.472  0.00  0.00    +0.306 C 
BRANCH  26  27
ATOM     27  C   LIG    1       26.392 -32.419   8.464  0.00  0.00    +0.168 C 
ATOM     28  O   LIG    1       27.049 -32.411   9.509  0.00  0.00    -0.294 OA
ATOM     29  C   LIG    1       27.062 -32.368   7.120  0.00  0.00    +0.090 C 
ENDBRANCH  26  27
ENDBRANCH  25  26
ENDBRANCH  23  25
ENDBRANCH   3  23
TORSDOF 8
ENDMDL
MODEL 4
REMARK VINA RESULT:      -6.3      7.775     10.919
REMARK  Name = *****
REMARK                            x       y       z     vdW  Elec       q    Type
REMARK                         _______ _______ _______ _____ _____    ______ ____
ROOT
ATOM      1  C   LIG    1       25.810 -30.003  12.788  0.00  0.00    +0.065 C 
ATOM      2  C   LIG    1       24.639 -30.084  11.781  0.00  0.00    +0.102 C 
ATOM      3  C   LIG    1       25.122 -29.689  10.364  0.00  0.00    +0.065 C 
ATOM      4  C   LIG    1       26.187 -28.857  10.221  0.00  0.00    +0.016 C 
ATOM      5  C   LIG    1       26.723 -28.305   8.920  0.00  0.00    +0.061 C 
ATOM      6  N   LIG    1       26.909 -28.477  11.349  0.00  0.00    -0.321 N 
ATOM      7  H   LIG    1       27.798 -28.015  11.155  0.00  0.00    +0.152 HD
ATOM      8  C   LIG    1       26.853 -29.175  12.548  0.00  0.00    +0.016 C 
ATOM      9  C   LIG    1       27.990 -28.912  13.506  0.00  0.00    +0.061 C 
ENDROOT
BRANCH   2  10
ATOM     10  C   LIG    1       23.418 -29.227  12.229  0.00  0.00    +0.042 A 
ATOM     11  C   LIG    1       22.063 -29.572  11.996  0.00  0.00    +0.277 A 
ATOM     12  C   LIG    1       20.988 -28.751  12.400  0.00  0.00    +0.084 A 
ATOM     13  C   LIG    1       21.233 -27.559  13.065  0.00  0.00    +0.007 A 
ATOM     14  C   LIG    1       22.546 -27.178  13.306  0.00  0.00    +0.001 A 
ATOM     15  C   LIG    1       23.617 -27.988  12.884  0.00  0.00    +0.011 A 
BRANCH  11  16
ATOM     16  N   LIG    1       21.665 -30.822  11.368  0.00  0.00    +0.080 N 
ATOM     17  O   LIG    1       21.184 -30.744  10.226  0.00  0.00    -0.576 OA
ATOM     18  O   LIG    1       21.731 -31.846  12.058  0.00  0.00    +0.042 OA
ENDBRANCH  11  16
ENDBRANCH   2  10
BRANCH   1  19
ATOM     19  C   LIG    1       25.849 -30.920  13.962  0.00  0.00    +0.337 C 
ATOM     20  O   LIG    1       26.408 -32.001  13.975  0.00  0.00    -0.245 OA
BRANCH  19  22
ATOM     21  C   LIG    1       24.004 -31.089  15.388  0.00  0.00    +0.280 C 
ATOM     22  O   LIG    1       25.184 -30.374  15.009  0.00  0.00    -0.465 OA
ENDBRANCH  19  22
ENDBRANCH   1  19
BRANCH   3  23
ATOM     23  C   LIG    1       24.446 -30.379   9.230  0.00  0.00    +0.338 C 
ATOM     24  O   LIG    1       24.356 -31.592   9.143  0.00  0.00    -0.245 OA
BRANCH  23  25
ATOM     25  O   LIG    1       24.017 -29.526   8.276  0.00  0.00    -0.454 OA
BRANCH  25  26
ATOM     26  C   LIG    1       24.015 -30.026   6.940  0.00  0.00    +0.306 C 
BRANCH  26  27
ATOM     27  C   LIG    1       24.721 -29.069   5.991  0.00  0.00    +0.168 C 
ATOM     28  O   LIG    1       25.573 -29.458   5.187  0.00  0.00    -0.294 OA
ATOM     29  C   LIG    1       24.361 -27.614   6.104  0.00  0.00    +0.090 C 
ENDBRANCH  26  27
ENDBRANCH  25  26
ENDBRANCH  23  25
ENDBRANCH   3  23
TORSDOF 8
ENDMDL
MODEL 5
REMARK VINA RESULT:      -6.2      8.641     11.419
REMARK  Name = *****
REMARK                            x       y       z     vdW  Elec       q    Type
REMARK                         _______ _______ _______ _____ _____    ______ ____
ROOT
ATOM      1  C   LIG    1       25.781 -30.123  11.143  0.00  0.00    +0.065 C 
ATOM      2  C   LIG    1       24.875 -30.630   9.997  0.00  0.00    +0.102 C 
ATOM      3  C   LIG    1       23.754 -31.537  10.561  0.00  0.00    +0.065 C 
ATOM      4  C   LIG    1       23.951 -32.211  11.724  0.00  0.00    +0.016 C 
ATOM      5  C   LIG    1       23.000 -33.201  12.356  0.00  0.00    +0.061 C 
ATOM      6  N   LIG    1       25.109 -31.974  12.459  0.00  0.00    -0.321 N 
ATOM      7  H   LIG    1       25.106 -32.361  13.403  0.00  0.00    +0.152 HD
ATOM      8  C   LIG    1       25.889 -30.838  12.287  0.00  0.00    +0.016 C 
ATOM      9  C   LIG    1       26.831 -30.519  13.423  0.00  0.00    +0.061 C 
ENDROOT
BRANCH   2  10
ATOM     10  C   LIG    1       25.687 -31.352   8.881  0.00  0.00    +0.042 A 
ATOM     11  C   LIG    1       25.513 -31.136   7.491  0.00  0.00    +0.277 A 
ATOM     12  C   LIG    1       26.258 -31.832   6.514  0.00  0.00    +0.084 A 
ATOM     13  C   LIG    1       27.214 -32.760   6.896  0.00  0.00    +0.007 A 
ATOM     14  C   LIG    1       27.411 -33.008   8.248  0.00  0.00    +0.001 A 
ATOM     15  C   LIG    1       26.654 -32.329   9.220  0.00  0.00    +0.011 A 
BRANCH  11  16
ATOM     16  N   LIG    1       24.591 -30.147   6.956  0.00  0.00    +0.080 N 
ATOM     17  O   LIG    1       23.536 -30.576   6.464  0.00  0.00    -0.576 OA
ATOM     18  O   LIG    1       24.977 -28.972   6.932  0.00  0.00    +0.042 OA
ENDBRANCH  11  16
ENDBRANCH   2  10
BRANCH   1  19
ATOM     19  C   LIG    1       26.441 -28.791  11.039  0.00  0.00    +0.337 C 
ATOM     20  O   LIG    1       27.398 -28.550  10.326  0.00  0.00    -0.245 OA
BRANCH  19  22
ATOM     21  C   LIG    1       26.700 -26.930  12.430  0.00  0.00    +0.280 C 
ATOM     22  O   LIG    1       25.820 -27.892  11.841  0.00  0.00    -0.465 OA
ENDBRANCH  19  22
ENDBRANCH   1  19
BRANCH   3  23
ATOM     23  C   LIG    1       22.455 -31.493   9.833  0.00  0.00    +0.338 C 
ATOM     24  O   LIG    1       22.124 -32.325   9.005  0.00  0.00    -0.245 OA
BRANCH  23  25
ATOM     25  O   LIG    1       21.723 -30.397  10.127  0.00  0.00    -0.454 OA
BRANCH  25  26
ATOM     26  C   LIG    1       20.681 -30.575  11.084  0.00  0.00    +0.306 C 
BRANCH  26  27
ATOM     27  C   LIG    1       20.882 -29.674  12.293  0.00  0.00    +0.168 C 
ATOM     28  O   LIG    1       20.024 -29.563  13.174  0.00  0.00    -0.294 OA
ATOM     29  C   LIG    1       22.163 -28.888  12.348  0.00  0.00    +0.090 C 
ENDBRANCH  26  27
ENDBRANCH  25  26
ENDBRANCH  23  25
ENDBRANCH   3  23
TORSDOF 8
ENDMDL
MODEL 6
REMARK VINA RESULT:      -6.2      9.148     11.031
REMARK  Name = *****
REMARK                            x       y       z     vdW  Elec       q    Type
REMARK                         _______ _______ _______ _____ _____    ______ ____
ROOT
ATOM      1  C   LIG    1       24.174 -30.605  10.859  0.00  0.00    +0.065 C 
ATOM      2  C   LIG    1       24.772 -29.890  12.094  0.00  0.00    +0.102 C 
ATOM      3  C   LIG    1       24.984 -30.901  13.247  0.00  0.00    +0.065 C 
ATOM      4  C   LIG    1       24.212 -32.017  13.319  0.00  0.00    +0.016 C 
ATOM      5  C   LIG    1       24.230 -33.048  14.423  0.00  0.00    +0.061 C 
ATOM      6  N   LIG    1       23.329 -32.300  12.281  0.00  0.00    -0.321 N 
ATOM      7  H   LIG    1       22.926 -33.238  12.302  0.00  0.00    +0.152 HD
ATOM      8  C   LIG    1       23.449 -31.736  11.017  0.00  0.00    +0.016 C 
ATOM      9  C   LIG    1       22.711 -32.455   9.913  0.00  0.00    +0.061 C 
ENDROOT
BRANCH   2  10
ATOM     10  C   LIG    1       23.906 -28.678  12.548  0.00  0.00    +0.042 A 
ATOM     11  C   LIG    1       24.424 -27.480  13.099  0.00  0.00    +0.277 A 
ATOM     12  C   LIG    1       23.598 -26.415  13.519  0.00  0.00    +0.084 A 
ATOM     13  C   LIG    1       22.221 -26.509  13.389  0.00  0.00    +0.007 A 
ATOM     14  C   LIG    1       21.669 -27.669  12.861  0.00  0.00    +0.001 A 
ATOM     15  C   LIG    1       22.494 -28.738  12.462  0.00  0.00    +0.011 A 
BRANCH  11  16
ATOM     16  N   LIG    1       25.850 -27.226  13.232  0.00  0.00    +0.080 N 
ATOM     17  O   LIG    1       26.277 -27.028  14.380  0.00  0.00    -0.576 OA
ATOM     18  O   LIG    1       26.503 -27.115  12.187  0.00  0.00    +0.042 OA
ENDBRANCH  11  16
ENDBRANCH   2  10
BRANCH   1  19
ATOM     19  C   LIG    1       24.494 -30.117   9.488  0.00  0.00    +0.337 C 
ATOM     20  O   LIG    1       23.665 -29.891   8.626  0.00  0.00    -0.245 OA
BRANCH  19  22
ATOM     21  C   LIG    1       26.540 -31.166   9.063  0.00  0.00    +0.280 C 
ATOM     22  O   LIG    1       25.832 -29.955   9.345  0.00  0.00    -0.465 OA
ENDBRANCH  19  22
ENDBRANCH   1  19
BRANCH   3  23
ATOM     23  C   LIG    1       26.145 -30.633  14.141  0.00  0.00    +0.338 C 
ATOM     24  O   LIG    1       26.027 -30.260  15.296  0.00  0.00    -0.245 OA
BRANCH  23  25
ATOM     25  O   LIG    1       27.333 -30.769  13.516  0.00  0.00    -0.454 OA
BRANCH  25  26
ATOM     26  C   LIG    1       28.351 -29.842  13.890  0.00  0.00    +0.306 C 
BRANCH  26  27
ATOM     27  C   LIG    1       29.379 -29.672  12.782  0.00  0.00    +0.168 C 
ATOM     28  O   LIG    1       29.050 -29.600  11.594  0.00  0.00    -0.294 OA
ATOM     29  C   LIG    1       30.823 -29.634  13.196  0.00  0.00    +0.090 C 
ENDBRANCH  26  27
ENDBRANCH  25  26
ENDBRANCH  23  25
ENDBRANCH   3  23
TORSDOF 8
ENDMDL
MODEL 7
REMARK VINA RESULT:      -6.0      2.486      5.575
REMARK  Name = *****
REMARK                            x       y       z     vdW  Elec       q    Type
REMARK                         _______ _______ _______ _____ _____    ______ ____
ROOT
ATOM      1  C   LIG    1       24.561 -20.469   4.863  0.00  0.00    +0.065 C 
ATOM      2  C   LIG    1       25.448 -21.488   5.617  0.00  0.00    +0.102 C 
ATOM      3  C   LIG    1       24.611 -22.723   6.032  0.00  0.00    +0.065 C 
ATOM      4  C   LIG    1       23.271 -22.599   6.223  0.00  0.00    +0.016 C 
ATOM      5  C   LIG    1       22.334 -23.677   6.715  0.00  0.00    +0.061 C 
ATOM      6  N   LIG    1       22.650 -21.392   5.916  0.00  0.00    -0.321 N 
ATOM      7  H   LIG    1       21.630 -21.425   5.899  0.00  0.00    +0.152 HD
ATOM      8  C   LIG    1       23.227 -20.440   5.085  0.00  0.00    +0.016 C 
ATOM      9  C   LIG    1       22.274 -19.418   4.511  0.00  0.00    +0.061 C 
ENDROOT
BRANCH   2  10
ATOM     10  C   LIG    1       26.168 -20.848   6.841  0.00  0.00    +0.042 A 
ATOM     11  C   LIG    1       27.452 -20.250   6.797  0.00  0.00    +0.277 A 
ATOM     12  C   LIG    1       28.076 -19.702   7.939  0.00  0.00    +0.084 A 
ATOM     13  C   LIG    1       27.428 -19.723   9.164  0.00  0.00    +0.007 A 
ATOM     14  C   LIG    1       26.171 -20.307   9.254  0.00  0.00    +0.001 A 
ATOM     15  C   LIG    1       25.560 -20.871   8.119  0.00  0.00    +0.011 A 
BRANCH  11  16
ATOM     16  N   LIG    1       28.212 -20.105   5.566  0.00  0.00    +0.080 N 
ATOM     17  O   LIG    1       28.939 -21.057   5.243  0.00  0.00    -0.576 OA
ATOM     18  O   LIG    1       28.163 -19.006   4.999  0.00  0.00    +0.042 OA
ENDBRANCH  11  16
ENDBRANCH   2  10
BRANCH   1  19
ATOM     19  C   LIG    1       25.154 -19.601   3.808  0.00  0.00    +0.337 C 
ATOM     20  O   LIG    1       25.597 -20.007   2.749  0.00  0.00    -0.245 OA
BRANCH  19  22
ATOM     21  C   LIG    1       25.741 -17.404   3.268  0.00  0.00    +0.280 C 
ATOM     22  O   LIG    1       25.120 -18.301   4.192  0.00  0.00    -0.465 OA
ENDBRANCH  19  22
ENDBRANCH   1  19
BRANCH   3  23
ATOM     23  C   LIG    1       25.339 -24.022   6.059  0.00  0.00    +0.338 C 
ATOM     24  O   LIG    1       26.053 -24.370   6.984  0.00  0.00    -0.245 OA
BRANCH  23  25
ATOM     25  O   LIG    1       25.189 -24.733   4.921  0.00  0.00    -0.454 OA
BRANCH  25  26
ATOM     26  C   LIG    1       24.567 -26.010   5.055  0.00  0.00    +0.306 C 
BRANCH  26  27
ATOM     27  C   LIG    1       25.599 -27.127   5.082  0.00  0.00    +0.168 C 
ATOM     28  O   LIG    1       26.755 -26.957   4.684  0.00  0.00    -0.294 OA
ATOM     29  C   LIG    1       25.134 -28.467   5.580  0.00  0.00    +0.090 C 
ENDBRANCH  26  27
ENDBRANCH  25  26
ENDBRANCH  23  25
ENDBRANCH   3  23
TORSDOF 8
ENDMDL
MODEL 8
REMARK VINA RESULT:      -6.0      8.804     11.624
REMARK  Name = *****
REMARK                            x       y       z     vdW  Elec       q    Type
REMARK                         _______ _______ _______ _____ _____    ______ ____
ROOT
ATOM      1  C   LIG    1       25.246 -29.683  10.554  0.00  0.00    +0.065 C 
ATOM      2  C   LIG    1       24.839 -29.845  12.037  0.00  0.00    +0.102 C 
ATOM      3  C   LIG    1       23.997 -31.132  12.225  0.00  0.00    +0.065 C 
ATOM      4  C   LIG    1       23.275 -31.624  11.184  0.00  0.00    +0.016 C 
ATOM      5  C   LIG    1       22.336 -32.807  11.227  0.00  0.00    +0.061 C 
ATOM      6  N   LIG    1       23.407 -31.039   9.928  0.00  0.00    -0.321 N 
ATOM      7  H   LIG    1       22.992 -31.569   9.161  0.00  0.00    +0.152 HD
ATOM      8  C   LIG    1       24.490 -30.242   9.581  0.00  0.00    +0.016 C 
ATOM      9  C   LIG    1       24.706 -30.052   8.098  0.00  0.00    +0.061 C 
ENDROOT
BRANCH   2  10
ATOM     10  C   LIG    1       24.096 -28.590  12.584  0.00  0.00    +0.042 A 
ATOM     11  C   LIG    1       24.727 -27.500  13.232  0.00  0.00    +0.277 A 
ATOM     12  C   LIG    1       24.009 -26.392  13.732  0.00  0.00    +0.084 A 
ATOM     13  C   LIG    1       22.632 -26.333  13.590  0.00  0.00    +0.007 A 
ATOM     14  C   LIG    1       21.971 -27.384  12.968  0.00  0.00    +0.001 A 
ATOM     15  C   LIG    1       22.687 -28.497  12.488  0.00  0.00    +0.011 A 
BRANCH  11  16
ATOM     16  N   LIG    1       26.170 -27.405  13.390  0.00  0.00    +0.080 N 
ATOM     17  O   LIG    1       26.685 -28.127  14.259  0.00  0.00    -0.576 OA
ATOM     18  O   LIG    1       26.754 -26.537  12.730  0.00  0.00    +0.042 OA
ENDBRANCH  11  16
ENDBRANCH   2  10
BRANCH   1  19
ATOM     19  C   LIG    1       26.530 -29.015  10.201  0.00  0.00    +0.337 C 
ATOM     20  O   LIG    1       26.623 -27.874   9.788  0.00  0.00    -0.245 OA
BRANCH  19  22
ATOM     21  C   LIG    1       28.457 -29.431  11.457  0.00  0.00    +0.280 C 
ATOM     22  O   LIG    1       27.572 -29.855  10.415  0.00  0.00    -0.465 OA
ENDBRANCH  19  22
ENDBRANCH   1  19
BRANCH   3  23
ATOM     23  C   LIG    1       24.153 -31.826  13.533  0.00  0.00    +0.338 C 
ATOM     24  O   LIG    1       24.842 -32.821  13.683  0.00  0.00    -0.245 OA
BRANCH  23  25
ATOM     25  O   LIG    1       23.392 -31.287  14.509  0.00  0.00    -0.454 OA
BRANCH  25  26
ATOM     26  C   LIG    1       22.145 -31.931  14.761  0.00  0.00    +0.306 C 
BRANCH  26  27
ATOM     27  C   LIG    1       20.977 -30.984  14.526  0.00  0.00    +0.168 C 
ATOM     28  O   LIG    1       20.214 -31.117  13.565  0.00  0.00    -0.294 OA
ATOM     29  C   LIG    1       20.817 -29.851  15.500  0.00  0.00    +0.090 C 
ENDBRANCH  26  27
ENDBRANCH  25  26
ENDBRANCH  23  25
ENDBRANCH   3  23
TORSDOF 8
ENDMDL
MODEL 9
REMARK VINA RESULT:      -5.9      9.004     11.487
REMARK  Name = *****
REMARK                            x       y       z     vdW  Elec       q    Type
REMARK                         _______ _______ _______ _____ _____    ______ ____
ROOT
ATOM      1  C   LIG    1       24.711 -31.085  13.297  0.00  0.00    +0.065 C 
ATOM      2  C   LIG    1       24.460 -30.113  12.121  0.00  0.00    +0.102 C 
ATOM      3  C   LIG    1       25.801 -29.727  11.448  0.00  0.00    +0.065 C 
ATOM      4  C   LIG    1       26.952 -29.762  12.169  0.00  0.00    +0.016 C 
ATOM      5  C   LIG    1       28.319 -29.331  11.691  0.00  0.00    +0.061 C 
ATOM      6  N   LIG    1       26.928 -30.270  13.464  0.00  0.00    -0.321 N 
ATOM      7  H   LIG    1       27.846 -30.445  13.875  0.00  0.00    +0.152 HD
ATOM      8  C   LIG    1       25.904 -31.081  13.935  0.00  0.00    +0.016 C 
ATOM      9  C   LIG    1       26.230 -31.887  15.170  0.00  0.00    +0.061 C 
ENDROOT
BRANCH   2  10
ATOM     10  C   LIG    1       23.658 -28.852  12.561  0.00  0.00    +0.042 A 
ATOM     11  C   LIG    1       22.249 -28.725  12.478  0.00  0.00    +0.277 A 
ATOM     12  C   LIG    1       21.566 -27.553  12.868  0.00  0.00    +0.084 A 
ATOM     13  C   LIG    1       22.271 -26.469  13.367  0.00  0.00    +0.007 A 
ATOM     14  C   LIG    1       23.655 -26.547  13.457  0.00  0.00    +0.001 A 
ATOM     15  C   LIG    1       24.336 -27.709  13.048  0.00  0.00    +0.011 A 
BRANCH  11  16
ATOM     16  N   LIG    1       21.384 -29.807  12.034  0.00  0.00    +0.080 N 
ATOM     17  O   LIG    1       20.615 -30.291  12.880  0.00  0.00    -0.576 OA
ATOM     18  O   LIG    1       21.561 -30.235  10.887  0.00  0.00    +0.042 OA
ENDBRANCH  11  16
ENDBRANCH   2  10
BRANCH   1  19
ATOM     19  C   LIG    1       23.686 -32.106  13.652  0.00  0.00    +0.337 C 
ATOM     20  O   LIG    1       23.577 -33.191  13.112  0.00  0.00    -0.245 OA
BRANCH  19  22
ATOM     21  C   LIG    1       22.085 -32.667  15.261  0.00  0.00    +0.280 C 
ATOM     22  O   LIG    1       22.904 -31.657  14.665  0.00  0.00    -0.465 OA
ENDBRANCH  19  22
ENDBRANCH   1  19
BRANCH   3  23
ATOM     23  C   LIG    1       25.742 -29.470   9.982  0.00  0.00    +0.338 C 
ATOM     24  O   LIG    1       26.153 -28.444   9.467  0.00  0.00    -0.245 OA
BRANCH  23  25
ATOM     25  O   LIG    1       25.117 -30.453   9.300  0.00  0.00    -0.454 OA
BRANCH  25  26
ATOM     26  C   LIG    1       24.029 -30.049   8.471  0.00  0.00    +0.306 C 
BRANCH  26  27
ATOM     27  C   LIG    1       24.353 -30.252   6.998  0.00  0.00    +0.168 C 
ATOM     28  O   LIG    1       23.696 -29.707   6.105  0.00  0.00    -0.294 OA
ATOM     29  C   LIG    1       25.489 -31.182   6.675  0.00  0.00    +0.090 C 
ENDBRANCH  26  27
ENDBRANCH  25  26
ENDBRANCH  23  25
ENDBRANCH   3  23
TORSDOF 8
ENDMDL
