MODEL 1
REMARK VINA RESULT:      -7.7      0.000      0.000
REMARK  Name = *****
REMARK                            x       y       z     vdW  Elec       q    Type
REMARK                         _______ _______ _______ _____ _____    ______ ____
ROOT
ATOM      1  C   LIG    1       23.493 -22.461   6.490  0.00  0.00    +0.042 C 
ATOM      2  C   LIG    1       24.715 -21.681   6.014  0.00  0.00    +0.069 C 
ATOM      3  C   LIG    1       25.730 -21.237   7.122  0.00  0.00    -0.000 C 
ATOM      4  C   LIG    1       25.009 -20.641   8.358  0.00  0.00    +0.014 C 
ATOM      5  C   LIG    1       26.521 -20.059   6.430  0.00  0.00    +0.001 C 
ATOM      6  C   LIG    1       27.936 -20.407   5.945  0.00  0.00    -0.004 C 
ATOM      7  C   LIG    1       28.699 -21.246   6.981  0.00  0.00    -0.001 C 
ATOM      8  C   LIG    1       27.945 -22.571   7.120  0.00  0.00    +0.005 C 
ATOM      9  C   LIG    1       29.584 -20.496   8.158  0.00  0.00    -0.022 C 
ATOM     10  C   LIG    1       30.060 -21.694   9.053  0.00  0.00    +0.012 C 
ATOM     11  C   LIG    1       30.603 -19.869   7.036  0.00  0.00    +0.001 C 
ATOM     12  C   LIG    1       31.840 -18.947   7.371  0.00  0.00    +0.059 C 
ATOM     13  C   LIG    1       31.468 -18.065   8.466  0.00  0.00    +0.040 A 
ATOM     14  C   LIG    1       30.384 -18.195   9.317  0.00  0.00    -0.006 A 
ATOM     15  C   LIG    1       30.479 -16.990  10.063  0.00  0.00    +0.138 A 
ATOM     16  N   LIG    1       31.451 -16.166   9.637  0.00  0.00    -0.182 NA
ATOM     17  N   LIG    1       32.002 -16.825   8.616  0.00  0.00    -0.281 N 
ATOM     18  H   LIG    1       32.680 -16.359   8.016  0.00  0.00    +0.189 HD
ATOM     19  C   LIG    1       29.667 -18.721   6.540  0.00  0.00    +0.005 C 
ATOM     20  C   LIG    1       29.288 -19.325   9.261  0.00  0.00    +0.045 C 
ATOM     21  C   LIG    1       28.761 -19.227   5.442  0.00  0.00    +0.004 C 
ATOM     22  C   LIG    1       25.637 -19.602   5.236  0.00  0.00    +0.007 C 
ATOM     23  C   LIG    1       26.562 -22.418   7.683  0.00  0.00    +0.010 C 
ATOM     24  C   LIG    1       24.319 -20.360   5.351  0.00  0.00    +0.035 C 
ENDROOT
BRANCH   2  25
ATOM     25  O   LIG    1       25.341 -22.524   5.039  0.00  0.00    -0.388 OA
ATOM     26  H   LIG    1       26.031 -22.028   4.572  0.00  0.00    +0.210 HD
ENDBRANCH   2  25
TORSDOF 1
ENDMDL
MODEL 2
REMARK VINA RESULT:      -6.2      9.545     11.828
REMARK  Name = *****
REMARK                            x       y       z     vdW  Elec       q    Type
REMARK                         _______ _______ _______ _____ _____    ______ ____
ROOT
ATOM      1  C   LIG    1       26.130 -27.192  15.500  0.00  0.00    +0.042 C 
ATOM      2  C   LIG    1       25.208 -27.927  14.531  0.00  0.00    +0.069 C 
ATOM      3  C   LIG    1       25.709 -28.044  13.051  0.00  0.00    -0.000 C 
ATOM      4  C   LIG    1       26.278 -26.701  12.528  0.00  0.00    +0.014 C 
ATOM      5  C   LIG    1       24.382 -28.334  12.247  0.00  0.00    +0.001 C 
ATOM      6  C   LIG    1       24.187 -29.788  11.793  0.00  0.00    -0.004 C 
ATOM      7  C   LIG    1       25.486 -30.385  11.232  0.00  0.00    -0.001 C 
ATOM      8  C   LIG    1       26.492 -30.417  12.386  0.00  0.00    +0.005 C 
ATOM      9  C   LIG    1       25.844 -30.221   9.627  0.00  0.00    -0.022 C 
ATOM     10  C   LIG    1       27.284 -30.834   9.527  0.00  0.00    +0.012 C 
ATOM     11  C   LIG    1       24.545 -31.134   9.213  0.00  0.00    +0.001 C 
ATOM     12  C   LIG    1       24.141 -31.487   7.729  0.00  0.00    +0.059 C 
ATOM     13  C   LIG    1       24.401 -30.323   6.895  0.00  0.00    +0.040 A 
ATOM     14  C   LIG    1       25.173 -29.219   7.215  0.00  0.00    -0.006 A 
ATOM     15  C   LIG    1       24.939 -28.390   6.085  0.00  0.00    +0.138 A 
ATOM     16  N   LIG    1       24.037 -28.892   5.224  0.00  0.00    -0.182 NA
ATOM     17  N   LIG    1       23.678 -30.052   5.779  0.00  0.00    -0.281 N 
ATOM     18  H   LIG    1       22.892 -30.575   5.399  0.00  0.00    +0.189 HD
ATOM     19  C   LIG    1       23.457 -30.034   9.427  0.00  0.00    +0.005 C 
ATOM     20  C   LIG    1       25.918 -28.968   8.579  0.00  0.00    +0.045 C 
ATOM     21  C   LIG    1       22.999 -30.028  10.867  0.00  0.00    +0.004 C 
ATOM     22  C   LIG    1       23.220 -27.898  13.182  0.00  0.00    +0.007 C 
ATOM     23  C   LIG    1       26.873 -29.055  12.889  0.00  0.00    +0.010 C 
ATOM     24  C   LIG    1       23.858 -27.222  14.389  0.00  0.00    +0.035 C 
ENDROOT
BRANCH   2  25
ATOM     25  O   LIG    1       25.002 -29.218  15.117  0.00  0.00    -0.388 OA
ATOM     26  H   LIG    1       25.831 -29.536  15.508  0.00  0.00    +0.210 HD
ENDBRANCH   2  25
TORSDOF 1
ENDMDL
MODEL 3
REMARK VINA RESULT:      -5.7      9.436     10.770
REMARK  Name = *****
REMARK                            x       y       z     vdW  Elec       q    Type
REMARK                         _______ _______ _______ _____ _____    ______ ____
ROOT
ATOM      1  C   LIG    1       23.047 -32.911   8.402  0.00  0.00    +0.042 C 
ATOM      2  C   LIG    1       24.169 -31.939   8.754  0.00  0.00    +0.069 C 
ATOM      3  C   LIG    1       23.931 -31.030  10.008  0.00  0.00    -0.000 C 
ATOM      4  C   LIG    1       22.506 -30.422  10.017  0.00  0.00    +0.014 C 
ATOM      5  C   LIG    1       24.945 -29.842   9.786  0.00  0.00    +0.001 C 
ATOM      6  C   LIG    1       26.215 -29.882  10.650  0.00  0.00    -0.004 C 
ATOM      7  C   LIG    1       25.898 -30.266  12.103  0.00  0.00    -0.001 C 
ATOM      8  C   LIG    1       25.341 -31.691  12.074  0.00  0.00    +0.005 C 
ATOM      9  C   LIG    1       25.519 -29.090  13.201  0.00  0.00    -0.022 C 
ATOM     10  C   LIG    1       25.140 -29.917  14.479  0.00  0.00    +0.012 C 
ATOM     11  C   LIG    1       27.022 -28.444  13.073  0.00  0.00    +0.001 C 
ATOM     12  C   LIG    1       27.517 -27.176  13.871  0.00  0.00    +0.059 C 
ATOM     13  C   LIG    1       26.415 -26.230  13.956  0.00  0.00    +0.040 A 
ATOM     14  C   LIG    1       25.076 -26.479  13.711  0.00  0.00    -0.006 A 
ATOM     15  C   LIG    1       24.533 -25.171  13.823  0.00  0.00    +0.138 A 
ATOM     16  N   LIG    1       25.459 -24.216  14.009  0.00  0.00    -0.182 NA
ATOM     17  N   LIG    1       26.612 -24.888  14.025  0.00  0.00    -0.281 N 
ATOM     18  H   LIG    1       27.495 -24.383  14.009  0.00  0.00    +0.189 HD
ATOM     19  C   LIG    1       26.803 -27.710  11.711  0.00  0.00    +0.005 C 
ATOM     20  C   LIG    1       24.454 -27.851  13.251  0.00  0.00    +0.045 C 
ATOM     21  C   LIG    1       27.103 -28.646  10.563  0.00  0.00    +0.004 C 
ATOM     22  C   LIG    1       25.316 -29.882   8.277  0.00  0.00    +0.007 C 
ATOM     23  C   LIG    1       24.034 -31.810  11.344  0.00  0.00    +0.010 C 
ATOM     24  C   LIG    1       24.416 -30.929   7.632  0.00  0.00    +0.035 C 
ENDROOT
BRANCH   2  25
ATOM     25  O   LIG    1       25.335 -32.755   8.914  0.00  0.00    -0.388 OA
ATOM     26  H   LIG    1       25.823 -32.478   9.705  0.00  0.00    +0.210 HD
ENDBRANCH   2  25
TORSDOF 1
ENDMDL
MODEL 4
REMARK VINA RESULT:      -5.7     10.433     12.123
REMARK  Name = *****
REMARK                            x       y       z     vdW  Elec       q    Type
REMARK                         _______ _______ _______ _____ _____    ______ ____
ROOT
ATOM      1  C   LIG    1       18.470 -28.102  14.761  0.00  0.00    +0.042 C 
ATOM      2  C   LIG    1       19.846 -27.559  14.386  0.00  0.00    +0.069 C 
ATOM      3  C   LIG    1       20.999 -28.613  14.269  0.00  0.00    -0.000 C 
ATOM      4  C   LIG    1       20.986 -29.614  15.452  0.00  0.00    +0.014 C 
ATOM      5  C   LIG    1       22.302 -27.734  14.415  0.00  0.00    +0.001 C 
ATOM      6  C   LIG    1       23.066 -27.460  13.111  0.00  0.00    -0.004 C 
ATOM      7  C   LIG    1       23.169 -28.721  12.240  0.00  0.00    -0.001 C 
ATOM      8  C   LIG    1       21.741 -29.101  11.840  0.00  0.00    +0.005 C 
ATOM      9  C   LIG    1       24.437 -29.761  12.442  0.00  0.00    -0.022 C 
ATOM     10  C   LIG    1       24.075 -30.944  11.478  0.00  0.00    +0.012 C 
ATOM     11  C   LIG    1       25.498 -28.611  11.949  0.00  0.00    +0.001 C 
ATOM     12  C   LIG    1       27.059 -28.823  11.847  0.00  0.00    +0.059 C 
ATOM     13  C   LIG    1       27.482 -29.650  12.967  0.00  0.00    +0.040 A 
ATOM     14  C   LIG    1       26.678 -30.417  13.793  0.00  0.00    -0.006 A 
ATOM     15  C   LIG    1       27.627 -30.868  14.749  0.00  0.00    +0.138 A 
ATOM     16  N   LIG    1       28.852 -30.344  14.583  0.00  0.00    -0.182 NA
ATOM     17  N   LIG    1       28.719 -29.551  13.518  0.00  0.00    -0.281 N 
ATOM     18  H   LIG    1       29.472 -28.917  13.258  0.00  0.00    +0.189 HD
ATOM     19  C   LIG    1       25.527 -27.788  13.276  0.00  0.00    +0.005 C 
ATOM     20  C   LIG    1       25.110 -30.535  13.716  0.00  0.00    +0.045 C 
ATOM     21  C   LIG    1       24.413 -26.767  13.278  0.00  0.00    +0.004 C 
ATOM     22  C   LIG    1       21.839 -26.399  15.062  0.00  0.00    +0.007 C 
ATOM     23  C   LIG    1       20.878 -29.498  13.003  0.00  0.00    +0.010 C 
ATOM     24  C   LIG    1       20.373 -26.578  15.436  0.00  0.00    +0.035 C 
ENDROOT
BRANCH   2  25
ATOM     25  O   LIG    1       19.649 -26.860  13.151  0.00  0.00    -0.388 OA
ATOM     26  H   LIG    1       19.684 -25.904  13.306  0.00  0.00    +0.210 HD
ENDBRANCH   2  25
TORSDOF 1
ENDMDL
MODEL 5
REMARK VINA RESULT:      -5.7      9.721     12.156
REMARK  Name = *****
REMARK                            x       y       z     vdW  Elec       q    Type
REMARK                         _______ _______ _______ _____ _____    ______ ____
ROOT
ATOM      1  C   LIG    1       23.116 -28.973  15.500  0.00  0.00    +0.042 C 
ATOM      2  C   LIG    1       22.839 -29.669  14.171  0.00  0.00    +0.069 C 
ATOM      3  C   LIG    1       23.738 -29.239  12.962  0.00  0.00    -0.000 C 
ATOM      4  C   LIG    1       23.892 -27.699  12.879  0.00  0.00    +0.014 C 
ATOM      5  C   LIG    1       22.893 -29.692  11.709  0.00  0.00    +0.001 C 
ATOM      6  C   LIG    1       23.383 -30.966  11.004  0.00  0.00    -0.004 C 
ATOM      7  C   LIG    1       24.912 -30.977  10.855  0.00  0.00    -0.001 C 
ATOM      8  C   LIG    1       25.495 -31.006  12.269  0.00  0.00    +0.005 C 
ATOM      9  C   LIG    1       25.614 -30.298   9.522  0.00  0.00    -0.022 C 
ATOM     10  C   LIG    1       27.146 -30.402   9.844  0.00  0.00    +0.012 C 
ATOM     11  C   LIG    1       24.916 -31.416   8.546  0.00  0.00    +0.001 C 
ATOM     12  C   LIG    1       25.100 -31.473   6.980  0.00  0.00    +0.059 C 
ATOM     13  C   LIG    1       25.133 -30.109   6.474  0.00  0.00    +0.040 A 
ATOM     14  C   LIG    1       25.320 -28.948   7.205  0.00  0.00    -0.006 A 
ATOM     15  C   LIG    1       25.121 -27.962   6.202  0.00  0.00    +0.138 A 
ATOM     16  N   LIG    1       24.746 -28.467   5.015  0.00  0.00    -0.182 NA
ATOM     17  N   LIG    1       24.702 -29.784   5.228  0.00  0.00    -0.281 N 
ATOM     18  H   LIG    1       24.304 -30.401   4.522  0.00  0.00    +0.189 HD
ATOM     19  C   LIG    1       23.485 -30.790   8.524  0.00  0.00    +0.005 C 
ATOM     20  C   LIG    1       25.509 -28.852   8.765  0.00  0.00    +0.045 C 
ATOM     21  C   LIG    1       22.677 -31.299   9.695  0.00  0.00    +0.004 C 
ATOM     22  C   LIG    1       21.441 -29.886  12.229  0.00  0.00    +0.007 C 
ATOM     23  C   LIG    1       25.189 -29.774  13.071  0.00  0.00    +0.010 C 
ATOM     24  C   LIG    1       21.421 -29.391  13.669  0.00  0.00    +0.035 C 
ENDROOT
BRANCH   2  25
ATOM     25  O   LIG    1       22.971 -31.069  14.447  0.00  0.00    -0.388 OA
ATOM     26  H   LIG    1       23.065 -31.560  13.616  0.00  0.00    +0.210 HD
ENDBRANCH   2  25
TORSDOF 1
ENDMDL
MODEL 6
REMARK VINA RESULT:      -5.5     10.001     12.250
REMARK  Name = *****
REMARK                            x       y       z     vdW  Elec       q    Type
REMARK                         _______ _______ _______ _____ _____    ______ ____
ROOT
ATOM      1  C   LIG    1       24.840 -33.054   4.983  0.00  0.00    +0.042 C 
ATOM      2  C   LIG    1       24.125 -32.529   6.224  0.00  0.00    +0.069 C 
ATOM      3  C   LIG    1       25.041 -32.038   7.396  0.00  0.00    -0.000 C 
ATOM      4  C   LIG    1       26.202 -33.027   7.674  0.00  0.00    +0.014 C 
ATOM      5  C   LIG    1       24.079 -32.085   8.646  0.00  0.00    +0.001 C 
ATOM      6  C   LIG    1       23.549 -30.726   9.126  0.00  0.00    -0.004 C 
ATOM      7  C   LIG    1       24.654 -29.659   9.137  0.00  0.00    -0.001 C 
ATOM      8  C   LIG    1       25.100 -29.468   7.686  0.00  0.00    +0.005 C 
ATOM      9  C   LIG    1       25.592 -29.459  10.483  0.00  0.00    -0.022 C 
ATOM     10  C   LIG    1       26.650 -28.399  10.016  0.00  0.00    +0.012 C 
ATOM     11  C   LIG    1       24.291 -28.973  11.356  0.00  0.00    +0.001 C 
ATOM     12  C   LIG    1       24.343 -28.559  12.878  0.00  0.00    +0.059 C 
ATOM     13  C   LIG    1       25.283 -29.436  13.559  0.00  0.00    +0.040 A 
ATOM     14  C   LIG    1       26.232 -30.260  12.978  0.00  0.00    -0.006 A 
ATOM     15  C   LIG    1       26.730 -30.944  14.119  0.00  0.00    +0.138 A 
ATOM     16  N   LIG    1       26.078 -30.646  15.255  0.00  0.00    -0.182 NA
ATOM     17  N   LIG    1       25.153 -29.763  14.870  0.00  0.00    -0.281 N 
ATOM     18  H   LIG    1       24.422 -29.477  15.518  0.00  0.00    +0.189 HD
ATOM     19  C   LIG    1       23.672 -30.389  11.588  0.00  0.00    +0.005 C 
ATOM     20  C   LIG    1       26.480 -30.450  11.435  0.00  0.00    +0.045 C 
ATOM     21  C   LIG    1       22.767 -30.756  10.435  0.00  0.00    +0.004 C 
ATOM     22  C   LIG    1       22.900 -33.011   8.234  0.00  0.00    +0.007 C 
ATOM     23  C   LIG    1       25.740 -30.689   7.089  0.00  0.00    +0.010 C 
ATOM     24  C   LIG    1       23.265 -33.609   6.882  0.00  0.00    +0.035 C 
ENDROOT
BRANCH   2  25
ATOM     25  O   LIG    1       23.275 -31.477   5.750  0.00  0.00    -0.388 OA
ATOM     26  H   LIG    1       23.107 -31.595   4.802  0.00  0.00    +0.210 HD
ENDBRANCH   2  25
TORSDOF 1
ENDMDL
MODEL 7
REMARK VINA RESULT:      -5.3     10.355     12.808
REMARK  Name = *****
REMARK                            x       y       z     vdW  Elec       q    Type
REMARK                         _______ _______ _______ _____ _____    ______ ____
ROOT
ATOM      1  C   LIG    1       22.653 -28.220  15.367  0.00  0.00    +0.042 C 
ATOM      2  C   LIG    1       23.317 -29.364  14.606  0.00  0.00    +0.069 C 
ATOM      3  C   LIG    1       23.508 -29.154  13.066  0.00  0.00    -0.000 C 
ATOM      4  C   LIG    1       22.233 -28.574  12.401  0.00  0.00    +0.014 C 
ATOM      5  C   LIG    1       23.688 -30.625  12.524  0.00  0.00    +0.001 C 
ATOM      6  C   LIG    1       25.126 -31.028  12.164  0.00  0.00    -0.004 C 
ATOM      7  C   LIG    1       25.852 -29.910  11.400  0.00  0.00    -0.001 C 
ATOM      8  C   LIG    1       25.956 -28.717  12.354  0.00  0.00    +0.005 C 
ATOM      9  C   LIG    1       25.751 -29.838   9.752  0.00  0.00    -0.022 C 
ATOM     10  C   LIG    1       26.498 -28.500   9.416  0.00  0.00    +0.012 C 
ATOM     11  C   LIG    1       26.548 -31.265   9.611  0.00  0.00    +0.001 C 
ATOM     12  C   LIG    1       26.889 -31.963   8.238  0.00  0.00    +0.059 C 
ATOM     13  C   LIG    1       25.771 -31.758   7.330  0.00  0.00    +0.040 A 
ATOM     14  C   LIG    1       24.737 -30.847   7.466  0.00  0.00    -0.006 A 
ATOM     15  C   LIG    1       23.912 -31.210   6.368  0.00  0.00    +0.138 A 
ATOM     16  N   LIG    1       24.343 -32.294   5.702  0.00  0.00    -0.182 NA
ATOM     17  N   LIG    1       25.454 -32.646   6.353  0.00  0.00    -0.281 N 
ATOM     18  H   LIG    1       25.910 -33.531   6.139  0.00  0.00    +0.189 HD
ATOM     19  C   LIG    1       25.347 -32.196   9.978  0.00  0.00    +0.005 C 
ATOM     20  C   LIG    1       24.531 -29.846   8.664  0.00  0.00    +0.045 C 
ATOM     21  C   LIG    1       25.272 -32.380  11.476  0.00  0.00    +0.004 C 
ATOM     22  C   LIG    1       23.129 -31.555  13.637  0.00  0.00    +0.007 C 
ATOM     23  C   LIG    1       24.625 -28.133  12.732  0.00  0.00    +0.010 C 
ATOM     24  C   LIG    1       22.492 -30.650  14.685  0.00  0.00    +0.035 C 
ENDROOT
BRANCH   2  25
ATOM     25  O   LIG    1       24.573 -29.572  15.265  0.00  0.00    -0.388 OA
ATOM     26  H   LIG    1       24.422 -29.950  16.145  0.00  0.00    +0.210 HD
ENDBRANCH   2  25
TORSDOF 1
ENDMDL
MODEL 8
REMARK VINA RESULT:      -5.3     10.287     12.054
REMARK  Name = *****
REMARK                            x       y       z     vdW  Elec       q    Type
REMARK                         _______ _______ _______ _____ _____    ______ ____
ROOT
ATOM      1  C   LIG    1       25.269 -33.813   5.039  0.00  0.00    +0.042 C 
ATOM      2  C   LIG    1       25.701 -32.615   5.880  0.00  0.00    +0.069 C 
ATOM      3  C   LIG    1       24.946 -32.412   7.237  0.00  0.00    -0.000 C 
ATOM      4  C   LIG    1       23.414 -32.585   7.076  0.00  0.00    +0.014 C 
ATOM      5  C   LIG    1       25.212 -30.893   7.571  0.00  0.00    +0.001 C 
ATOM      6  C   LIG    1       26.260 -30.628   8.662  0.00  0.00    -0.004 C 
ATOM      7  C   LIG    1       26.091 -31.583   9.853  0.00  0.00    -0.001 C 
ATOM      8  C   LIG    1       26.353 -32.997   9.327  0.00  0.00    +0.005 C 
ATOM      9  C   LIG    1       25.088 -31.176  11.101  0.00  0.00    -0.022 C 
ATOM     10  C   LIG    1       25.106 -32.463  11.998  0.00  0.00    +0.012 C 
ATOM     11  C   LIG    1       26.045 -29.903  11.494  0.00  0.00    +0.001 C 
ATOM     12  C   LIG    1       25.760 -28.908  12.686  0.00  0.00    +0.059 C 
ATOM     13  C   LIG    1       24.324 -28.681  12.758  0.00  0.00    +0.040 A 
ATOM     14  C   LIG    1       23.326 -29.426  12.156  0.00  0.00    -0.006 A 
ATOM     15  C   LIG    1       22.179 -28.651  12.476  0.00  0.00    +0.138 A 
ATOM     16  N   LIG    1       22.464 -27.502  13.111  0.00  0.00    -0.182 NA
ATOM     17  N   LIG    1       23.794 -27.517  13.217  0.00  0.00    -0.281 N 
ATOM     18  H   LIG    1       24.288 -26.687  13.537  0.00  0.00    +0.189 HD
ATOM     19  C   LIG    1       25.569 -28.942  10.357  0.00  0.00    +0.005 C 
ATOM     20  C   LIG    1       23.534 -30.679  11.225  0.00  0.00    +0.045 C 
ATOM     21  C   LIG    1       26.385 -29.175   9.107  0.00  0.00    +0.004 C 
ATOM     22  C   LIG    1       25.650 -30.239   6.230  0.00  0.00    +0.007 C 
ATOM     23  C   LIG    1       25.348 -33.456   8.311  0.00  0.00    +0.010 C 
ATOM     24  C   LIG    1       25.465 -31.294   5.147  0.00  0.00    +0.035 C 
ENDROOT
BRANCH   2  25
ATOM     25  O   LIG    1       27.108 -32.791   6.086  0.00  0.00    -0.388 OA
ATOM     26  H   LIG    1       27.319 -33.737   6.111  0.00  0.00    +0.210 HD
ENDBRANCH   2  25
TORSDOF 1
ENDMDL
MODEL 9
REMARK VINA RESULT:      -5.2     10.494     13.215
REMARK  Name = *****
REMARK                            x       y       z     vdW  Elec       q    Type
REMARK                         _______ _______ _______ _____ _____    ______ ____
ROOT
ATOM      1  C   LIG    1       27.555 -25.972  14.416  0.00  0.00    +0.042 C 
ATOM      2  C   LIG    1       27.211 -27.446  14.224  0.00  0.00    +0.069 C 
ATOM      3  C   LIG    1       26.127 -27.770  13.140  0.00  0.00    -0.000 C 
ATOM      4  C   LIG    1       24.909 -26.817  13.241  0.00  0.00    +0.014 C 
ATOM      5  C   LIG    1       25.630 -29.210  13.551  0.00  0.00    +0.001 C 
ATOM      6  C   LIG    1       26.154 -30.365  12.684  0.00  0.00    -0.004 C 
ATOM      7  C   LIG    1       26.115 -30.013  11.189  0.00  0.00    -0.001 C 
ATOM      8  C   LIG    1       27.075 -28.839  10.984  0.00  0.00    +0.005 C 
ATOM      9  C   LIG    1       24.756 -30.330  10.304  0.00  0.00    -0.022 C 
ATOM     10  C   LIG    1       25.094 -29.698   8.908  0.00  0.00    +0.012 C 
ATOM     11  C   LIG    1       24.949 -31.943  10.529  0.00  0.00    +0.001 C 
ATOM     12  C   LIG    1       23.979 -33.046   9.949  0.00  0.00    +0.059 C 
ATOM     13  C   LIG    1       22.616 -32.544  10.029  0.00  0.00    +0.040 A 
ATOM     14  C   LIG    1       22.216 -31.235  10.238  0.00  0.00    -0.006 A 
ATOM     15  C   LIG    1       20.809 -31.398  10.348  0.00  0.00    +0.138 A 
ATOM     16  N   LIG    1       20.409 -32.680  10.318  0.00  0.00    -0.182 NA
ATOM     17  N   LIG    1       21.546 -33.365  10.183  0.00  0.00    -0.281 N 
ATOM     18  H   LIG    1       21.542 -34.379  10.277  0.00  0.00    +0.189 HD
ATOM     19  C   LIG    1       24.412 -32.003  11.995  0.00  0.00    +0.005 C 
ATOM     20  C   LIG    1       23.163 -29.998  10.467  0.00  0.00    +0.045 C 
ATOM     21  C   LIG    1       25.534 -31.728  12.969  0.00  0.00    +0.004 C 
ATOM     22  C   LIG    1       26.068 -29.401  15.029  0.00  0.00    +0.007 C 
ATOM     23  C   LIG    1       26.651 -27.585  11.693  0.00  0.00    +0.010 C 
ATOM     24  C   LIG    1       26.628 -28.063  15.497  0.00  0.00    +0.035 C 
ENDROOT
BRANCH   2  25
ATOM     25  O   LIG    1       28.458 -28.085  13.923  0.00  0.00    -0.388 OA
ATOM     26  H   LIG    1       28.335 -28.719  13.199  0.00  0.00    +0.210 HD
ENDBRANCH   2  25
TORSDOF 1
ENDMDL
