MODEL 1
REMARK VINA RESULT:      -3.5      0.000      0.000
REMARK  Name = *****
REMARK                            x       y       z     vdW  Elec       q    Type
REMARK                         _______ _______ _______ _____ _____    ______ ____
ROOT
ATOM      1  C   LIG    1       23.005 -18.222   4.284  0.00  0.00    +0.011 C 
ATOM      2  C   LIG    1       21.582 -18.344   3.873  0.00  0.00    +0.269 C 
ATOM      3  O   LIG    1       21.232 -19.700   4.124  0.00  0.00    -0.456 OA
ATOM      4  C   LIG    1       22.323 -20.359   4.591  0.00  0.00    +0.341 C 
ATOM      5  O   LIG    1       22.350 -21.546   4.871  0.00  0.00    -0.245 OA
ATOM      6  C   LIG    1       23.456 -19.417   4.700  0.00  0.00    +0.073 C 
ENDROOT
BRANCH   1  10
ATOM      7  C   LIG    1       25.074 -14.471   3.931  0.00  0.00    +0.088 A 
ATOM      8  C   LIG    1       23.739 -14.487   4.319  0.00  0.00    +0.027 A 
ATOM      9  C   LIG    1       23.071 -15.710   4.430  0.00  0.00    +0.010 A 
ATOM     10  C   LIG    1       23.714 -16.930   4.171  0.00  0.00    -0.018 A 
ATOM     11  C   LIG    1       25.056 -16.878   3.750  0.00  0.00    +0.010 A 
ATOM     12  C   LIG    1       25.735 -15.659   3.627  0.00  0.00    +0.027 A 
BRANCH   7  14
ATOM     13  C   LIG    1       27.385 -13.197   4.773  0.00  0.00    +0.200 C 
ATOM     14  S   LIG    1       25.927 -12.920   3.801  0.00  0.00    -0.006 S 
ATOM     15  O   LIG    1       26.326 -12.756   2.417  0.00  0.00    -0.170 OA
ATOM     16  O   LIG    1       25.119 -11.918   4.470  0.00  0.00    -0.170 OA
ENDBRANCH   7  14
ENDBRANCH   1  10
BRANCH   6  17
ATOM     17  C   LIG    1       24.779 -19.834   5.151  0.00  0.00    -0.011 A 
ATOM     18  C   LIG    1       25.846 -19.904   4.245  0.00  0.00    +0.009 A 
ATOM     19  C   LIG    1       27.110 -20.310   4.675  0.00  0.00    +0.001 A 
ATOM     20  C   LIG    1       27.323 -20.623   6.017  0.00  0.00    +0.000 A 
ATOM     21  C   LIG    1       26.268 -20.544   6.926  0.00  0.00    +0.001 A 
ATOM     22  C   LIG    1       24.999 -20.157   6.495  0.00  0.00    +0.009 A 
ENDBRANCH   6  17
TORSDOF 3
ENDMDL
MODEL 2
REMARK VINA RESULT:      -3.2      2.566      3.979
REMARK  Name = *****
REMARK                            x       y       z     vdW  Elec       q    Type
REMARK                         _______ _______ _______ _____ _____    ______ ____
ROOT
ATOM      1  C   LIG    1       27.824 -18.373   5.040  0.00  0.00    +0.011 C 
ATOM      2  C   LIG    1       29.255 -18.412   5.443  0.00  0.00    +0.269 C 
ATOM      3  O   LIG    1       29.473 -19.731   5.930  0.00  0.00    -0.456 OA
ATOM      4  C   LIG    1       28.304 -20.419   5.882  0.00  0.00    +0.341 C 
ATOM      5  O   LIG    1       28.160 -21.570   6.259  0.00  0.00    -0.245 OA
ATOM      6  C   LIG    1       27.250 -19.556   5.309  0.00  0.00    +0.073 C 
ENDROOT
BRANCH   1  10
ATOM      7  C   LIG    1       26.134 -14.789   3.375  0.00  0.00    +0.088 A 
ATOM      8  C   LIG    1       25.517 -16.012   3.144  0.00  0.00    +0.027 A 
ATOM      9  C   LIG    1       26.072 -17.175   3.686  0.00  0.00    +0.010 A 
ATOM     10  C   LIG    1       27.235 -17.142   4.471  0.00  0.00    -0.018 A 
ATOM     11  C   LIG    1       27.854 -15.893   4.659  0.00  0.00    +0.010 A 
ATOM     12  C   LIG    1       27.313 -14.721   4.115  0.00  0.00    +0.027 A 
BRANCH   7  14
ATOM     13  C   LIG    1       24.715 -12.531   4.124  0.00  0.00    +0.200 C 
ATOM     14  S   LIG    1       25.424 -13.310   2.697  0.00  0.00    -0.006 S 
ATOM     15  O   LIG    1       26.514 -12.481   2.219  0.00  0.00    -0.170 OA
ATOM     16  O   LIG    1       24.345 -13.707   1.813  0.00  0.00    -0.170 OA
ENDBRANCH   7  14
ENDBRANCH   1  10
BRANCH   6  17
ATOM     17  C   LIG    1       25.872 -20.007   5.150  0.00  0.00    -0.011 A 
ATOM     18  C   LIG    1       25.295 -20.085   3.875  0.00  0.00    +0.009 A 
ATOM     19  C   LIG    1       23.974 -20.510   3.724  0.00  0.00    +0.001 A 
ATOM     20  C   LIG    1       23.230 -20.886   4.842  0.00  0.00    +0.000 A 
ATOM     21  C   LIG    1       23.802 -20.823   6.112  0.00  0.00    +0.001 A 
ATOM     22  C   LIG    1       25.116 -20.379   6.268  0.00  0.00    +0.009 A 
ENDBRANCH   6  17
TORSDOF 3
ENDMDL
MODEL 3
REMARK VINA RESULT:      -3.1      2.564      4.134
REMARK  Name = *****
REMARK                            x       y       z     vdW  Elec       q    Type
REMARK                         _______ _______ _______ _____ _____    ______ ____
ROOT
ATOM      1  C   LIG    1       27.835 -18.338   4.985  0.00  0.00    +0.011 C 
ATOM      2  C   LIG    1       29.257 -18.377   5.417  0.00  0.00    +0.269 C 
ATOM      3  O   LIG    1       29.473 -19.703   5.884  0.00  0.00    -0.456 OA
ATOM      4  C   LIG    1       28.310 -20.397   5.798  0.00  0.00    +0.341 C 
ATOM      5  O   LIG    1       28.165 -21.556   6.150  0.00  0.00    -0.245 OA
ATOM      6  C   LIG    1       27.263 -19.530   5.219  0.00  0.00    +0.073 C 
ENDROOT
BRANCH   1  10
ATOM      7  C   LIG    1       26.112 -14.744   3.375  0.00  0.00    +0.088 A 
ATOM      8  C   LIG    1       27.287 -14.673   4.115  0.00  0.00    +0.027 A 
ATOM      9  C   LIG    1       27.841 -15.845   4.638  0.00  0.00    +0.010 A 
ATOM     10  C   LIG    1       27.250 -17.100   4.428  0.00  0.00    -0.018 A 
ATOM     11  C   LIG    1       26.045 -17.135   3.703  0.00  0.00    +0.010 A 
ATOM     12  C   LIG    1       25.474 -15.967   3.180  0.00  0.00    +0.027 A 
BRANCH   7  14
ATOM     13  C   LIG    1       24.731 -12.465   4.133  0.00  0.00    +0.200 C 
ATOM     14  S   LIG    1       25.413 -13.259   2.701  0.00  0.00    -0.006 S 
ATOM     15  O   LIG    1       26.507 -12.447   2.205  0.00  0.00    -0.170 OA
ATOM     16  O   LIG    1       24.317 -13.646   1.831  0.00  0.00    -0.170 OA
ENDBRANCH   7  14
ENDBRANCH   1  10
BRANCH   6  17
ATOM     17  C   LIG    1       25.891 -19.986   5.024  0.00  0.00    -0.011 A 
ATOM     18  C   LIG    1       25.095 -20.327   6.126  0.00  0.00    +0.009 A 
ATOM     19  C   LIG    1       23.784 -20.769   5.939  0.00  0.00    +0.001 A 
ATOM     20  C   LIG    1       23.252 -20.848   4.653  0.00  0.00    +0.000 A 
ATOM     21  C   LIG    1       24.034 -20.497   3.553  0.00  0.00    +0.001 A 
ATOM     22  C   LIG    1       25.351 -20.074   3.736  0.00  0.00    +0.009 A 
ENDBRANCH   6  17
TORSDOF 3
ENDMDL
MODEL 4
REMARK VINA RESULT:      -1.0      2.574      7.415
REMARK  Name = *****
REMARK                            x       y       z     vdW  Elec       q    Type
REMARK                         _______ _______ _______ _____ _____    ______ ____
ROOT
ATOM      1  C   LIG    1       26.946 -15.183   3.852  0.00  0.00    +0.011 C 
ATOM      2  C   LIG    1       28.385 -15.533   3.981  0.00  0.00    +0.269 C 
ATOM      3  O   LIG    1       29.082 -14.294   3.922  0.00  0.00    -0.456 OA
ATOM      4  C   LIG    1       28.186 -13.292   3.732  0.00  0.00    +0.341 C 
ATOM      5  O   LIG    1       28.478 -12.114   3.612  0.00  0.00    -0.245 OA
ATOM      6  C   LIG    1       26.821 -13.856   3.692  0.00  0.00    +0.073 C 
ENDROOT
BRANCH   1  10
ATOM      7  C   LIG    1       23.915 -18.230   3.913  0.00  0.00    +0.088 A 
ATOM      8  C   LIG    1       25.232 -18.574   3.631  0.00  0.00    +0.027 A 
ATOM      9  C   LIG    1       26.213 -17.579   3.610  0.00  0.00    +0.010 A 
ATOM     10  C   LIG    1       25.908 -16.235   3.879  0.00  0.00    -0.018 A 
ATOM     11  C   LIG    1       24.562 -15.914   4.129  0.00  0.00    +0.010 A 
ATOM     12  C   LIG    1       23.567 -16.900   4.144  0.00  0.00    +0.027 A 
BRANCH   7  14
ATOM     13  C   LIG    1       22.824 -20.140   5.596  0.00  0.00    +0.200 C 
ATOM     14  S   LIG    1       22.670 -19.494   3.951  0.00  0.00    -0.006 S 
ATOM     15  O   LIG    1       21.381 -18.841   3.836  0.00  0.00    -0.170 OA
ATOM     16  O   LIG    1       23.069 -20.530   3.017  0.00  0.00    -0.170 OA
ENDBRANCH   7  14
ENDBRANCH   1  10
BRANCH   6  17
ATOM     17  C   LIG    1       25.640 -13.027   3.473  0.00  0.00    -0.011 A 
ATOM     18  C   LIG    1       25.238 -12.697   2.172  0.00  0.00    +0.009 A 
ATOM     19  C   LIG    1       24.112 -11.899   1.963  0.00  0.00    +0.001 A 
ATOM     20  C   LIG    1       23.366 -11.448   3.051  0.00  0.00    +0.000 A 
ATOM     21  C   LIG    1       23.753 -11.783   4.348  0.00  0.00    +0.001 A 
ATOM     22  C   LIG    1       24.890 -12.564   4.560  0.00  0.00    +0.009 A 
ENDBRANCH   6  17
TORSDOF 3
ENDMDL
