MODEL 1
REMARK VINA RESULT:       2.3      0.000      0.000
REMARK  Name = *****
REMARK                            x       y       z     vdW  Elec       q    Type
REMARK                         _______ _______ _______ _____ _____    ______ ____
ROOT
ATOM      1  C   LIG    1       26.659 -13.708   3.161  0.00  0.00    +0.132 C 
ATOM      2  C   LIG    1       26.348 -14.824   4.210  0.00  0.00    +0.014 C 
ATOM      3  C   LIG    1       24.783 -14.814   4.259  0.00  0.00    +0.002 C 
ATOM      4  C   LIG    1       24.041 -15.815   3.324  0.00  0.00    -0.003 C 
ATOM      5  C   LIG    1       24.697 -17.218   3.286  0.00  0.00    -0.000 C 
ATOM      6  C   LIG    1       26.150 -17.053   2.844  0.00  0.00    +0.005 C 
ATOM      7  C   LIG    1       24.487 -17.964   4.633  0.00  0.00    +0.019 C 
ATOM      8  C   LIG    1       22.987 -18.079   4.853  0.00  0.00    -0.063 C 
ATOM      9  C   LIG    1       22.317 -19.242   4.853  0.00  0.00    +0.045 C 
ATOM     10  C   LIG    1       23.005 -20.515   4.530  0.00  0.00    +0.156 C 
ATOM     11  C   LIG    1       24.432 -20.443   4.042  0.00  0.00    +0.079 C 
ATOM     12  O   LIG    1       22.377 -21.570   4.574  0.00  0.00    -0.293 OA
ATOM     13  C   LIG    1       22.280 -16.756   4.963  0.00  0.00    +0.031 C 
ATOM     14  C   LIG    1       25.177 -19.331   4.761  0.00  0.00    +0.016 C 
ATOM     15  C   LIG    1       22.539 -15.934   3.695  0.00  0.00    +0.008 C 
ATOM     16  C   LIG    1       24.365 -13.364   3.905  0.00  0.00    +0.008 C 
ATOM     17  C   LIG    1       26.958 -16.204   3.811  0.00  0.00    +0.011 C 
ATOM     18  C   LIG    1       25.604 -12.629   3.399  0.00  0.00    +0.049 C 
ENDROOT
BRANCH   1  20
ATOM     19  C   LIG    1       29.142 -12.730   3.300  0.00  0.00    +0.007 C 
ATOM     20  C   LIG    1       28.027 -13.171   3.231  0.00  0.00    -0.070 C 
ENDBRANCH   1  20
BRANCH   2  21
ATOM     21  C   LIG    1       26.934 -14.542   5.648  0.00  0.00    +0.007 C 
ATOM     22  C   LIG    1       26.870 -13.142   6.240  0.00  0.00    +0.004 C 
ENDBRANCH   2  21
BRANCH   1  23
ATOM     23  O   LIG    1       26.448 -14.203   1.837  0.00  0.00    -0.376 OA
ATOM     24  H   LIG    1       27.162 -14.838   1.654  0.00  0.00    +0.211 HD
ENDBRANCH   1  23
TORSDOF 3
ENDMDL
MODEL 2
REMARK VINA RESULT:       5.0      1.450      6.732
REMARK  Name = *****
REMARK                            x       y       z     vdW  Elec       q    Type
REMARK                         _______ _______ _______ _____ _____    ______ ____
ROOT
ATOM      1  C   LIG    1       22.978 -20.423   4.018  0.00  0.00    +0.132 C 
ATOM      2  C   LIG    1       23.426 -19.136   4.784  0.00  0.00    +0.014 C 
ATOM      3  C   LIG    1       24.930 -19.003   4.370  0.00  0.00    +0.002 C 
ATOM      4  C   LIG    1       25.247 -18.097   3.143  0.00  0.00    -0.003 C 
ATOM      5  C   LIG    1       24.433 -16.779   3.128  0.00  0.00    -0.000 C 
ATOM      6  C   LIG    1       22.947 -17.135   3.159  0.00  0.00    +0.005 C 
ATOM      7  C   LIG    1       24.915 -15.819   4.251  0.00  0.00    +0.019 C 
ATOM      8  C   LIG    1       26.388 -15.543   4.003  0.00  0.00    -0.063 C 
ATOM      9  C   LIG    1       26.878 -14.339   3.663  0.00  0.00    +0.045 C 
ATOM     10  C   LIG    1       25.971 -13.196   3.404  0.00  0.00    +0.156 C 
ATOM     11  C   LIG    1       24.485 -13.466   3.372  0.00  0.00    +0.079 C 
ATOM     12  O   LIG    1       26.446 -12.097   3.131  0.00  0.00    -0.293 OA
ATOM     13  C   LIG    1       27.261 -16.767   4.061  0.00  0.00    +0.031 C 
ATOM     14  C   LIG    1       24.119 -14.514   4.409  0.00  0.00    +0.016 C 
ATOM     15  C   LIG    1       26.764 -17.793   3.037  0.00  0.00    +0.008 C 
ATOM     16  C   LIG    1       25.413 -20.449   4.089  0.00  0.00    +0.008 C 
ATOM     17  C   LIG    1       22.557 -17.892   4.417  0.00  0.00    +0.011 C 
ATOM     18  C   LIG    1       24.187 -21.357   4.065  0.00  0.00    +0.049 C 
ENDROOT
BRANCH   1  20
ATOM     19  C   LIG    1       20.768 -21.572   4.985  0.00  0.00    +0.007 C 
ATOM     20  C   LIG    1       21.765 -21.060   4.554  0.00  0.00    -0.070 C 
ENDBRANCH   1  20
BRANCH   2  21
ATOM     21  C   LIG    1       23.306 -19.243   6.354  0.00  0.00    +0.007 C 
ATOM     22  C   LIG    1       23.658 -20.543   7.062  0.00  0.00    +0.004 C 
ENDBRANCH   2  21
BRANCH   1  23
ATOM     23  O   LIG    1       22.746 -20.121   2.641  0.00  0.00    -0.376 OA
ATOM     24  H   LIG    1       21.799 -19.916   2.550  0.00  0.00    +0.211 HD
ENDBRANCH   1  23
TORSDOF 3
ENDMDL
