MODEL 1
REMARK VINA RESULT:     -10.0      0.000      0.000
REMARK  Name = *****
REMARK                            x       y       z     vdW  Elec       q    Type
REMARK                         _______ _______ _______ _____ _____    ______ ____
ROOT
ATOM      1  C   LIG    1       26.514 -21.227   6.507  0.00  0.00    +0.211 C 
ATOM      2  O   LIG    1       26.840 -22.586   6.843  0.00  0.00    -0.483 OA
ATOM      3  C   LIG    1       25.791 -23.454   6.706  0.00  0.00    +0.139 A 
ATOM      4  C   LIG    1       24.452 -23.065   6.759  0.00  0.00    +0.101 A 
ATOM      5  C   LIG    1       23.441 -24.025   6.629  0.00  0.00    +0.134 A 
ATOM      6  C   LIG    1       23.763 -25.369   6.455  0.00  0.00    +0.091 A 
ATOM      7  C   LIG    1       25.103 -25.746   6.421  0.00  0.00    +0.124 A 
ATOM      8  C   LIG    1       24.146 -21.644   7.006  0.00  0.00    +0.174 C 
ATOM      9  O   LIG    1       22.978 -21.268   7.038  0.00  0.00    -0.292 OA
ATOM     10  C   LIG    1       26.117 -24.801   6.548  0.00  0.00    +0.092 A 
ATOM     11  C   LIG    1       25.310 -20.738   7.301  0.00  0.00    +0.129 C 
ENDROOT
BRANCH   1  15
ATOM     12  C   LIG    1       30.002 -18.738   7.299  0.00  0.00    +0.161 A 
ATOM     13  C   LIG    1       29.413 -18.742   6.031  0.00  0.00    +0.159 A 
ATOM     14  C   LIG    1       28.295 -19.548   5.770  0.00  0.00    +0.056 A 
ATOM     15  C   LIG    1       27.733 -20.359   6.771  0.00  0.00    -0.003 A 
ATOM     16  C   LIG    1       28.335 -20.362   8.035  0.00  0.00    +0.011 A 
ATOM     17  C   LIG    1       29.451 -19.559   8.290  0.00  0.00    +0.050 A 
BRANCH  12  19
ATOM     18  C   LIG    1       31.659 -18.374   8.988  0.00  0.00    +0.277 C 
ATOM     19  O   LIG    1       31.082 -18.023   7.738  0.00  0.00    -0.491 OA
ENDBRANCH  12  19
BRANCH  13  20
ATOM     20  O   LIG    1       29.901 -17.968   5.014  0.00  0.00    -0.503 OA
ATOM     21  H   LIG    1       30.566 -18.474   4.519  0.00  0.00    +0.292 HD
ENDBRANCH  13  20
ENDBRANCH   1  15
BRANCH   7  22
ATOM     22  O   LIG    1       25.469 -27.049   6.265  0.00  0.00    -0.506 OA
ATOM     23  H   LIG    1       26.037 -27.309   7.009  0.00  0.00    +0.292 HD
ENDBRANCH   7  22
BRANCH   5  24
ATOM     24  O   LIG    1       22.108 -23.715   6.679  0.00  0.00    -0.506 OA
ATOM     25  H   LIG    1       21.653 -24.196   5.951  0.00  0.00    +0.292 HD
ENDBRANCH   5  24
TORSDOF 5
ENDMDL
MODEL 2
REMARK VINA RESULT:      -8.8      1.920      2.638
REMARK  Name = *****
REMARK                            x       y       z     vdW  Elec       q    Type
REMARK                         _______ _______ _______ _____ _____    ______ ____
ROOT
ATOM      1  C   LIG    1       28.152 -20.898   6.657  0.00  0.00    +0.211 C 
ATOM      2  O   LIG    1       27.495 -21.947   7.390  0.00  0.00    -0.483 OA
ATOM      3  C   LIG    1       26.430 -22.496   6.728  0.00  0.00    +0.139 A 
ATOM      4  C   LIG    1       25.708 -21.831   5.737  0.00  0.00    +0.101 A 
ATOM      5  C   LIG    1       24.618 -22.463   5.125  0.00  0.00    +0.134 A 
ATOM      6  C   LIG    1       24.244 -23.749   5.507  0.00  0.00    +0.091 A 
ATOM      7  C   LIG    1       24.963 -24.395   6.509  0.00  0.00    +0.124 A 
ATOM      8  C   LIG    1       26.091 -20.448   5.401  0.00  0.00    +0.174 C 
ATOM      9  O   LIG    1       25.488 -19.845   4.518  0.00  0.00    -0.292 OA
ATOM     10  C   LIG    1       26.049 -23.778   7.124  0.00  0.00    +0.092 A 
ATOM     11  C   LIG    1       27.165 -19.816   6.243  0.00  0.00    +0.129 C 
ENDROOT
BRANCH   1  15
ATOM     12  C   LIG    1       31.327 -19.228   9.132  0.00  0.00    +0.161 A 
ATOM     13  C   LIG    1       31.240 -20.609   8.934  0.00  0.00    +0.159 A 
ATOM     14  C   LIG    1       30.215 -21.152   8.145  0.00  0.00    +0.056 A 
ATOM     15  C   LIG    1       29.260 -20.326   7.526  0.00  0.00    -0.003 A 
ATOM     16  C   LIG    1       29.343 -18.945   7.739  0.00  0.00    +0.011 A 
ATOM     17  C   LIG    1       30.365 -18.409   8.528  0.00  0.00    +0.050 A 
BRANCH  12  19
ATOM     18  C   LIG    1       32.240 -17.106   9.761  0.00  0.00    +0.277 C 
ATOM     19  O   LIG    1       32.248 -18.524   9.857  0.00  0.00    -0.491 OA
ENDBRANCH  12  19
BRANCH  13  20
ATOM     20  O   LIG    1       32.144 -21.469   9.497  0.00  0.00    -0.503 OA
ATOM     21  H   LIG    1       31.680 -22.065  10.106  0.00  0.00    +0.292 HD
ENDBRANCH  13  20
ENDBRANCH   1  15
BRANCH   7  22
ATOM     22  O   LIG    1       24.629 -25.649   6.926  0.00  0.00    -0.506 OA
ATOM     23  H   LIG    1       24.132 -25.583   7.758  0.00  0.00    +0.292 HD
ENDBRANCH   7  22
BRANCH   5  24
ATOM     24  O   LIG    1       23.861 -21.868   4.152  0.00  0.00    -0.506 OA
ATOM     25  H   LIG    1       23.221 -21.260   4.587  0.00  0.00    +0.292 HD
ENDBRANCH   5  24
TORSDOF 5
ENDMDL
MODEL 3
REMARK VINA RESULT:      -8.7      2.153      3.689
REMARK  Name = *****
REMARK                            x       y       z     vdW  Elec       q    Type
REMARK                         _______ _______ _______ _____ _____    ______ ____
ROOT
ATOM      1  C   LIG    1       27.641 -20.478   7.538  0.00  0.00    +0.211 C 
ATOM      2  O   LIG    1       27.387 -19.997   6.207  0.00  0.00    -0.483 OA
ATOM      3  C   LIG    1       26.235 -20.489   5.654  0.00  0.00    +0.139 A 
ATOM      4  C   LIG    1       25.637 -21.686   6.048  0.00  0.00    +0.101 A 
ATOM      5  C   LIG    1       24.468 -22.124   5.415  0.00  0.00    +0.134 A 
ATOM      6  C   LIG    1       23.902 -21.376   4.386  0.00  0.00    +0.091 A 
ATOM      7  C   LIG    1       24.518 -20.191   3.991  0.00  0.00    +0.124 A 
ATOM      8  C   LIG    1       26.296 -22.485   7.098  0.00  0.00    +0.174 C 
ATOM      9  O   LIG    1       25.783 -23.532   7.480  0.00  0.00    -0.292 OA
ATOM     10  C   LIG    1       25.680 -19.745   4.614  0.00  0.00    +0.092 A 
ATOM     11  C   LIG    1       27.635 -22.000   7.582  0.00  0.00    +0.129 C 
ENDROOT
BRANCH   1  15
ATOM     12  C   LIG    1       31.465 -18.855   8.853  0.00  0.00    +0.161 A 
ATOM     13  C   LIG    1       31.247 -20.235   8.859  0.00  0.00    +0.159 A 
ATOM     14  C   LIG    1       30.015 -20.761   8.443  0.00  0.00    +0.056 A 
ATOM     15  C   LIG    1       28.977 -19.921   8.004  0.00  0.00    -0.003 A 
ATOM     16  C   LIG    1       29.195 -18.539   8.014  0.00  0.00    +0.011 A 
ATOM     17  C   LIG    1       30.425 -18.019   8.430  0.00  0.00    +0.050 A 
BRANCH  12  19
ATOM     18  C   LIG    1       32.452 -16.803   9.593  0.00  0.00    +0.277 C 
ATOM     19  O   LIG    1       32.590 -18.165   9.215  0.00  0.00    -0.491 OA
ENDBRANCH  12  19
BRANCH  13  20
ATOM     20  O   LIG    1       32.218 -21.110   9.263  0.00  0.00    -0.503 OA
ATOM     21  H   LIG    1       31.850 -21.709   9.932  0.00  0.00    +0.292 HD
ENDBRANCH  13  20
ENDBRANCH   1  15
BRANCH   7  22
ATOM     22  O   LIG    1       24.010 -19.430   2.981  0.00  0.00    -0.506 OA
ATOM     23  H   LIG    1       24.633 -18.712   2.782  0.00  0.00    +0.292 HD
ENDBRANCH   7  22
BRANCH   5  24
ATOM     24  O   LIG    1       23.833 -23.291   5.745  0.00  0.00    -0.506 OA
ATOM     25  H   LIG    1       23.519 -23.717   4.915  0.00  0.00    +0.292 HD
ENDBRANCH   5  24
TORSDOF 5
ENDMDL
MODEL 4
REMARK VINA RESULT:      -8.7      1.744      3.134
REMARK  Name = *****
REMARK                            x       y       z     vdW  Elec       q    Type
REMARK                         _______ _______ _______ _____ _____    ______ ____
ROOT
ATOM      1  C   LIG    1       26.465 -21.032   7.055  0.00  0.00    +0.211 C 
ATOM      2  O   LIG    1       25.780 -20.369   5.978  0.00  0.00    -0.483 OA
ATOM      3  C   LIG    1       24.494 -20.799   5.797  0.00  0.00    +0.139 A 
ATOM      4  C   LIG    1       24.031 -22.052   6.200  0.00  0.00    +0.101 A 
ATOM      5  C   LIG    1       22.702 -22.417   5.958  0.00  0.00    +0.134 A 
ATOM      6  C   LIG    1       21.838 -21.539   5.308  0.00  0.00    +0.091 A 
ATOM      7  C   LIG    1       22.316 -20.297   4.895  0.00  0.00    +0.124 A 
ATOM      8  C   LIG    1       24.988 -22.981   6.830  0.00  0.00    +0.174 C 
ATOM      9  O   LIG    1       24.606 -24.082   7.214  0.00  0.00    -0.292 OA
ATOM     10  C   LIG    1       23.635 -19.924   5.132  0.00  0.00    +0.092 A 
ATOM     11  C   LIG    1       26.427 -22.544   6.882  0.00  0.00    +0.129 C 
ENDROOT
BRANCH   1  15
ATOM     12  C   LIG    1       30.570 -19.578   7.219  0.00  0.00    +0.161 A 
ATOM     13  C   LIG    1       29.684 -19.080   6.259  0.00  0.00    +0.159 A 
ATOM     14  C   LIG    1       28.364 -19.551   6.198  0.00  0.00    +0.056 A 
ATOM     15  C   LIG    1       27.896 -20.522   7.100  0.00  0.00    -0.003 A 
ATOM     16  C   LIG    1       28.792 -21.028   8.050  0.00  0.00    +0.011 A 
ATOM     17  C   LIG    1       30.107 -20.557   8.106  0.00  0.00    +0.050 A 
BRANCH  12  19
ATOM     18  C   LIG    1       32.165 -18.224   8.382  0.00  0.00    +0.277 C 
ATOM     19  O   LIG    1       31.878 -19.241   7.433  0.00  0.00    -0.491 OA
ENDBRANCH  12  19
BRANCH  13  20
ATOM     20  O   LIG    1       30.070 -18.125   5.359  0.00  0.00    -0.503 OA
ATOM     21  H   LIG    1       30.380 -17.340   5.839  0.00  0.00    +0.292 HD
ENDBRANCH  13  20
ENDBRANCH   1  15
BRANCH   7  22
ATOM     22  O   LIG    1       21.513 -19.409   4.245  0.00  0.00    -0.506 OA
ATOM     23  H   LIG    1       21.132 -18.794   4.893  0.00  0.00    +0.292 HD
ENDBRANCH   7  22
BRANCH   5  24
ATOM     24  O   LIG    1       22.184 -23.632   6.319  0.00  0.00    -0.506 OA
ATOM     25  H   LIG    1       21.862 -24.084   5.506  0.00  0.00    +0.292 HD
ENDBRANCH   5  24
TORSDOF 5
ENDMDL
MODEL 5
REMARK VINA RESULT:      -8.4      1.292      7.275
REMARK  Name = *****
REMARK                            x       y       z     vdW  Elec       q    Type
REMARK                         _______ _______ _______ _____ _____    ______ ____
ROOT
ATOM      1  C   LIG    1       26.650 -21.595   6.782  0.00  0.00    +0.211 C 
ATOM      2  O   LIG    1       27.951 -21.979   7.259  0.00  0.00    -0.483 OA
ATOM      3  C   LIG    1       28.846 -20.946   7.309  0.00  0.00    +0.139 A 
ATOM      4  C   LIG    1       28.744 -19.795   6.527  0.00  0.00    +0.101 A 
ATOM      5  C   LIG    1       29.718 -18.793   6.628  0.00  0.00    +0.134 A 
ATOM      6  C   LIG    1       30.795 -18.944   7.499  0.00  0.00    +0.091 A 
ATOM      7  C   LIG    1       30.894 -20.105   8.261  0.00  0.00    +0.124 A 
ATOM      8  C   LIG    1       27.626 -19.695   5.571  0.00  0.00    +0.174 C 
ATOM      9  O   LIG    1       27.498 -18.685   4.885  0.00  0.00    -0.292 OA
ATOM     10  C   LIG    1       29.931 -21.106   8.170  0.00  0.00    +0.092 A 
ATOM     11  C   LIG    1       26.743 -20.904   5.428  0.00  0.00    +0.129 C 
ENDROOT
BRANCH   1  15
ATOM     12  C   LIG    1       24.178 -25.176   6.541  0.00  0.00    +0.161 A 
ATOM     13  C   LIG    1       23.584 -23.914   6.631  0.00  0.00    +0.159 A 
ATOM     14  C   LIG    1       24.376 -22.760   6.716  0.00  0.00    +0.056 A 
ATOM     15  C   LIG    1       25.779 -22.838   6.704  0.00  0.00    -0.003 A 
ATOM     16  C   LIG    1       26.370 -24.105   6.628  0.00  0.00    +0.011 A 
ATOM     17  C   LIG    1       25.577 -25.253   6.544  0.00  0.00    +0.050 A 
BRANCH  12  19
ATOM     18  C   LIG    1       24.322 -27.476   5.890  0.00  0.00    +0.277 C 
ATOM     19  O   LIG    1       23.577 -26.401   6.446  0.00  0.00    -0.491 OA
ENDBRANCH  12  19
BRANCH  13  20
ATOM     20  O   LIG    1       22.224 -23.765   6.636  0.00  0.00    -0.503 OA
ATOM     21  H   LIG    1       22.005 -22.831   6.492  0.00  0.00    +0.292 HD
ENDBRANCH  13  20
ENDBRANCH   1  15
BRANCH   7  22
ATOM     22  O   LIG    1       31.935 -20.304   9.118  0.00  0.00    -0.506 OA
ATOM     23  H   LIG    1       32.573 -20.910   8.705  0.00  0.00    +0.292 HD
ENDBRANCH   7  22
BRANCH   5  24
ATOM     24  O   LIG    1       29.685 -17.643   5.887  0.00  0.00    -0.506 OA
ATOM     25  H   LIG    1       30.111 -17.823   5.019  0.00  0.00    +0.292 HD
ENDBRANCH   5  24
TORSDOF 5
ENDMDL
MODEL 6
REMARK VINA RESULT:      -7.9      2.858      7.570
REMARK  Name = *****
REMARK                            x       y       z     vdW  Elec       q    Type
REMARK                         _______ _______ _______ _____ _____    ______ ____
ROOT
ATOM      1  C   LIG    1       28.059 -20.429   6.847  0.00  0.00    +0.211 C 
ATOM      2  O   LIG    1       28.326 -19.158   7.465  0.00  0.00    -0.483 OA
ATOM      3  C   LIG    1       29.578 -19.062   8.008  0.00  0.00    +0.139 A 
ATOM      4  C   LIG    1       30.334 -20.163   8.412  0.00  0.00    +0.101 A 
ATOM      5  C   LIG    1       31.601 -19.972   8.976  0.00  0.00    +0.134 A 
ATOM      6  C   LIG    1       32.109 -18.686   9.145  0.00  0.00    +0.091 A 
ATOM      7  C   LIG    1       31.338 -17.594   8.753  0.00  0.00    +0.124 A 
ATOM      8  C   LIG    1       29.741 -21.506   8.276  0.00  0.00    +0.174 C 
ATOM      9  O   LIG    1       30.389 -22.496   8.603  0.00  0.00    -0.292 OA
ATOM     10  C   LIG    1       30.078 -17.773   8.191  0.00  0.00    +0.092 A 
ATOM     11  C   LIG    1       28.309 -21.575   7.818  0.00  0.00    +0.129 C 
ENDROOT
BRANCH   1  15
ATOM     12  C   LIG    1       23.944 -20.415   5.413  0.00  0.00    +0.161 A 
ATOM     13  C   LIG    1       24.227 -20.757   6.738  0.00  0.00    +0.159 A 
ATOM     14  C   LIG    1       25.551 -20.770   7.202  0.00  0.00    +0.056 A 
ATOM     15  C   LIG    1       26.621 -20.432   6.355  0.00  0.00    -0.003 A 
ATOM     16  C   LIG    1       26.333 -20.104   5.025  0.00  0.00    +0.011 A 
ATOM     17  C   LIG    1       25.012 -20.093   4.567  0.00  0.00    +0.050 A 
BRANCH  12  19
ATOM     18  C   LIG    1       22.174 -19.059   4.542  0.00  0.00    +0.277 C 
ATOM     19  O   LIG    1       22.729 -20.343   4.788  0.00  0.00    -0.491 OA
ENDBRANCH  12  19
BRANCH  13  20
ATOM     20  O   LIG    1       23.232 -21.086   7.619  0.00  0.00    -0.503 OA
ATOM     21  H   LIG    1       23.453 -20.732   8.495  0.00  0.00    +0.292 HD
ENDBRANCH  13  20
ENDBRANCH   1  15
BRANCH   7  22
ATOM     22  O   LIG    1       31.786 -16.317   8.910  0.00  0.00    -0.506 OA
ATOM     23  H   LIG    1       32.308 -16.263   9.728  0.00  0.00    +0.292 HD
ENDBRANCH   7  22
BRANCH   5  24
ATOM     24  O   LIG    1       32.392 -21.005   9.401  0.00  0.00    -0.506 OA
ATOM     25  H   LIG    1       32.897 -20.702  10.190  0.00  0.00    +0.292 HD
ENDBRANCH   5  24
TORSDOF 5
ENDMDL
MODEL 7
REMARK VINA RESULT:      -7.7      2.576      6.988
REMARK  Name = *****
REMARK                            x       y       z     vdW  Elec       q    Type
REMARK                         _______ _______ _______ _____ _____    ______ ____
ROOT
ATOM      1  C   LIG    1       27.134 -20.097   6.788  0.00  0.00    +0.211 C 
ATOM      2  O   LIG    1       27.834 -21.230   7.332  0.00  0.00    -0.483 OA
ATOM      3  C   LIG    1       29.120 -20.954   7.709  0.00  0.00    +0.139 A 
ATOM      4  C   LIG    1       29.874 -19.906   7.180  0.00  0.00    +0.101 A 
ATOM      5  C   LIG    1       31.191 -19.707   7.610  0.00  0.00    +0.134 A 
ATOM      6  C   LIG    1       31.759 -20.557   8.557  0.00  0.00    +0.091 A 
ATOM      7  C   LIG    1       31.001 -21.610   9.064  0.00  0.00    +0.124 A 
ATOM      8  C   LIG    1       29.264 -19.063   6.135  0.00  0.00    +0.174 C 
ATOM      9  O   LIG    1       29.894 -18.120   5.666  0.00  0.00    -0.292 OA
ATOM     10  C   LIG    1       29.690 -21.816   8.645  0.00  0.00    +0.092 A 
ATOM     11  C   LIG    1       27.908 -19.477   5.633  0.00  0.00    +0.129 C 
ENDROOT
BRANCH   1  15
ATOM     12  C   LIG    1       23.171 -21.412   5.542  0.00  0.00    +0.161 A 
ATOM     13  C   LIG    1       24.208 -21.320   4.610  0.00  0.00    +0.159 A 
ATOM     14  C   LIG    1       25.484 -20.889   5.005  0.00  0.00    +0.056 A 
ATOM     15  C   LIG    1       25.754 -20.552   6.343  0.00  0.00    -0.003 A 
ATOM     16  C   LIG    1       24.709 -20.632   7.270  0.00  0.00    +0.011 A 
ATOM     17  C   LIG    1       23.439 -21.060   6.871  0.00  0.00    +0.050 A 
BRANCH  12  19
ATOM     18  C   LIG    1       21.040 -21.005   4.531  0.00  0.00    +0.277 C 
ATOM     19  O   LIG    1       21.877 -21.811   5.347  0.00  0.00    -0.491 OA
ENDBRANCH  12  19
BRANCH  13  20
ATOM     20  O   LIG    1       24.017 -21.644   3.295  0.00  0.00    -0.503 OA
ATOM     21  H   LIG    1       23.496 -22.462   3.240  0.00  0.00    +0.292 HD
ENDBRANCH  13  20
ENDBRANCH   1  15
BRANCH   7  22
ATOM     22  O   LIG    1       31.516 -22.475   9.982  0.00  0.00    -0.506 OA
ATOM     23  H   LIG    1       31.320 -22.143  10.874  0.00  0.00    +0.292 HD
ENDBRANCH   7  22
BRANCH   5  24
ATOM     24  O   LIG    1       31.990 -18.705   7.129  0.00  0.00    -0.506 OA
ATOM     25  H   LIG    1       32.912 -19.045   7.072  0.00  0.00    +0.292 HD
ENDBRANCH   5  24
TORSDOF 5
ENDMDL
MODEL 8
REMARK VINA RESULT:      -7.7      2.462      7.718
REMARK  Name = *****
REMARK                            x       y       z     vdW  Elec       q    Type
REMARK                         _______ _______ _______ _____ _____    ______ ____
ROOT
ATOM      1  C   LIG    1       24.860 -25.149   6.860  0.00  0.00    +0.211 C 
ATOM      2  O   LIG    1       26.062 -24.383   6.673  0.00  0.00    -0.483 OA
ATOM      3  C   LIG    1       25.965 -23.090   7.109  0.00  0.00    +0.139 A 
ATOM      4  C   LIG    1       24.757 -22.402   7.229  0.00  0.00    +0.101 A 
ATOM      5  C   LIG    1       24.752 -21.072   7.666  0.00  0.00    +0.134 A 
ATOM      6  C   LIG    1       25.948 -20.427   7.974  0.00  0.00    +0.091 A 
ATOM      7  C   LIG    1       27.148 -21.120   7.833  0.00  0.00    +0.124 A 
ATOM      8  C   LIG    1       23.516 -23.094   6.836  0.00  0.00    +0.174 C 
ATOM      9  O   LIG    1       22.436 -22.522   6.951  0.00  0.00    -0.292 OA
ATOM     10  C   LIG    1       27.165 -22.442   7.401  0.00  0.00    +0.092 A 
ATOM     11  C   LIG    1       23.663 -24.459   6.221  0.00  0.00    +0.129 C 
ENDROOT
BRANCH   1  15
ATOM     12  C   LIG    1       25.496 -29.105   5.147  0.00  0.00    +0.161 A 
ATOM     13  C   LIG    1       24.259 -28.770   5.706  0.00  0.00    +0.159 A 
ATOM     14  C   LIG    1       24.053 -27.500   6.265  0.00  0.00    +0.056 A 
ATOM     15  C   LIG    1       25.073 -26.533   6.270  0.00  0.00    -0.003 A 
ATOM     16  C   LIG    1       26.315 -26.879   5.723  0.00  0.00    +0.011 A 
ATOM     17  C   LIG    1       26.516 -28.146   5.168  0.00  0.00    +0.050 A 
BRANCH  12  19
ATOM     18  C   LIG    1       25.861 -31.463   5.342  0.00  0.00    +0.277 C 
ATOM     19  O   LIG    1       25.880 -30.279   4.558  0.00  0.00    -0.491 OA
ENDBRANCH  12  19
BRANCH  13  20
ATOM     20  O   LIG    1       23.220 -29.659   5.723  0.00  0.00    -0.503 OA
ATOM     21  H   LIG    1       23.263 -30.216   4.930  0.00  0.00    +0.292 HD
ENDBRANCH  13  20
ENDBRANCH   1  15
BRANCH   7  22
ATOM     22  O   LIG    1       28.344 -20.529   8.110  0.00  0.00    -0.506 OA
ATOM     23  H   LIG    1       28.195 -19.777   8.707  0.00  0.00    +0.292 HD
ENDBRANCH   7  22
BRANCH   5  24
ATOM     24  O   LIG    1       23.606 -20.335   7.800  0.00  0.00    -0.506 OA
ATOM     25  H   LIG    1       23.747 -19.674   8.515  0.00  0.00    +0.292 HD
ENDBRANCH   5  24
TORSDOF 5
ENDMDL
MODEL 9
REMARK VINA RESULT:      -7.4      3.250      7.800
REMARK  Name = *****
REMARK                            x       y       z     vdW  Elec       q    Type
REMARK                         _______ _______ _______ _____ _____    ______ ____
ROOT
ATOM      1  C   LIG    1       24.655 -25.142   6.412  0.00  0.00    +0.211 C 
ATOM      2  O   LIG    1       25.495 -24.477   7.370  0.00  0.00    -0.483 OA
ATOM      3  C   LIG    1       25.458 -23.112   7.281  0.00  0.00    +0.139 A 
ATOM      4  C   LIG    1       25.105 -22.421   6.122  0.00  0.00    +0.101 A 
ATOM      5  C   LIG    1       25.113 -21.021   6.113  0.00  0.00    +0.134 A 
ATOM      6  C   LIG    1       25.479 -20.312   7.255  0.00  0.00    +0.091 A 
ATOM      7  C   LIG    1       25.845 -21.014   8.401  0.00  0.00    +0.124 A 
ATOM      8  C   LIG    1       24.783 -23.202   4.913  0.00  0.00    +0.174 C 
ATOM      9  O   LIG    1       24.449 -22.623   3.884  0.00  0.00    -0.292 OA
ATOM     10  C   LIG    1       25.841 -22.405   8.421  0.00  0.00    +0.092 A 
ATOM     11  C   LIG    1       24.975 -24.691   4.994  0.00  0.00    +0.129 C 
ENDROOT
BRANCH   1  15
ATOM     12  C   LIG    1       25.230 -29.439   6.858  0.00  0.00    +0.161 A 
ATOM     13  C   LIG    1       24.174 -28.946   6.087  0.00  0.00    +0.159 A 
ATOM     14  C   LIG    1       23.981 -27.564   5.946  0.00  0.00    +0.056 A 
ATOM     15  C   LIG    1       24.844 -26.642   6.566  0.00  0.00    -0.003 A 
ATOM     16  C   LIG    1       25.891 -27.141   7.350  0.00  0.00    +0.011 A 
ATOM     17  C   LIG    1       26.079 -28.520   7.488  0.00  0.00    +0.050 A 
BRANCH  12  19
ATOM     18  C   LIG    1       25.973 -31.093   8.422  0.00  0.00    +0.277 C 
ATOM     19  O   LIG    1       25.576 -30.739   7.105  0.00  0.00    -0.491 OA
ENDBRANCH  12  19
BRANCH  13  20
ATOM     20  O   LIG    1       23.305 -29.787   5.447  0.00  0.00    -0.503 OA
ATOM     21  H   LIG    1       23.204 -29.500   4.525  0.00  0.00    +0.292 HD
ENDBRANCH  13  20
ENDBRANCH   1  15
BRANCH   7  22
ATOM     22  O   LIG    1       26.224 -20.366   9.539  0.00  0.00    -0.506 OA
ATOM     23  H   LIG    1       27.048 -20.761   9.868  0.00  0.00    +0.292 HD
ENDBRANCH   7  22
BRANCH   5  24
ATOM     24  O   LIG    1       24.786 -20.279   5.010  0.00  0.00    -0.506 OA
ATOM     25  H   LIG    1       24.638 -20.896   4.257  0.00  0.00    +0.292 HD
ENDBRANCH   5  24
TORSDOF 5
ENDMDL
