MODEL 1
REMARK VINA RESULT:      -8.7      0.000      0.000
REMARK  Name = *****
REMARK                            x       y       z     vdW  Elec       q    Type
REMARK                         _______ _______ _______ _____ _____    ______ ____
ROOT
ATOM      1  C   LIG    1       25.810 -31.776   5.987  0.00  0.00    +0.136 A 
ATOM      2  N   LIG    1       25.880 -31.829   7.363  0.00  0.00    -0.297 N 
ATOM      3  C   LIG    1       25.516 -30.594   7.847  0.00  0.00    +0.114 A 
ATOM      4  C   LIG    1       25.338 -30.445   9.273  0.00  0.00    +0.142 A 
ATOM      5  N   LIG    1       25.683 -31.418  10.083  0.00  0.00    -0.237 NA
ATOM      6  C   LIG    1       26.176 -32.589   9.551  0.00  0.00    +0.131 A 
ATOM      7  C   LIG    1       25.482 -29.774   6.737  0.00  0.00    +0.100 A 
ATOM      8  C   LIG    1       26.239 -32.839   8.235  0.00  0.00    +0.113 A 
ATOM      9  N   LIG    1       25.620 -30.529   5.586  0.00  0.00    -0.229 NA
ENDROOT
BRANCH   1  12
ATOM     10  C   LIG    1       23.439 -33.474   4.780  0.00  0.00    +0.292 C 
ATOM     11  N   LIG    1       24.712 -33.218   4.314  0.00  0.00    -0.281 N 
ATOM     12  C   LIG    1       25.899 -33.009   5.140  0.00  0.00    +0.143 C 
ATOM     13  C   LIG    1       27.052 -32.916   4.136  0.00  0.00    +0.032 C 
ATOM     14  C   LIG    1       26.539 -33.696   2.931  0.00  0.00    +0.021 C 
ATOM     15  C   LIG    1       25.057 -33.352   2.913  0.00  0.00    +0.109 C 
ATOM     16  O   LIG    1       22.508 -33.825   4.065  0.00  0.00    -0.261 OA
BRANCH  10  19
ATOM     17  C   LIG    1       22.426 -33.220   8.750  0.00  0.00    +0.107 C 
ATOM     18  C   LIG    1       22.895 -33.247   7.363  0.00  0.00    -0.096 C 
ATOM     19  C   LIG    1       23.197 -33.320   6.206  0.00  0.00    -0.008 C 
ENDBRANCH  10  19
ENDBRANCH   1  12
BRANCH   7  20
ATOM     20  C   LIG    1       25.355 -28.327   6.696  0.00  0.00    +0.003 A 
ATOM     21  C   LIG    1       24.359 -27.740   5.909  0.00  0.00    +0.011 A 
ATOM     22  C   LIG    1       24.259 -26.348   5.810  0.00  0.00    +0.013 A 
ATOM     23  C   LIG    1       25.160 -25.517   6.494  0.00  0.00    +0.037 A 
ATOM     24  C   LIG    1       26.140 -26.097   7.302  0.00  0.00    +0.013 A 
ATOM     25  C   LIG    1       26.253 -27.489   7.374  0.00  0.00    +0.011 A 
BRANCH  23  26
ATOM     26  C   LIG    1       25.121 -24.026   6.362  0.00  0.00    +0.249 C 
ATOM     27  N   LIG    1       24.124 -23.567   5.527  0.00  0.00    -0.266 N 
ATOM     28  H   LIG    1       23.546 -24.244   5.060  0.00  0.00    +0.157 HD
ATOM     29  O   LIG    1       25.964 -23.370   6.959  0.00  0.00    -0.270 OA
BRANCH  27  30
ATOM     30  C   LIG    1       23.845 -22.233   5.210  0.00  0.00    +0.125 A 
ATOM     31  N   LIG    1       24.315 -21.661   4.091  0.00  0.00    -0.240 NA
ATOM     32  C   LIG    1       24.013 -20.362   3.875  0.00  0.00    +0.113 A 
ATOM     33  C   LIG    1       23.261 -19.590   4.742  0.00  0.00    +0.020 A 
ATOM     34  C   LIG    1       22.776 -20.190   5.894  0.00  0.00    +0.005 A 
ATOM     35  C   LIG    1       23.065 -21.531   6.130  0.00  0.00    +0.044 A 
ENDBRANCH  27  30
ENDBRANCH  23  26
ENDBRANCH   7  20
BRANCH   4  36
ATOM     36  N   LIG    1       24.770 -29.355   9.868  0.00  0.00    -0.341 N 
ATOM     37  H   LIG    1       24.652 -28.584   9.221  0.00  0.00    +0.144 HD
ATOM     38  H   LIG    1       25.163 -29.080  10.761  0.00  0.00    +0.144 HD
ENDBRANCH   4  36
TORSDOF 6
ENDMDL
MODEL 2
REMARK VINA RESULT:      -8.2      1.987      4.357
REMARK  Name = *****
REMARK                            x       y       z     vdW  Elec       q    Type
REMARK                         _______ _______ _______ _____ _____    ______ ____
ROOT
ATOM      1  C   LIG    1       23.643 -32.028   8.379  0.00  0.00    +0.136 A 
ATOM      2  N   LIG    1       24.060 -32.473   7.142  0.00  0.00    -0.297 N 
ATOM      3  C   LIG    1       24.713 -31.432   6.523  0.00  0.00    +0.114 A 
ATOM      4  C   LIG    1       25.402 -31.699   5.282  0.00  0.00    +0.142 A 
ATOM      5  N   LIG    1       25.257 -32.860   4.687  0.00  0.00    -0.237 NA
ATOM      6  C   LIG    1       24.476 -33.825   5.284  0.00  0.00    +0.131 A 
ATOM      7  C   LIG    1       24.444 -30.329   7.309  0.00  0.00    +0.100 A 
ATOM      8  C   LIG    1       23.920 -33.687   6.497  0.00  0.00    +0.113 A 
ATOM      9  N   LIG    1       23.820 -30.721   8.479  0.00  0.00    -0.229 NA
ENDROOT
BRANCH   1  12
ATOM     10  C   LIG    1       25.151 -33.148  10.916  0.00  0.00    +0.292 C 
ATOM     11  N   LIG    1       23.821 -32.850  10.697  0.00  0.00    -0.281 N 
ATOM     12  C   LIG    1       23.117 -32.967   9.422  0.00  0.00    +0.143 C 
ATOM     13  C   LIG    1       21.655 -32.662   9.764  0.00  0.00    +0.032 C 
ATOM     14  C   LIG    1       21.551 -33.025  11.240  0.00  0.00    +0.021 C 
ATOM     15  C   LIG    1       22.903 -32.595  11.789  0.00  0.00    +0.109 C 
ATOM     16  O   LIG    1       25.661 -33.215  12.028  0.00  0.00    -0.261 OA
BRANCH  10  19
ATOM     17  C   LIG    1       27.793 -33.676   7.819  0.00  0.00    +0.107 C 
ATOM     18  C   LIG    1       26.762 -33.546   8.852  0.00  0.00    -0.096 C 
ATOM     19  C   LIG    1       25.987 -33.397   9.752  0.00  0.00    -0.008 C 
ENDBRANCH  10  19
ENDBRANCH   1  12
BRANCH   7  20
ATOM     20  C   LIG    1       24.714 -28.932   7.013  0.00  0.00    +0.003 A 
ATOM     21  C   LIG    1       25.649 -28.228   7.779  0.00  0.00    +0.011 A 
ATOM     22  C   LIG    1       25.879 -26.867   7.549  0.00  0.00    +0.013 A 
ATOM     23  C   LIG    1       25.171 -26.184   6.548  0.00  0.00    +0.037 A 
ATOM     24  C   LIG    1       24.256 -26.887   5.761  0.00  0.00    +0.013 A 
ATOM     25  C   LIG    1       24.010 -28.240   6.016  0.00  0.00    +0.011 A 
BRANCH  23  26
ATOM     26  C   LIG    1       25.347 -24.716   6.314  0.00  0.00    +0.249 C 
ATOM     27  N   LIG    1       24.175 -24.058   6.003  0.00  0.00    -0.266 N 
ATOM     28  H   LIG    1       23.333 -24.600   5.924  0.00  0.00    +0.157 HD
ATOM     29  O   LIG    1       26.475 -24.249   6.387  0.00  0.00    -0.270 OA
BRANCH  27  30
ATOM     30  C   LIG    1       24.027 -22.693   5.734  0.00  0.00    +0.125 A 
ATOM     31  N   LIG    1       24.498 -22.143   4.604  0.00  0.00    -0.240 NA
ATOM     32  C   LIG    1       24.329 -20.813   4.435  0.00  0.00    +0.113 A 
ATOM     33  C   LIG    1       23.712 -19.990   5.360  0.00  0.00    +0.020 A 
ATOM     34  C   LIG    1       23.225 -20.568   6.523  0.00  0.00    +0.005 A 
ATOM     35  C   LIG    1       23.378 -21.938   6.711  0.00  0.00    +0.044 A 
ENDBRANCH  27  30
ENDBRANCH  23  26
ENDBRANCH   7  20
BRANCH   4  36
ATOM     36  N   LIG    1       26.265 -30.830   4.679  0.00  0.00    -0.341 N 
ATOM     37  H   LIG    1       26.884 -30.382   5.344  0.00  0.00    +0.144 HD
ATOM     38  H   LIG    1       25.855 -30.189   4.008  0.00  0.00    +0.144 HD
ENDBRANCH   4  36
TORSDOF 6
ENDMDL
MODEL 3
REMARK VINA RESULT:      -7.1      1.914      2.086
REMARK  Name = *****
REMARK                            x       y       z     vdW  Elec       q    Type
REMARK                         _______ _______ _______ _____ _____    ______ ____
ROOT
ATOM      1  C   LIG    1       25.803 -32.106   5.896  0.00  0.00    +0.136 A 
ATOM      2  N   LIG    1       25.735 -32.266   7.264  0.00  0.00    -0.297 N 
ATOM      3  C   LIG    1       25.341 -31.065   7.806  0.00  0.00    +0.114 A 
ATOM      4  C   LIG    1       25.023 -31.022   9.214  0.00  0.00    +0.142 A 
ATOM      5  N   LIG    1       25.273 -32.061   9.975  0.00  0.00    -0.237 NA
ATOM      6  C   LIG    1       25.801 -33.198   9.404  0.00  0.00    +0.131 A 
ATOM      7  C   LIG    1       25.428 -30.162   6.765  0.00  0.00    +0.100 A 
ATOM      8  C   LIG    1       25.992 -33.348   8.085  0.00  0.00    +0.113 A 
ATOM      9  N   LIG    1       25.671 -30.828   5.577  0.00  0.00    -0.229 NA
ENDROOT
BRANCH   1  12
ATOM     10  C   LIG    1       23.559 -33.576   4.233  0.00  0.00    +0.292 C 
ATOM     11  N   LIG    1       24.895 -33.352   3.971  0.00  0.00    -0.281 N 
ATOM     12  C   LIG    1       25.960 -33.272   4.968  0.00  0.00    +0.143 C 
ATOM     13  C   LIG    1       27.247 -33.164   4.145  0.00  0.00    +0.032 C 
ATOM     14  C   LIG    1       26.878 -33.818   2.819  0.00  0.00    +0.021 C 
ATOM     15  C   LIG    1       25.430 -33.395   2.625  0.00  0.00    +0.109 C 
ATOM     16  O   LIG    1       22.725 -33.819   3.369  0.00  0.00    -0.261 OA
BRANCH  10  19
ATOM     17  C   LIG    1       22.328 -33.801   8.143  0.00  0.00    +0.107 C 
ATOM     18  C   LIG    1       22.762 -33.593   6.760  0.00  0.00    -0.096 C 
ATOM     19  C   LIG    1       23.124 -33.521   5.620  0.00  0.00    -0.008 C 
ENDBRANCH  10  19
ENDBRANCH   1  12
BRANCH   7  20
ATOM     20  C   LIG    1       25.326 -28.713   6.825  0.00  0.00    +0.003 A 
ATOM     21  C   LIG    1       24.394 -28.050   6.021  0.00  0.00    +0.011 A 
ATOM     22  C   LIG    1       24.321 -26.653   6.020  0.00  0.00    +0.013 A 
ATOM     23  C   LIG    1       25.185 -25.893   6.824  0.00  0.00    +0.037 A 
ATOM     24  C   LIG    1       26.100 -26.551   7.650  0.00  0.00    +0.013 A 
ATOM     25  C   LIG    1       26.188 -27.946   7.623  0.00  0.00    +0.011 A 
BRANCH  23  26
ATOM     26  C   LIG    1       25.177 -24.396   6.803  0.00  0.00    +0.249 C 
ATOM     27  N   LIG    1       26.117 -23.822   7.633  0.00  0.00    -0.266 N 
ATOM     28  H   LIG    1       26.688 -24.430   8.195  0.00  0.00    +0.157 HD
ATOM     29  O   LIG    1       24.349 -23.831   6.101  0.00  0.00    -0.270 OA
BRANCH  27  30
ATOM     30  C   LIG    1       26.344 -22.455   7.824  0.00  0.00    +0.125 A 
ATOM     31  N   LIG    1       25.641 -21.742   8.717  0.00  0.00    -0.240 NA
ATOM     32  C   LIG    1       25.911 -20.422   8.820  0.00  0.00    +0.113 A 
ATOM     33  C   LIG    1       26.859 -19.767   8.055  0.00  0.00    +0.020 A 
ATOM     34  C   LIG    1       27.584 -20.513   7.137  0.00  0.00    +0.005 A 
ATOM     35  C   LIG    1       27.329 -21.875   7.023  0.00  0.00    +0.044 A 
ENDBRANCH  27  30
ENDBRANCH  23  26
ENDBRANCH   7  20
BRANCH   4  36
ATOM     36  N   LIG    1       24.414 -29.969   9.834  0.00  0.00    -0.341 N 
ATOM     37  H   LIG    1       24.469 -30.034  10.843  0.00  0.00    +0.144 HD
ATOM     38  H   LIG    1       23.491 -29.725   9.492  0.00  0.00    +0.144 HD
ENDBRANCH   4  36
TORSDOF 6
ENDMDL
MODEL 4
REMARK VINA RESULT:      -6.9      2.603      5.109
REMARK  Name = *****
REMARK                            x       y       z     vdW  Elec       q    Type
REMARK                         _______ _______ _______ _____ _____    ______ ____
ROOT
ATOM      1  C   LIG    1       23.872 -31.083   9.772  0.00  0.00    +0.136 A 
ATOM      2  N   LIG    1       24.342 -31.919   8.781  0.00  0.00    -0.297 N 
ATOM      3  C   LIG    1       24.943 -31.134   7.824  0.00  0.00    +0.114 A 
ATOM      4  C   LIG    1       25.673 -31.790   6.763  0.00  0.00    +0.142 A 
ATOM      5  N   LIG    1       25.612 -33.094   6.633  0.00  0.00    -0.237 NA
ATOM      6  C   LIG    1       24.878 -33.824   7.542  0.00  0.00    +0.131 A 
ATOM      7  C   LIG    1       24.592 -29.841   8.155  0.00  0.00    +0.100 A 
ATOM      8  C   LIG    1       24.289 -33.291   8.622  0.00  0.00    +0.113 A 
ATOM      9  N   LIG    1       23.968 -29.820   9.389  0.00  0.00    -0.229 NA
ENDROOT
BRANCH   1  12
ATOM     10  C   LIG    1       24.163 -29.757  12.621  0.00  0.00    +0.292 C 
ATOM     11  N   LIG    1       23.178 -30.557  12.079  0.00  0.00    -0.281 N 
ATOM     12  C   LIG    1       23.382 -31.610  11.086  0.00  0.00    +0.143 C 
ATOM     13  C   LIG    1       22.009 -32.275  10.947  0.00  0.00    +0.032 C 
ATOM     14  C   LIG    1       21.336 -31.987  12.283  0.00  0.00    +0.021 C 
ATOM     15  C   LIG    1       21.833 -30.589  12.617  0.00  0.00    +0.109 C 
ATOM     16  O   LIG    1       23.988 -29.014  13.580  0.00  0.00    -0.261 OA
BRANCH  10  19
ATOM     17  C   LIG    1       27.715 -29.927  10.571  0.00  0.00    +0.107 C 
ATOM     18  C   LIG    1       26.516 -29.858  11.410  0.00  0.00    -0.096 C 
ATOM     19  C   LIG    1       25.483 -29.806  12.014  0.00  0.00    -0.008 C 
ENDBRANCH  10  19
ENDBRANCH   1  12
BRANCH   7  20
ATOM     20  C   LIG    1       24.782 -28.633   7.370  0.00  0.00    +0.003 A 
ATOM     21  C   LIG    1       25.743 -27.694   7.763  0.00  0.00    +0.011 A 
ATOM     22  C   LIG    1       25.900 -26.498   7.056  0.00  0.00    +0.013 A 
ATOM     23  C   LIG    1       25.094 -26.217   5.942  0.00  0.00    +0.037 A 
ATOM     24  C   LIG    1       24.152 -27.162   5.528  0.00  0.00    +0.013 A 
ATOM     25  C   LIG    1       23.980 -28.342   6.257  0.00  0.00    +0.011 A 
BRANCH  23  26
ATOM     26  C   LIG    1       25.192 -24.921   5.198  0.00  0.00    +0.249 C 
ATOM     27  N   LIG    1       25.156 -23.808   6.012  0.00  0.00    -0.266 N 
ATOM     28  H   LIG    1       25.033 -23.946   7.000  0.00  0.00    +0.157 HD
ATOM     29  O   LIG    1       25.263 -24.958   3.977  0.00  0.00    -0.270 OA
BRANCH  27  30
ATOM     30  C   LIG    1       25.226 -22.471   5.606  0.00  0.00    +0.125 A 
ATOM     31  N   LIG    1       24.501 -22.008   4.577  0.00  0.00    -0.240 NA
ATOM     32  C   LIG    1       24.646 -20.707   4.240  0.00  0.00    +0.113 A 
ATOM     33  C   LIG    1       25.504 -19.835   4.885  0.00  0.00    +0.020 A 
ATOM     34  C   LIG    1       26.247 -20.321   5.950  0.00  0.00    +0.005 A 
ATOM     35  C   LIG    1       26.103 -21.654   6.321  0.00  0.00    +0.044 A 
ENDBRANCH  27  30
ENDBRANCH  23  26
ENDBRANCH   7  20
BRANCH   4  36
ATOM     36  N   LIG    1       26.495 -31.146   5.884  0.00  0.00    -0.341 N 
ATOM     37  H   LIG    1       27.035 -30.414   6.329  0.00  0.00    +0.144 HD
ATOM     38  H   LIG    1       26.073 -30.863   5.006  0.00  0.00    +0.144 HD
ENDBRANCH   4  36
TORSDOF 6
ENDMDL
MODEL 5
REMARK VINA RESULT:      -6.3      2.648      4.748
REMARK  Name = *****
REMARK                            x       y       z     vdW  Elec       q    Type
REMARK                         _______ _______ _______ _____ _____    ______ ____
ROOT
ATOM      1  C   LIG    1       23.579 -32.000   8.325  0.00  0.00    +0.136 A 
ATOM      2  N   LIG    1       24.060 -32.456   7.116  0.00  0.00    -0.297 N 
ATOM      3  C   LIG    1       24.747 -31.421   6.523  0.00  0.00    +0.114 A 
ATOM      4  C   LIG    1       25.500 -31.700   5.322  0.00  0.00    +0.142 A 
ATOM      5  N   LIG    1       25.384 -32.866   4.731  0.00  0.00    -0.237 NA
ATOM      6  C   LIG    1       24.569 -33.824   5.293  0.00  0.00    +0.131 A 
ATOM      7  C   LIG    1       24.441 -30.311   7.285  0.00  0.00    +0.100 A 
ATOM      8  C   LIG    1       23.950 -33.675   6.474  0.00  0.00    +0.113 A 
ATOM      9  N   LIG    1       23.754 -30.692   8.424  0.00  0.00    -0.229 NA
ENDROOT
BRANCH   1  12
ATOM     10  C   LIG    1       23.454 -31.607  11.454  0.00  0.00    +0.292 C 
ATOM     11  N   LIG    1       22.602 -32.245  10.576  0.00  0.00    -0.281 N 
ATOM     12  C   LIG    1       22.996 -32.928   9.347  0.00  0.00    +0.143 C 
ATOM     13  C   LIG    1       21.705 -33.579   8.840  0.00  0.00    +0.032 C 
ATOM     14  C   LIG    1       20.872 -33.749  10.104  0.00  0.00    +0.021 C 
ATOM     15  C   LIG    1       21.214 -32.501  10.904  0.00  0.00    +0.109 C 
ATOM     16  O   LIG    1       23.117 -31.205  12.562  0.00  0.00    -0.261 OA
BRANCH  10  19
ATOM     17  C   LIG    1       27.222 -30.731  10.079  0.00  0.00    +0.107 C 
ATOM     18  C   LIG    1       25.928 -31.146  10.626  0.00  0.00    -0.096 C 
ATOM     19  C   LIG    1       24.831 -31.406  11.033  0.00  0.00    -0.008 C 
ENDBRANCH  10  19
ENDBRANCH   1  12
BRANCH   7  20
ATOM     20  C   LIG    1       24.730 -28.918   6.993  0.00  0.00    +0.003 A 
ATOM     21  C   LIG    1       25.705 -28.241   7.733  0.00  0.00    +0.011 A 
ATOM     22  C   LIG    1       25.955 -26.883   7.507  0.00  0.00    +0.013 A 
ATOM     23  C   LIG    1       25.229 -26.176   6.537  0.00  0.00    +0.037 A 
ATOM     24  C   LIG    1       24.273 -26.852   5.775  0.00  0.00    +0.013 A 
ATOM     25  C   LIG    1       24.007 -28.202   6.026  0.00  0.00    +0.011 A 
BRANCH  23  26
ATOM     26  C   LIG    1       25.428 -24.709   6.310  0.00  0.00    +0.249 C 
ATOM     27  N   LIG    1       25.897 -24.033   7.417  0.00  0.00    -0.266 N 
ATOM     28  H   LIG    1       26.030 -24.551   8.268  0.00  0.00    +0.157 HD
ATOM     29  O   LIG    1       25.138 -24.248   5.214  0.00  0.00    -0.270 OA
BRANCH  27  30
ATOM     30  C   LIG    1       26.175 -22.665   7.507  0.00  0.00    +0.125 A 
ATOM     31  N   LIG    1       26.036 -21.993   8.660  0.00  0.00    -0.240 NA
ATOM     32  C   LIG    1       26.307 -20.669   8.652  0.00  0.00    +0.113 A 
ATOM     33  C   LIG    1       26.707 -19.970   7.527  0.00  0.00    +0.020 A 
ATOM     34  C   LIG    1       26.851 -20.674   6.341  0.00  0.00    +0.005 A 
ATOM     35  C   LIG    1       26.589 -22.040   6.330  0.00  0.00    +0.044 A 
ENDBRANCH  27  30
ENDBRANCH  23  26
ENDBRANCH   7  20
BRANCH   4  36
ATOM     36  N   LIG    1       26.396 -30.839   4.759  0.00  0.00    -0.341 N 
ATOM     37  H   LIG    1       26.026 -29.899   4.678  0.00  0.00    +0.144 HD
ATOM     38  H   LIG    1       26.861 -31.167   3.919  0.00  0.00    +0.144 HD
ENDBRANCH   4  36
TORSDOF 6
ENDMDL
MODEL 6
REMARK VINA RESULT:      -6.0      5.409      9.591
REMARK  Name = *****
REMARK                            x       y       z     vdW  Elec       q    Type
REMARK                         _______ _______ _______ _____ _____    ______ ____
ROOT
ATOM      1  C   LIG    1       22.449 -29.697  13.780  0.00  0.00    +0.136 A 
ATOM      2  N   LIG    1       23.775 -29.532  14.118  0.00  0.00    -0.297 N 
ATOM      3  C   LIG    1       24.521 -29.699  12.973  0.00  0.00    +0.114 A 
ATOM      4  C   LIG    1       25.933 -29.399  13.028  0.00  0.00    +0.142 A 
ATOM      5  N   LIG    1       26.505 -29.142  14.181  0.00  0.00    -0.237 NA
ATOM      6  C   LIG    1       25.733 -29.125  15.323  0.00  0.00    +0.131 A 
ATOM      7  C   LIG    1       23.634 -30.203  12.044  0.00  0.00    +0.100 A 
ATOM      8  C   LIG    1       24.399 -29.262  15.320  0.00  0.00    +0.113 A 
ATOM      9  N   LIG    1       22.344 -30.153  12.542  0.00  0.00    -0.229 NA
ENDROOT
BRANCH   1  12
ATOM     10  C   LIG    1       20.468 -27.245  13.611  0.00  0.00    +0.292 C 
ATOM     11  N   LIG    1       20.302 -28.524  14.100  0.00  0.00    -0.281 N 
ATOM     12  C   LIG    1       21.340 -29.342  14.724  0.00  0.00    +0.143 C 
ATOM     13  C   LIG    1       20.600 -30.590  15.214  0.00  0.00    +0.032 C 
ATOM     14  C   LIG    1       19.168 -30.106  15.400  0.00  0.00    +0.021 C 
ATOM     15  C   LIG    1       18.992 -29.124  14.251  0.00  0.00    +0.109 C 
ATOM     16  O   LIG    1       19.541 -26.522  13.263  0.00  0.00    -0.261 OA
BRANCH  10  19
ATOM     17  C   LIG    1       24.345 -25.897  13.683  0.00  0.00    +0.107 C 
ATOM     18  C   LIG    1       22.956 -26.338  13.536  0.00  0.00    -0.096 C 
ATOM     19  C   LIG    1       21.824 -26.731  13.507  0.00  0.00    -0.008 C 
ENDBRANCH  10  19
ENDBRANCH   1  12
BRANCH   7  20
ATOM     20  C   LIG    1       23.928 -30.753  10.731  0.00  0.00    +0.003 A 
ATOM     21  C   LIG    1       23.743 -29.964   9.591  0.00  0.00    +0.011 A 
ATOM     22  C   LIG    1       23.964 -30.494   8.315  0.00  0.00    +0.013 A 
ATOM     23  C   LIG    1       24.371 -31.828   8.158  0.00  0.00    +0.037 A 
ATOM     24  C   LIG    1       24.585 -32.612   9.294  0.00  0.00    +0.013 A 
ATOM     25  C   LIG    1       24.333 -32.085  10.564  0.00  0.00    +0.011 A 
BRANCH  23  26
ATOM     26  C   LIG    1       24.558 -32.446   6.807  0.00  0.00    +0.249 C 
ATOM     27  N   LIG    1       25.831 -32.297   6.298  0.00  0.00    -0.266 N 
ATOM     28  H   LIG    1       26.499 -31.773   6.835  0.00  0.00    +0.157 HD
ATOM     29  O   LIG    1       23.594 -32.983   6.277  0.00  0.00    -0.270 OA
BRANCH  27  30
ATOM     30  C   LIG    1       26.300 -32.765   5.065  0.00  0.00    +0.125 A 
ATOM     31  N   LIG    1       27.462 -33.428   4.960  0.00  0.00    -0.240 NA
ATOM     32  C   LIG    1       27.849 -33.825   3.728  0.00  0.00    +0.113 A 
ATOM     33  C   LIG    1       27.124 -33.579   2.575  0.00  0.00    +0.020 A 
ATOM     34  C   LIG    1       25.923 -32.897   2.694  0.00  0.00    +0.005 A 
ATOM     35  C   LIG    1       25.501 -32.489   3.955  0.00  0.00    +0.044 A 
ENDBRANCH  27  30
ENDBRANCH  23  26
ENDBRANCH   7  20
BRANCH   4  36
ATOM     36  N   LIG    1       26.742 -29.305  11.933  0.00  0.00    -0.341 N 
ATOM     37  H   LIG    1       27.724 -29.370  12.176  0.00  0.00    +0.144 HD
ATOM     38  H   LIG    1       26.532 -28.553  11.287  0.00  0.00    +0.144 HD
ENDBRANCH   4  36
TORSDOF 6
ENDMDL
