MODEL 1
REMARK VINA RESULT:      -6.2      0.000      0.000
REMARK  Name = *****
REMARK                            x       y       z     vdW  Elec       q    Type
REMARK                         _______ _______ _______ _____ _____    ______ ____
ROOT
ATOM      1  C   LIG    1       29.217 -20.307   6.822  0.00  0.00    +0.021 C 
ENDROOT
BRANCH   1   2
ATOM      2  C   LIG    1       28.170 -19.995   7.902  0.00  0.00    +0.105 C 
BRANCH   2   7
ATOM      3  N   LIG    1       24.661 -20.904   7.664  0.00  0.00    -0.313 N 
ATOM      4  H   LIG    1       24.453 -20.336   6.855  0.00  0.00    +0.146 HD
ATOM      5  H   LIG    1       23.882 -21.011   8.301  0.00  0.00    +0.146 HD
ATOM      6  C   LIG    1       25.818 -20.605   8.311  0.00  0.00    +0.297 C 
ATOM      7  N   LIG    1       26.839 -20.361   7.449  0.00  0.00    -0.300 N 
ATOM      8  H   LIG    1       26.718 -20.654   6.492  0.00  0.00    +0.150 HD
ATOM      9  O   LIG    1       25.873 -20.565   9.529  0.00  0.00    -0.253 OA
ENDBRANCH   2   7
ENDBRANCH   1   2
BRANCH   1  10
ATOM     10  C   LIG    1       30.664 -20.066   7.282  0.00  0.00    +0.031 C 
BRANCH  10  11
ATOM     11  CA  LIG    1       30.903 -20.255   8.795  0.00  0.00    +0.161 C 
BRANCH  11  12
ATOM     12  N   LIG    1       32.051 -19.389   9.234  0.00  0.00    -0.318 NA
ATOM     13  H1  LIG    1       32.817 -19.483   8.559  0.00  0.00    +0.119 HD
ATOM     14  H2  LIG    1       31.753 -18.414   9.136  0.00  0.00    +0.119 HD
ENDBRANCH  11  12
BRANCH  11  15
ATOM     15  C   LIG    1       31.256 -21.706   9.194  0.00  0.00    +0.322 C 
ATOM     16  O   LIG    1       30.753 -22.332  10.121  0.00  0.00    -0.249 OA
BRANCH  15  17
ATOM     17  OXT LIG    1       32.231 -22.225   8.401  0.00  0.00    -0.479 OA
ATOM     18  HXT LIG    1       32.021 -23.191   8.326  0.00  0.00    +0.295 HD
ENDBRANCH  15  17
ENDBRANCH  11  15
ENDBRANCH  10  11
ENDBRANCH   1  10
TORSDOF 7
ENDMDL
MODEL 2
REMARK VINA RESULT:      -6.1      3.090      3.379
REMARK  Name = *****
REMARK                            x       y       z     vdW  Elec       q    Type
REMARK                         _______ _______ _______ _____ _____    ______ ____
ROOT
ATOM      1  C   LIG    1       29.763 -18.886   6.619  0.00  0.00    +0.021 C 
ENDROOT
BRANCH   1   2
ATOM      2  C   LIG    1       28.914 -20.160   6.485  0.00  0.00    +0.105 C 
BRANCH   2   7
ATOM      3  N   LIG    1       26.067 -20.063   4.232  0.00  0.00    -0.313 N 
ATOM      4  H   LIG    1       26.413 -19.316   3.648  0.00  0.00    +0.146 HD
ATOM      5  H   LIG    1       25.059 -20.086   4.316  0.00  0.00    +0.146 HD
ATOM      6  C   LIG    1       26.688 -20.206   5.433  0.00  0.00    +0.297 C 
ATOM      7  N   LIG    1       28.036 -20.073   5.332  0.00  0.00    -0.300 N 
ATOM      8  H   LIG    1       28.440 -20.133   4.410  0.00  0.00    +0.150 HD
ATOM      9  O   LIG    1       26.055 -20.418   6.453  0.00  0.00    -0.253 OA
ENDBRANCH   2   7
ENDBRANCH   1   2
BRANCH   1  10
ATOM     10  C   LIG    1       30.135 -18.546   8.071  0.00  0.00    +0.031 C 
BRANCH  10  11
ATOM     11  CA  LIG    1       31.649 -18.561   8.374  0.00  0.00    +0.161 C 
BRANCH  11  12
ATOM     12  N   LIG    1       31.996 -19.810   9.135  0.00  0.00    -0.318 NA
ATOM     13  H1  LIG    1       32.880 -19.662   9.633  0.00  0.00    +0.119 HD
ATOM     14  H2  LIG    1       31.303 -19.915   9.882  0.00  0.00    +0.119 HD
ENDBRANCH  11  12
BRANCH  11  15
ATOM     15  C   LIG    1       32.126 -17.365   9.229  0.00  0.00    +0.322 C 
ATOM     16  O   LIG    1       32.328 -16.229   8.815  0.00  0.00    -0.249 OA
BRANCH  15  17
ATOM     17  OXT LIG    1       32.328 -17.721  10.526  0.00  0.00    -0.479 OA
ATOM     18  HXT LIG    1       32.276 -18.711  10.538  0.00  0.00    +0.295 HD
ENDBRANCH  15  17
ENDBRANCH  11  15
ENDBRANCH  10  11
ENDBRANCH   1  10
TORSDOF 7
ENDMDL
MODEL 3
REMARK VINA RESULT:      -6.1      2.448      2.507
REMARK  Name = *****
REMARK                            x       y       z     vdW  Elec       q    Type
REMARK                         _______ _______ _______ _____ _____    ______ ____
ROOT
ATOM      1  C   LIG    1       28.570 -20.125   6.703  0.00  0.00    +0.021 C 
ENDROOT
BRANCH   1   2
ATOM      2  C   LIG    1       27.099 -20.435   6.387  0.00  0.00    +0.105 C 
BRANCH   2   7
ATOM      3  N   LIG    1       25.440 -19.667   3.248  0.00  0.00    -0.313 N 
ATOM      4  H   LIG    1       26.015 -18.872   3.010  0.00  0.00    +0.146 HD
ATOM      5  H   LIG    1       24.487 -19.599   2.915  0.00  0.00    +0.146 HD
ATOM      6  C   LIG    1       25.505 -20.073   4.544  0.00  0.00    +0.297 C 
ATOM      7  N   LIG    1       26.778 -20.065   5.020  0.00  0.00    -0.300 N 
ATOM      8  H   LIG    1       27.525 -20.011   4.345  0.00  0.00    +0.150 HD
ATOM      9  O   LIG    1       24.502 -20.387   5.162  0.00  0.00    -0.253 OA
ENDBRANCH   2   7
ENDBRANCH   1   2
BRANCH   1  10
ATOM     10  C   LIG    1       29.247 -21.189   7.581  0.00  0.00    +0.031 C 
BRANCH  10  11
ATOM     11  CA  LIG    1       30.471 -20.691   8.377  0.00  0.00    +0.161 C 
BRANCH  11  12
ATOM     12  N   LIG    1       31.498 -20.141   7.426  0.00  0.00    -0.318 NA
ATOM     13  H1  LIG    1       32.364 -20.683   7.520  0.00  0.00    +0.119 HD
ATOM     14  H2  LIG    1       31.177 -20.348   6.476  0.00  0.00    +0.119 HD
ENDBRANCH  11  12
BRANCH  11  15
ATOM     15  C   LIG    1       31.169 -21.794   9.205  0.00  0.00    +0.322 C 
ATOM     16  O   LIG    1       30.827 -22.172  10.320  0.00  0.00    -0.249 OA
BRANCH  15  17
ATOM     17  OXT LIG    1       32.251 -22.303   8.557  0.00  0.00    -0.479 OA
ATOM     18  HXT LIG    1       32.920 -22.484   9.266  0.00  0.00    +0.295 HD
ENDBRANCH  15  17
ENDBRANCH  11  15
ENDBRANCH  10  11
ENDBRANCH   1  10
TORSDOF 7
ENDMDL
MODEL 4
REMARK VINA RESULT:      -6.1      3.363      4.618
REMARK  Name = *****
REMARK                            x       y       z     vdW  Elec       q    Type
REMARK                         _______ _______ _______ _____ _____    ______ ____
ROOT
ATOM      1  C   LIG    1       29.973 -18.642   7.561  0.00  0.00    +0.021 C 
ENDROOT
BRANCH   1   2
ATOM      2  C   LIG    1       29.441 -20.029   7.954  0.00  0.00    +0.105 C 
BRANCH   2   7
ATOM      3  N   LIG    1       31.991 -22.552   8.523  0.00  0.00    -0.313 N 
ATOM      4  H   LIG    1       31.724 -23.155   7.759  0.00  0.00    +0.146 HD
ATOM      5  H   LIG    1       32.376 -23.045   9.319  0.00  0.00    +0.146 HD
ATOM      6  C   LIG    1       31.068 -21.624   8.890  0.00  0.00    +0.297 C 
ATOM      7  N   LIG    1       30.479 -21.036   7.817  0.00  0.00    -0.300 N 
ATOM      8  H   LIG    1       30.928 -21.149   6.921  0.00  0.00    +0.150 HD
ATOM      9  O   LIG    1       30.831 -21.394  10.064  0.00  0.00    -0.253 OA
ENDBRANCH   2   7
ENDBRANCH   1   2
BRANCH   1  10
ATOM     10  C   LIG    1       30.126 -17.683   8.752  0.00  0.00    +0.031 C 
BRANCH  10  11
ATOM     11  CA  LIG    1       31.361 -17.942   9.640  0.00  0.00    +0.161 C 
BRANCH  11  12
ATOM     12  N   LIG    1       30.916 -18.437  10.988  0.00  0.00    -0.318 NA
ATOM     13  H1  LIG    1       30.990 -17.671  11.666  0.00  0.00    +0.119 HD
ATOM     14  H2  LIG    1       29.910 -18.622  10.929  0.00  0.00    +0.119 HD
ENDBRANCH  11  12
BRANCH  11  15
ATOM     15  C   LIG    1       32.228 -16.686   9.885  0.00  0.00    +0.322 C 
ATOM     16  O   LIG    1       32.463 -16.186  10.980  0.00  0.00    -0.249 OA
BRANCH  15  17
ATOM     17  OXT LIG    1       32.698 -16.162   8.722  0.00  0.00    -0.479 OA
ATOM     18  HXT LIG    1       32.970 -15.234   8.943  0.00  0.00    +0.295 HD
ENDBRANCH  15  17
ENDBRANCH  11  15
ENDBRANCH  10  11
ENDBRANCH   1  10
TORSDOF 7
ENDMDL
MODEL 5
REMARK VINA RESULT:      -6.0      2.184      2.349
REMARK  Name = *****
REMARK                            x       y       z     vdW  Elec       q    Type
REMARK                         _______ _______ _______ _____ _____    ______ ____
ROOT
ATOM      1  C   LIG    1       28.756 -19.968   6.941  0.00  0.00    +0.021 C 
ENDROOT
BRANCH   1   2
ATOM      2  C   LIG    1       28.068 -21.164   7.618  0.00  0.00    +0.105 C 
BRANCH   2   7
ATOM      3  N   LIG    1       24.460 -20.812   7.849  0.00  0.00    -0.313 N 
ATOM      4  H   LIG    1       24.325 -20.438   6.921  0.00  0.00    +0.146 HD
ATOM      5  H   LIG    1       23.794 -20.471   8.531  0.00  0.00    +0.146 HD
ATOM      6  C   LIG    1       25.736 -20.782   8.316  0.00  0.00    +0.297 C 
ATOM      7  N   LIG    1       26.637 -21.144   7.366  0.00  0.00    -0.300 N 
ATOM      8  H   LIG    1       26.284 -21.613   6.546  0.00  0.00    +0.150 HD
ATOM      9  O   LIG    1       25.986 -20.450   9.462  0.00  0.00    -0.253 OA
ENDBRANCH   2   7
ENDBRANCH   1   2
BRANCH   1  10
ATOM     10  C   LIG    1       29.515 -19.061   7.923  0.00  0.00    +0.031 C 
BRANCH  10  11
ATOM     11  CA  LIG    1       31.042 -19.002   7.703  0.00  0.00    +0.161 C 
BRANCH  11  12
ATOM     12  N   LIG    1       31.599 -20.398   7.673  0.00  0.00    -0.318 NA
ATOM     13  H1  LIG    1       30.977 -20.993   7.116  0.00  0.00    +0.119 HD
ATOM     14  H2  LIG    1       32.467 -20.369   7.131  0.00  0.00    +0.119 HD
ENDBRANCH  11  12
BRANCH  11  15
ATOM     15  C   LIG    1       31.802 -18.237   8.811  0.00  0.00    +0.322 C 
ATOM     16  O   LIG    1       31.931 -18.609   9.972  0.00  0.00    -0.249 OA
BRANCH  15  17
ATOM     17  OXT LIG    1       32.310 -17.061   8.355  0.00  0.00    -0.479 OA
ATOM     18  HXT LIG    1       31.594 -16.391   8.505  0.00  0.00    +0.295 HD
ENDBRANCH  15  17
ENDBRANCH  11  15
ENDBRANCH  10  11
ENDBRANCH   1  10
TORSDOF 7
ENDMDL
MODEL 6
REMARK VINA RESULT:      -5.9      1.867      1.927
REMARK  Name = *****
REMARK                            x       y       z     vdW  Elec       q    Type
REMARK                         _______ _______ _______ _____ _____    ______ ____
ROOT
ATOM      1  C   LIG    1       28.282 -20.080   7.075  0.00  0.00    +0.021 C 
ENDROOT
BRANCH   1   2
ATOM      2  C   LIG    1       26.799 -20.444   7.251  0.00  0.00    +0.105 C 
BRANCH   2   7
ATOM      3  N   LIG    1       24.930 -22.546   4.953  0.00  0.00    -0.313 N 
ATOM      4  H   LIG    1       25.584 -22.482   4.187  0.00  0.00    +0.146 HD
ATOM      5  H   LIG    1       23.965 -22.646   4.663  0.00  0.00    +0.146 HD
ATOM      6  C   LIG    1       25.079 -21.616   5.933  0.00  0.00    +0.297 C 
ATOM      7  N   LIG    1       26.385 -21.411   6.250  0.00  0.00    -0.300 N 
ATOM      8  H   LIG    1       27.052 -22.098   5.936  0.00  0.00    +0.150 HD
ATOM      9  O   LIG    1       24.117 -21.055   6.428  0.00  0.00    -0.253 OA
ENDBRANCH   2   7
ENDBRANCH   1   2
BRANCH   1  10
ATOM     10  C   LIG    1       29.245 -21.186   7.535  0.00  0.00    +0.031 C 
BRANCH  10  11
ATOM     11  CA  LIG    1       30.443 -20.695   8.374  0.00  0.00    +0.161 C 
BRANCH  11  12
ATOM     12  N   LIG    1       31.493 -20.123   7.462  0.00  0.00    -0.318 NA
ATOM     13  H1  LIG    1       31.612 -19.127   7.675  0.00  0.00    +0.119 HD
ATOM     14  H2  LIG    1       32.389 -20.542   7.727  0.00  0.00    +0.119 HD
ENDBRANCH  11  12
BRANCH  11  15
ATOM     15  C   LIG    1       31.124 -21.809   9.201  0.00  0.00    +0.322 C 
ATOM     16  O   LIG    1       30.783 -22.175  10.321  0.00  0.00    -0.249 OA
BRANCH  15  17
ATOM     17  OXT LIG    1       32.190 -22.344   8.547  0.00  0.00    -0.479 OA
ATOM     18  HXT LIG    1       32.334 -23.232   8.963  0.00  0.00    +0.295 HD
ENDBRANCH  15  17
ENDBRANCH  11  15
ENDBRANCH  10  11
ENDBRANCH   1  10
TORSDOF 7
ENDMDL
MODEL 7
REMARK VINA RESULT:      -5.8      3.808      5.917
REMARK  Name = *****
REMARK                            x       y       z     vdW  Elec       q    Type
REMARK                         _______ _______ _______ _____ _____    ______ ____
ROOT
ATOM      1  C   LIG    1       31.801 -16.594   9.241  0.00  0.00    +0.021 C 
ENDROOT
BRANCH   1   2
ATOM      2  C   LIG    1       33.023 -16.140  10.056  0.00  0.00    +0.105 C 
BRANCH   2   7
ATOM      3  N   LIG    1       31.948 -15.369  13.439  0.00  0.00    -0.313 N 
ATOM      4  H   LIG    1       32.535 -14.556  13.560  0.00  0.00    +0.146 HD
ATOM      5  H   LIG    1       31.777 -15.883  14.293  0.00  0.00    +0.146 HD
ATOM      6  C   LIG    1       32.280 -16.185  12.404  0.00  0.00    +0.297 C 
ATOM      7  N   LIG    1       32.607 -15.487  11.286  0.00  0.00    -0.300 N 
ATOM      8  H   LIG    1       32.346 -14.515  11.253  0.00  0.00    +0.150 HD
ATOM      9  O   LIG    1       32.276 -17.399  12.526  0.00  0.00    -0.253 OA
ENDBRANCH   2   7
ENDBRANCH   1   2
BRANCH   1  10
ATOM     10  C   LIG    1       31.943 -18.008   8.658  0.00  0.00    +0.031 C 
BRANCH  10  11
ATOM     11  CA  LIG    1       30.880 -19.018   9.139  0.00  0.00    +0.161 C 
BRANCH  11  12
ATOM     12  N   LIG    1       30.712 -18.899  10.628  0.00  0.00    -0.318 NA
ATOM     13  H1  LIG    1       29.848 -19.377  10.906  0.00  0.00    +0.119 HD
ATOM     14  H2  LIG    1       31.454 -19.453  11.065  0.00  0.00    +0.119 HD
ENDBRANCH  11  12
BRANCH  11  15
ATOM     15  C   LIG    1       31.240 -20.492   8.843  0.00  0.00    +0.322 C 
ATOM     16  O   LIG    1       32.153 -21.121   9.368  0.00  0.00    -0.249 OA
BRANCH  15  17
ATOM     17  OXT LIG    1       30.429 -21.029   7.894  0.00  0.00    -0.479 OA
ATOM     18  HXT LIG    1       29.576 -21.226   8.358  0.00  0.00    +0.295 HD
ENDBRANCH  15  17
ENDBRANCH  11  15
ENDBRANCH  10  11
ENDBRANCH   1  10
TORSDOF 7
ENDMDL
MODEL 8
REMARK VINA RESULT:      -5.8      1.887      5.348
REMARK  Name = *****
REMARK                            x       y       z     vdW  Elec       q    Type
REMARK                         _______ _______ _______ _____ _____    ______ ____
ROOT
ATOM      1  C   LIG    1       28.418 -20.114   6.116  0.00  0.00    +0.021 C 
ENDROOT
BRANCH   1   2
ATOM      2  C   LIG    1       29.125 -19.950   7.471  0.00  0.00    +0.105 C 
BRANCH   2   7
ATOM      3  N   LIG    1       31.837 -22.043   8.680  0.00  0.00    -0.313 N 
ATOM      4  H   LIG    1       31.418 -22.926   8.426  0.00  0.00    +0.146 HD
ATOM      5  H   LIG    1       32.422 -22.088   9.504  0.00  0.00    +0.146 HD
ATOM      6  C   LIG    1       30.993 -20.977   8.705  0.00  0.00    +0.297 C 
ATOM      7  N   LIG    1       30.139 -20.975   7.649  0.00  0.00    -0.300 N 
ATOM      8  H   LIG    1       30.363 -21.574   6.870  0.00  0.00    +0.150 HD
ATOM      9  O   LIG    1       31.037 -20.154   9.604  0.00  0.00    -0.253 OA
ENDBRANCH   2   7
ENDBRANCH   1   2
BRANCH   1  10
ATOM     10  C   LIG    1       26.901 -20.327   6.237  0.00  0.00    +0.031 C 
BRANCH  10  11
ATOM     11  CA  LIG    1       26.484 -21.553   7.078  0.00  0.00    +0.161 C 
BRANCH  11  12
ATOM     12  N   LIG    1       25.714 -22.514   6.216  0.00  0.00    -0.318 NA
ATOM     13  H1  LIG    1       24.769 -22.622   6.598  0.00  0.00    +0.119 HD
ATOM     14  H2  LIG    1       25.566 -22.061   5.309  0.00  0.00    +0.119 HD
ENDBRANCH  11  12
BRANCH  11  15
ATOM     15  C   LIG    1       25.579 -21.204   8.282  0.00  0.00    +0.322 C 
ATOM     16  O   LIG    1       25.942 -20.631   9.304  0.00  0.00    -0.249 OA
BRANCH  15  17
ATOM     17  OXT LIG    1       24.302 -21.634   8.095  0.00  0.00    -0.479 OA
ATOM     18  HXT LIG    1       24.079 -22.153   8.909  0.00  0.00    +0.295 HD
ENDBRANCH  15  17
ENDBRANCH  11  15
ENDBRANCH  10  11
ENDBRANCH   1  10
TORSDOF 7
ENDMDL
MODEL 9
REMARK VINA RESULT:      -5.8      2.764      2.928
REMARK  Name = *****
REMARK                            x       y       z     vdW  Elec       q    Type
REMARK                         _______ _______ _______ _____ _____    ______ ____
ROOT
ATOM      1  C   LIG    1       28.943 -20.516   7.376  0.00  0.00    +0.021 C 
ENDROOT
BRANCH   1   2
ATOM      2  C   LIG    1       27.433 -20.352   7.145  0.00  0.00    +0.105 C 
BRANCH   2   7
ATOM      3  N   LIG    1       25.830 -20.186   3.890  0.00  0.00    -0.313 N 
ATOM      4  H   LIG    1       26.435 -19.476   3.504  0.00  0.00    +0.146 HD
ATOM      5  H   LIG    1       24.883 -20.155   3.535  0.00  0.00    +0.146 HD
ATOM      6  C   LIG    1       25.869 -20.321   5.242  0.00  0.00    +0.297 C 
ATOM      7  N   LIG    1       27.137 -20.259   5.726  0.00  0.00    -0.300 N 
ATOM      8  H   LIG    1       27.891 -20.369   5.067  0.00  0.00    +0.150 HD
ATOM      9  O   LIG    1       24.850 -20.467   5.895  0.00  0.00    -0.253 OA
ENDBRANCH   2   7
ENDBRANCH   1   2
BRANCH   1  10
ATOM     10  C   LIG    1       29.725 -19.196   7.289  0.00  0.00    +0.031 C 
BRANCH  10  11
ATOM     11  CA  LIG    1       31.246 -19.326   7.519  0.00  0.00    +0.161 C 
BRANCH  11  12
ATOM     12  N   LIG    1       31.581 -20.751   7.863  0.00  0.00    -0.318 NA
ATOM     13  H1  LIG    1       31.959 -20.785   8.816  0.00  0.00    +0.119 HD
ATOM     14  H2  LIG    1       30.698 -21.266   7.927  0.00  0.00    +0.119 HD
ENDBRANCH  11  12
BRANCH  11  15
ATOM     15  C   LIG    1       31.780 -18.448   8.673  0.00  0.00    +0.322 C 
ATOM     16  O   LIG    1       31.828 -18.775   9.855  0.00  0.00    -0.249 OA
BRANCH  15  17
ATOM     17  OXT LIG    1       32.182 -17.226   8.233  0.00  0.00    -0.479 OA
ATOM     18  HXT LIG    1       31.889 -17.178   7.287  0.00  0.00    +0.295 HD
ENDBRANCH  15  17
ENDBRANCH  11  15
ENDBRANCH  10  11
ENDBRANCH   1  10
TORSDOF 7
ENDMDL
