MODEL 1
REMARK VINA RESULT:      -0.3      0.000      0.000
REMARK  Name = *****
REMARK                            x       y       z     vdW  Elec       q    Type
REMARK                         _______ _______ _______ _____ _____    ______ ____
ROOT
ATOM      1  N   LIG    1       26.429 -17.096   3.560  0.00  0.00    -0.301 N 
ATOM      2  H   LIG    1       26.761 -16.813   4.484  0.00  0.00    +0.150 HD
ATOM      3  C   LIG    1       26.209 -18.432   3.304  0.00  0.00    +0.232 C 
ATOM      4  O   LIG    1       25.738 -18.785   2.218  0.00  0.00    -0.275 OA
ENDROOT
BRANCH   1  10
ATOM      5  C   LIG    1       26.013 -13.850   5.906  0.00  0.00    +0.025 C 
ATOM      6  C   LIG    1       24.866 -13.559   4.921  0.00  0.00    +0.042 C 
ATOM      7  CA  LIG    1       25.405 -12.914   3.618  0.00  0.00    +0.201 C 
ATOM      8  N   LIG    1       25.660 -13.996   2.653  0.00  0.00    -0.271 N 
ATOM      9  C   LIG    1       24.838 -15.216   2.767  0.00  0.00    +0.165 C 
ATOM     10  CA  LIG    1       26.127 -16.051   2.549  0.00  0.00    +0.190 C 
ATOM     11  C   LIG    1       26.848 -14.687   2.723  0.00  0.00    +0.240 C 
ATOM     12  O   LIG    1       27.948 -14.279   3.008  0.00  0.00    -0.273 OA
ATOM     13  S   LIG    1       24.123 -15.191   4.447  0.00  0.00    -0.127 S 
ATOM     14  C   LIG    1       23.796 -12.752   5.665  0.00  0.00    +0.025 C 
BRANCH   7  15
ATOM     15  C   LIG    1       24.501 -11.865   2.956  0.00  0.00    +0.327 C 
ATOM     16  O   LIG    1       24.632 -11.453   1.812  0.00  0.00    -0.249 OA
BRANCH  15  17
ATOM     17  OXT LIG    1       23.469 -11.462   3.740  0.00  0.00    -0.479 OA
ATOM     18  HXT LIG    1       23.231 -10.535   3.529  0.00  0.00    +0.295 HD
ENDBRANCH  15  17
ENDBRANCH   7  15
ENDBRANCH   1  10
BRANCH   3  19
ATOM     19  C   LIG    1       26.572 -19.447   4.399  0.00  0.00    +0.213 C 
BRANCH  19  20
ATOM     20  C   LIG    1       25.365 -19.922   5.207  0.00  0.00    -0.025 A 
ATOM     21  C   LIG    1       24.071 -19.573   4.782  0.00  0.00    +0.005 A 
ATOM     22  C   LIG    1       22.944 -20.036   5.465  0.00  0.00    +0.000 A 
ATOM     23  C   LIG    1       23.093 -20.849   6.585  0.00  0.00    +0.000 A 
ATOM     24  C   LIG    1       24.368 -21.202   7.021  0.00  0.00    +0.000 A 
ATOM     25  C   LIG    1       25.497 -20.750   6.332  0.00  0.00    +0.005 A 
ENDBRANCH  19  20
BRANCH  19  26
ATOM     26  C   LIG    1       27.686 -19.012   5.328  0.00  0.00    +0.321 C 
ATOM     27  O   LIG    1       27.833 -19.338   6.498  0.00  0.00    -0.250 OA
BRANCH  26  28
ATOM     28  O   LIG    1       28.569 -18.161   4.760  0.00  0.00    -0.480 OA
ATOM     29  H   LIG    1       29.347 -18.174   5.357  0.00  0.00    +0.295 HD
ENDBRANCH  26  28
ENDBRANCH  19  26
ENDBRANCH   3  19
TORSDOF 7
ENDMDL
MODEL 2
REMARK VINA RESULT:       0.5      1.762      2.768
REMARK  Name = *****
REMARK                            x       y       z     vdW  Elec       q    Type
REMARK                         _______ _______ _______ _____ _____    ______ ____
ROOT
ATOM      1  N   LIG    1       24.552 -17.527   4.339  0.00  0.00    -0.301 N 
ATOM      2  H   LIG    1       24.368 -17.120   5.258  0.00  0.00    +0.150 HD
ATOM      3  C   LIG    1       24.779 -18.882   4.236  0.00  0.00    +0.232 C 
ATOM      4  O   LIG    1       24.929 -19.402   3.126  0.00  0.00    -0.275 OA
ENDROOT
BRANCH   1  10
ATOM      5  C   LIG    1       26.018 -14.081   5.819  0.00  0.00    +0.025 C 
ATOM      6  C   LIG    1       24.911 -13.485   4.931  0.00  0.00    +0.042 C 
ATOM      7  CA  LIG    1       25.374 -13.394   3.454  0.00  0.00    +0.201 C 
ATOM      8  N   LIG    1       24.949 -14.626   2.772  0.00  0.00    -0.271 N 
ATOM      9  C   LIG    1       23.745 -15.306   3.284  0.00  0.00    +0.165 C 
ATOM     10  CA  LIG    1       24.497 -16.655   3.138  0.00  0.00    +0.190 C 
ATOM     11  C   LIG    1       25.734 -15.752   2.878  0.00  0.00    +0.240 C 
ATOM     12  O   LIG    1       26.938 -15.838   2.922  0.00  0.00    -0.273 OA
ATOM     13  S   LIG    1       23.481 -14.666   4.973  0.00  0.00    -0.127 S 
ATOM     14  C   LIG    1       24.452 -12.167   5.564  0.00  0.00    +0.025 C 
BRANCH   7  15
ATOM     15  C   LIG    1       24.863 -12.186   2.656  0.00  0.00    +0.327 C 
ATOM     16  O   LIG    1       25.562 -11.462   1.962  0.00  0.00    -0.249 OA
BRANCH  15  17
ATOM     17  OXT LIG    1       23.518 -12.015   2.728  0.00  0.00    -0.479 OA
ATOM     18  HXT LIG    1       23.076 -12.545   2.033  0.00  0.00    +0.295 HD
ENDBRANCH  15  17
ENDBRANCH   7  15
ENDBRANCH   1  10
BRANCH   3  19
ATOM     19  C   LIG    1       24.842 -19.704   5.532  0.00  0.00    +0.213 C 
BRANCH  19  20
ATOM     20  C   LIG    1       26.264 -20.109   5.922  0.00  0.00    -0.025 A 
ATOM     21  C   LIG    1       27.340 -19.280   5.561  0.00  0.00    +0.005 A 
ATOM     22  C   LIG    1       28.646 -19.592   5.948  0.00  0.00    +0.000 A 
ATOM     23  C   LIG    1       28.895 -20.738   6.697  0.00  0.00    +0.000 A 
ATOM     24  C   LIG    1       27.840 -21.572   7.062  0.00  0.00    +0.000 A 
ATOM     25  C   LIG    1       26.532 -21.256   6.686  0.00  0.00    +0.005 A 
ENDBRANCH  19  20
BRANCH  19  26
ATOM     26  C   LIG    1       23.925 -20.908   5.570  0.00  0.00    +0.321 C 
ATOM     27  O   LIG    1       23.314 -21.333   6.541  0.00  0.00    -0.250 OA
BRANCH  26  28
ATOM     28  O   LIG    1       23.824 -21.554   4.387  0.00  0.00    -0.480 OA
ATOM     29  H   LIG    1       23.607 -20.852   3.738  0.00  0.00    +0.295 HD
ENDBRANCH  26  28
ENDBRANCH  19  26
ENDBRANCH   3  19
TORSDOF 7
ENDMDL
MODEL 3
REMARK VINA RESULT:       0.6      1.638      2.140
REMARK  Name = *****
REMARK                            x       y       z     vdW  Elec       q    Type
REMARK                         _______ _______ _______ _____ _____    ______ ____
ROOT
ATOM      1  N   LIG    1       27.347 -17.097   4.360  0.00  0.00    -0.301 N 
ATOM      2  H   LIG    1       26.405 -17.451   4.180  0.00  0.00    +0.150 HD
ATOM      3  C   LIG    1       28.314 -17.964   4.822  0.00  0.00    +0.232 C 
ATOM      4  O   LIG    1       29.475 -17.571   4.973  0.00  0.00    -0.275 OA
ENDROOT
BRANCH   1  10
ATOM      5  C   LIG    1       23.751 -15.374   4.925  0.00  0.00    +0.025 C 
ATOM      6  C   LIG    1       24.182 -14.582   3.677  0.00  0.00    +0.042 C 
ATOM      7  CA  LIG    1       25.131 -13.418   4.060  0.00  0.00    +0.201 C 
ATOM      8  N   LIG    1       26.513 -13.910   3.949  0.00  0.00    -0.271 N 
ATOM      9  C   LIG    1       26.776 -14.987   2.976  0.00  0.00    +0.165 C 
ATOM     10  CA  LIG    1       27.658 -15.680   4.047  0.00  0.00    +0.190 C 
ATOM     11  C   LIG    1       27.058 -14.610   5.002  0.00  0.00    +0.240 C 
ATOM     12  O   LIG    1       26.895 -14.450   6.187  0.00  0.00    -0.273 OA
ATOM     13  S   LIG    1       25.156 -15.739   2.603  0.00  0.00    -0.127 S 
ATOM     14  C   LIG    1       22.916 -14.180   2.911  0.00  0.00    +0.025 C 
BRANCH   7  15
ATOM     15  C   LIG    1       24.996 -12.132   3.231  0.00  0.00    +0.327 C 
ATOM     16  O   LIG    1       25.796 -11.762   2.384  0.00  0.00    -0.249 OA
BRANCH  15  17
ATOM     17  OXT LIG    1       23.849 -11.447   3.470  0.00  0.00    -0.479 OA
ATOM     18  HXT LIG    1       24.036 -10.486   3.511  0.00  0.00    +0.295 HD
ENDBRANCH  15  17
ENDBRANCH   7  15
ENDBRANCH   1  10
BRANCH   3  19
ATOM     19  C   LIG    1       27.897 -19.407   5.141  0.00  0.00    +0.213 C 
BRANCH  19  20
ATOM     20  C   LIG    1       26.387 -19.631   5.068  0.00  0.00    -0.025 A 
ATOM     21  C   LIG    1       25.700 -19.320   3.882  0.00  0.00    +0.005 A 
ATOM     22  C   LIG    1       24.330 -19.564   3.762  0.00  0.00    +0.000 A 
ATOM     23  C   LIG    1       23.626 -20.115   4.828  0.00  0.00    +0.000 A 
ATOM     24  C   LIG    1       24.290 -20.427   6.012  0.00  0.00    +0.000 A 
ATOM     25  C   LIG    1       25.663 -20.196   6.129  0.00  0.00    +0.005 A 
ENDBRANCH  19  20
BRANCH  19  26
ATOM     26  C   LIG    1       28.447 -19.958   6.440  0.00  0.00    +0.321 C 
ATOM     27  O   LIG    1       28.171 -21.032   6.955  0.00  0.00    -0.250 OA
BRANCH  26  28
ATOM     28  O   LIG    1       29.311 -19.126   7.062  0.00  0.00    -0.480 OA
ATOM     29  H   LIG    1       28.920 -18.978   7.949  0.00  0.00    +0.295 HD
ENDBRANCH  26  28
ENDBRANCH  19  26
ENDBRANCH   3  19
TORSDOF 7
ENDMDL
MODEL 4
REMARK VINA RESULT:       1.2      1.644      2.314
REMARK  Name = *****
REMARK                            x       y       z     vdW  Elec       q    Type
REMARK                         _______ _______ _______ _____ _____    ______ ____
ROOT
ATOM      1  N   LIG    1       25.994 -18.038   4.093  0.00  0.00    -0.301 N 
ATOM      2  H   LIG    1       25.621 -17.712   4.987  0.00  0.00    +0.150 HD
ATOM      3  C   LIG    1       25.712 -19.319   3.673  0.00  0.00    +0.232 C 
ATOM      4  O   LIG    1       26.092 -19.705   2.563  0.00  0.00    -0.275 OA
ENDROOT
BRANCH   1  10
ATOM      5  C   LIG    1       25.151 -14.528   5.878  0.00  0.00    +0.025 C 
ATOM      6  C   LIG    1       25.095 -14.050   4.415  0.00  0.00    +0.042 C 
ATOM      7  CA  LIG    1       26.519 -13.770   3.869  0.00  0.00    +0.201 C 
ATOM      8  N   LIG    1       27.000 -14.998   3.216  0.00  0.00    -0.271 N 
ATOM      9  C   LIG    1       25.988 -15.900   2.635  0.00  0.00    +0.165 C 
ATOM     10  CA  LIG    1       26.767 -17.095   3.246  0.00  0.00    +0.190 C 
ATOM     11  C   LIG    1       27.565 -15.987   3.988  0.00  0.00    +0.240 C 
ATOM     12  O   LIG    1       28.260 -15.882   4.969  0.00  0.00    -0.273 OA
ATOM     13  S   LIG    1       24.399 -15.445   3.409  0.00  0.00    -0.127 S 
ATOM     14  C   LIG    1       24.113 -12.876   4.337  0.00  0.00    +0.025 C 
BRANCH   7  15
ATOM     15  C   LIG    1       26.649 -12.601   2.882  0.00  0.00    +0.327 C 
ATOM     16  O   LIG    1       25.756 -12.205   2.148  0.00  0.00    -0.249 OA
BRANCH  15  17
ATOM     17  OXT LIG    1       27.852 -11.975   2.934  0.00  0.00    -0.479 OA
ATOM     18  HXT LIG    1       28.237 -11.913   2.036  0.00  0.00    +0.295 HD
ENDBRANCH  15  17
ENDBRANCH   7  15
ENDBRANCH   1  10
BRANCH   3  19
ATOM     19  C   LIG    1       24.926 -20.235   4.624  0.00  0.00    +0.213 C 
BRANCH  19  20
ATOM     20  C   LIG    1       23.413 -20.032   4.545  0.00  0.00    -0.025 A 
ATOM     21  C   LIG    1       22.904 -18.768   4.202  0.00  0.00    +0.005 A 
ATOM     22  C   LIG    1       21.529 -18.561   4.067  0.00  0.00    +0.000 A 
ATOM     23  C   LIG    1       20.643 -19.614   4.278  0.00  0.00    +0.000 A 
ATOM     24  C   LIG    1       21.130 -20.873   4.621  0.00  0.00    +0.000 A 
ATOM     25  C   LIG    1       22.506 -21.085   4.745  0.00  0.00    +0.005 A 
ENDBRANCH  19  20
BRANCH  19  26
ATOM     26  C   LIG    1       25.385 -20.201   6.066  0.00  0.00    +0.321 C 
ATOM     27  O   LIG    1       24.684 -20.328   7.061  0.00  0.00    -0.250 OA
BRANCH  26  28
ATOM     28  O   LIG    1       26.711 -19.986   6.212  0.00  0.00    -0.480 OA
ATOM     29  H   LIG    1       26.822 -19.747   7.156  0.00  0.00    +0.295 HD
ENDBRANCH  26  28
ENDBRANCH  19  26
ENDBRANCH   3  19
TORSDOF 7
ENDMDL
