MODEL 1
REMARK VINA RESULT:      -8.6      0.000      0.000
REMARK  Name = *****
REMARK                            x       y       z     vdW  Elec       q    Type
REMARK                         _______ _______ _______ _____ _____    ______ ____
ROOT
ATOM      1  C   LIG    1       25.500 -22.986   7.280  0.00  0.00    +0.124 A 
ATOM      2  C   LIG    1       24.167 -22.715   6.919  0.00  0.00    -0.001 A 
ATOM      3  C   LIG    1       23.354 -23.783   6.485  0.00  0.00    +0.007 A 
ATOM      4  C   LIG    1       23.857 -25.070   6.353  0.00  0.00    +0.001 A 
ATOM      5  C   LIG    1       25.188 -25.318   6.663  0.00  0.00    +0.004 A 
ATOM      6  C   LIG    1       26.013 -24.282   7.119  0.00  0.00    +0.046 A 
ENDROOT
BRANCH   1   7
ATOM      7  O   LIG    1       26.243 -21.930   7.757  0.00  0.00    -0.490 OA
BRANCH   7   8
ATOM      8  C   LIG    1       27.577 -21.811   7.235  0.00  0.00    +0.244 C 
BRANCH   8   9
ATOM      9  C   LIG    1       27.906 -20.318   7.003  0.00  0.00    +0.124 C 
BRANCH   9  11
ATOM     10  C   LIG    1       30.199 -20.191   7.786  0.00  0.00    +0.104 C 
ATOM     11  N   LIG    1       29.311 -20.047   6.625  0.00  0.00    -0.305 NA
ATOM     12  C   LIG    1       29.480 -18.709   6.057  0.00  0.00    +0.104 C 
ENDBRANCH   9  11
ENDBRANCH   8   9
ENDBRANCH   7   8
ENDBRANCH   1   7
BRANCH   2  13
ATOM     13  C   LIG    1       23.559 -21.329   7.104  0.00  0.00    +0.074 C 
BRANCH  13  14
ATOM     14  C   LIG    1       23.601 -20.421   5.885  0.00  0.00    -0.043 A 
ATOM     15  C   LIG    1       24.713 -20.420   5.029  0.00  0.00    +0.004 A 
ATOM     16  C   LIG    1       24.722 -19.620   3.884  0.00  0.00    +0.000 A 
ATOM     17  C   LIG    1       23.618 -18.830   3.570  0.00  0.00    +0.000 A 
ATOM     18  C   LIG    1       22.501 -18.833   4.404  0.00  0.00    +0.000 A 
ATOM     19  C   LIG    1       22.498 -19.614   5.560  0.00  0.00    +0.004 A 
ENDBRANCH  13  14
ENDBRANCH   2  13
TORSDOF 6
ENDMDL
MODEL 2
REMARK VINA RESULT:      -8.5      0.891      4.469
REMARK  Name = *****
REMARK                            x       y       z     vdW  Elec       q    Type
REMARK                         _______ _______ _______ _____ _____    ______ ____
ROOT
ATOM      1  C   LIG    1       25.125 -20.313   5.118  0.00  0.00    +0.124 A 
ATOM      2  C   LIG    1       24.145 -20.579   6.092  0.00  0.00    -0.001 A 
ATOM      3  C   LIG    1       22.830 -20.118   5.870  0.00  0.00    +0.007 A 
ATOM      4  C   LIG    1       22.504 -19.366   4.750  0.00  0.00    +0.001 A 
ATOM      5  C   LIG    1       23.491 -19.065   3.819  0.00  0.00    +0.004 A 
ATOM      6  C   LIG    1       24.800 -19.529   4.001  0.00  0.00    +0.046 A 
ENDROOT
BRANCH   1   7
ATOM      7  O   LIG    1       26.380 -20.832   5.341  0.00  0.00    -0.490 OA
BRANCH   7   8
ATOM      8  C   LIG    1       27.411 -19.878   5.648  0.00  0.00    +0.244 C 
BRANCH   8   9
ATOM      9  C   LIG    1       28.009 -20.198   7.037  0.00  0.00    +0.124 C 
BRANCH   9  11
ATOM     10  C   LIG    1       29.727 -18.698   6.206  0.00  0.00    +0.104 C 
ATOM     11  N   LIG    1       29.226 -19.427   7.379  0.00  0.00    -0.305 NA
ATOM     12  C   LIG    1       30.292 -20.282   7.902  0.00  0.00    +0.104 C 
ENDBRANCH   9  11
ENDBRANCH   8   9
ENDBRANCH   7   8
ENDBRANCH   1   7
BRANCH   2  13
ATOM     13  C   LIG    1       24.445 -21.450   7.306  0.00  0.00    +0.074 C 
BRANCH  13  14
ATOM     14  C   LIG    1       24.573 -22.941   7.035  0.00  0.00    -0.043 A 
ATOM     15  C   LIG    1       23.454 -23.701   6.664  0.00  0.00    +0.004 A 
ATOM     16  C   LIG    1       23.590 -25.060   6.367  0.00  0.00    +0.000 A 
ATOM     17  C   LIG    1       24.842 -25.668   6.418  0.00  0.00    +0.000 A 
ATOM     18  C   LIG    1       25.965 -24.920   6.770  0.00  0.00    +0.000 A 
ATOM     19  C   LIG    1       25.829 -23.569   7.088  0.00  0.00    +0.004 A 
ENDBRANCH  13  14
ENDBRANCH   2  13
TORSDOF 6
ENDMDL
MODEL 3
REMARK VINA RESULT:      -8.4      0.884      4.311
REMARK  Name = *****
REMARK                            x       y       z     vdW  Elec       q    Type
REMARK                         _______ _______ _______ _____ _____    ______ ____
ROOT
ATOM      1  C   LIG    1       25.098 -20.283   5.086  0.00  0.00    +0.124 A 
ATOM      2  C   LIG    1       24.128 -20.584   6.059  0.00  0.00    -0.001 A 
ATOM      3  C   LIG    1       22.808 -20.125   5.862  0.00  0.00    +0.007 A 
ATOM      4  C   LIG    1       22.470 -19.342   4.767  0.00  0.00    +0.001 A 
ATOM      5  C   LIG    1       23.447 -19.006   3.839  0.00  0.00    +0.004 A 
ATOM      6  C   LIG    1       24.759 -19.467   3.996  0.00  0.00    +0.046 A 
ENDROOT
BRANCH   1   7
ATOM      7  O   LIG    1       26.359 -20.799   5.284  0.00  0.00    -0.490 OA
BRANCH   7   8
ATOM      8  C   LIG    1       27.389 -19.847   5.600  0.00  0.00    +0.244 C 
BRANCH   8   9
ATOM      9  C   LIG    1       28.183 -20.341   6.831  0.00  0.00    +0.124 C 
BRANCH   9  11
ATOM     10  C   LIG    1       30.281 -20.362   8.052  0.00  0.00    +0.104 C 
ATOM     11  N   LIG    1       29.646 -20.129   6.748  0.00  0.00    -0.305 NA
ATOM     12  C   LIG    1       29.983 -18.783   6.285  0.00  0.00    +0.104 C 
ENDBRANCH   9  11
ENDBRANCH   8   9
ENDBRANCH   7   8
ENDBRANCH   1   7
BRANCH   2  13
ATOM     13  C   LIG    1       24.444 -21.489   7.244  0.00  0.00    +0.074 C 
BRANCH  13  14
ATOM     14  C   LIG    1       24.604 -22.967   6.923  0.00  0.00    -0.043 A 
ATOM     15  C   LIG    1       25.860 -23.587   7.009  0.00  0.00    +0.004 A 
ATOM     16  C   LIG    1       25.989 -24.956   6.762  0.00  0.00    +0.000 A 
ATOM     17  C   LIG    1       24.869 -25.722   6.447  0.00  0.00    +0.000 A 
ATOM     18  C   LIG    1       23.614 -25.121   6.372  0.00  0.00    +0.000 A 
ATOM     19  C   LIG    1       23.484 -23.750   6.597  0.00  0.00    +0.004 A 
ENDBRANCH  13  14
ENDBRANCH   2  13
TORSDOF 6
ENDMDL
MODEL 4
REMARK VINA RESULT:      -8.0      1.850      5.461
REMARK  Name = *****
REMARK                            x       y       z     vdW  Elec       q    Type
REMARK                         _______ _______ _______ _____ _____    ______ ____
ROOT
ATOM      1  C   LIG    1       26.845 -20.380   6.318  0.00  0.00    +0.124 A 
ATOM      2  C   LIG    1       27.078 -21.200   7.438  0.00  0.00    -0.001 A 
ATOM      3  C   LIG    1       28.394 -21.306   7.935  0.00  0.00    +0.007 A 
ATOM      4  C   LIG    1       29.458 -20.671   7.311  0.00  0.00    +0.001 A 
ATOM      5  C   LIG    1       29.226 -19.905   6.176  0.00  0.00    +0.004 A 
ATOM      6  C   LIG    1       27.927 -19.761   5.673  0.00  0.00    +0.046 A 
ENDROOT
BRANCH   1   7
ATOM      7  O   LIG    1       25.540 -20.253   5.900  0.00  0.00    -0.490 OA
BRANCH   7   8
ATOM      8  C   LIG    1       25.285 -20.571   4.522  0.00  0.00    +0.244 C 
BRANCH   8   9
ATOM      9  C   LIG    1       24.188 -19.630   3.973  0.00  0.00    +0.124 C 
BRANCH   9  11
ATOM     10  C   LIG    1       22.225 -20.699   4.917  0.00  0.00    +0.104 C 
ATOM     11  N   LIG    1       23.016 -19.462   4.861  0.00  0.00    -0.305 NA
ATOM     12  C   LIG    1       22.152 -18.362   4.433  0.00  0.00    +0.104 C 
ENDBRANCH   9  11
ENDBRANCH   8   9
ENDBRANCH   7   8
ENDBRANCH   1   7
BRANCH   2  13
ATOM     13  C   LIG    1       25.930 -21.867   8.187  0.00  0.00    +0.074 C 
BRANCH  13  14
ATOM     14  C   LIG    1       25.242 -23.011   7.458  0.00  0.00    -0.043 A 
ATOM     15  C   LIG    1       25.965 -24.144   7.057  0.00  0.00    +0.004 A 
ATOM     16  C   LIG    1       25.315 -25.212   6.434  0.00  0.00    +0.000 A 
ATOM     17  C   LIG    1       23.938 -25.170   6.222  0.00  0.00    +0.000 A 
ATOM     18  C   LIG    1       23.206 -24.056   6.629  0.00  0.00    +0.000 A 
ATOM     19  C   LIG    1       23.855 -22.979   7.232  0.00  0.00    +0.004 A 
ENDBRANCH  13  14
ENDBRANCH   2  13
TORSDOF 6
ENDMDL
MODEL 5
REMARK VINA RESULT:      -8.0      1.958      4.763
REMARK  Name = *****
REMARK                            x       y       z     vdW  Elec       q    Type
REMARK                         _______ _______ _______ _____ _____    ______ ____
ROOT
ATOM      1  C   LIG    1       23.827 -22.671   7.278  0.00  0.00    +0.124 A 
ATOM      2  C   LIG    1       25.185 -22.754   7.637  0.00  0.00    -0.001 A 
ATOM      3  C   LIG    1       25.914 -23.902   7.259  0.00  0.00    +0.007 A 
ATOM      4  C   LIG    1       25.307 -24.961   6.599  0.00  0.00    +0.001 A 
ATOM      5  C   LIG    1       23.953 -24.891   6.295  0.00  0.00    +0.004 A 
ATOM      6  C   LIG    1       23.210 -23.755   6.636  0.00  0.00    +0.046 A 
ENDROOT
BRANCH   1   7
ATOM      7  O   LIG    1       23.166 -21.510   7.611  0.00  0.00    -0.490 OA
BRANCH   7   8
ATOM      8  C   LIG    1       23.313 -20.415   6.691  0.00  0.00    +0.244 C 
BRANCH   8   9
ATOM      9  C   LIG    1       22.514 -20.717   5.402  0.00  0.00    +0.124 C 
BRANCH   9  11
ATOM     10  C   LIG    1       24.218 -19.698   4.005  0.00  0.00    +0.104 C 
ATOM     11  N   LIG    1       22.778 -19.788   4.280  0.00  0.00    -0.305 NA
ATOM     12  C   LIG    1       22.256 -18.446   4.541  0.00  0.00    +0.104 C 
ENDBRANCH   9  11
ENDBRANCH   8   9
ENDBRANCH   7   8
ENDBRANCH   1   7
BRANCH   2  13
ATOM     13  C   LIG    1       25.903 -21.589   8.308  0.00  0.00    +0.074 C 
BRANCH  13  14
ATOM     14  C   LIG    1       27.120 -21.051   7.573  0.00  0.00    -0.043 A 
ATOM     15  C   LIG    1       26.977 -20.345   6.369  0.00  0.00    +0.004 A 
ATOM     16  C   LIG    1       28.096 -19.810   5.727  0.00  0.00    +0.000 A 
ATOM     17  C   LIG    1       29.364 -19.955   6.286  0.00  0.00    +0.000 A 
ATOM     18  C   LIG    1       29.518 -20.641   7.489  0.00  0.00    +0.000 A 
ATOM     19  C   LIG    1       28.406 -21.195   8.122  0.00  0.00    +0.004 A 
ENDBRANCH  13  14
ENDBRANCH   2  13
TORSDOF 6
ENDMDL
MODEL 6
REMARK VINA RESULT:      -7.9      1.992      4.519
REMARK  Name = *****
REMARK                            x       y       z     vdW  Elec       q    Type
REMARK                         _______ _______ _______ _____ _____    ______ ____
ROOT
ATOM      1  C   LIG    1       23.721 -22.587   6.885  0.00  0.00    +0.124 A 
ATOM      2  C   LIG    1       25.000 -22.274   7.381  0.00  0.00    -0.001 A 
ATOM      3  C   LIG    1       25.982 -23.288   7.402  0.00  0.00    +0.007 A 
ATOM      4  C   LIG    1       25.693 -24.585   7.003  0.00  0.00    +0.001 A 
ATOM      5  C   LIG    1       24.412 -24.896   6.563  0.00  0.00    +0.004 A 
ATOM      6  C   LIG    1       23.424 -23.905   6.508  0.00  0.00    +0.046 A 
ENDROOT
BRANCH   1   7
ATOM      7  O   LIG    1       22.810 -21.556   6.823  0.00  0.00    -0.490 OA
BRANCH   7   8
ATOM      8  C   LIG    1       22.340 -21.208   5.510  0.00  0.00    +0.244 C 
BRANCH   8   9
ATOM      9  C   LIG    1       22.865 -19.804   5.133  0.00  0.00    +0.124 C 
BRANCH   9  11
ATOM     10  C   LIG    1       24.299 -20.972   3.561  0.00  0.00    +0.104 C 
ATOM     11  N   LIG    1       23.556 -19.732   3.826  0.00  0.00    -0.305 NA
ATOM     12  C   LIG    1       24.475 -18.598   3.749  0.00  0.00    +0.104 C 
ENDBRANCH   9  11
ENDBRANCH   8   9
ENDBRANCH   7   8
ENDBRANCH   1   7
BRANCH   2  13
ATOM     13  C   LIG    1       25.376 -20.851   7.774  0.00  0.00    +0.074 C 
BRANCH  13  14
ATOM     14  C   LIG    1       26.741 -20.373   7.305  0.00  0.00    -0.043 A 
ATOM     15  C   LIG    1       27.804 -20.238   8.210  0.00  0.00    +0.004 A 
ATOM     16  C   LIG    1       29.069 -19.848   7.762  0.00  0.00    +0.000 A 
ATOM     17  C   LIG    1       29.291 -19.608   6.408  0.00  0.00    +0.000 A 
ATOM     18  C   LIG    1       28.247 -19.754   5.495  0.00  0.00    +0.000 A 
ATOM     19  C   LIG    1       26.978 -20.122   5.943  0.00  0.00    +0.004 A 
ENDBRANCH  13  14
ENDBRANCH   2  13
TORSDOF 6
ENDMDL
MODEL 7
REMARK VINA RESULT:      -7.6      2.349      5.461
REMARK  Name = *****
REMARK                            x       y       z     vdW  Elec       q    Type
REMARK                         _______ _______ _______ _____ _____    ______ ____
ROOT
ATOM      1  C   LIG    1       25.548 -22.973   7.064  0.00  0.00    +0.124 A 
ATOM      2  C   LIG    1       25.087 -24.237   6.655  0.00  0.00    -0.001 A 
ATOM      3  C   LIG    1       23.697 -24.435   6.512  0.00  0.00    +0.007 A 
ATOM      4  C   LIG    1       22.787 -23.434   6.820  0.00  0.00    +0.001 A 
ATOM      5  C   LIG    1       23.251 -22.205   7.273  0.00  0.00    +0.004 A 
ATOM      6  C   LIG    1       24.625 -21.972   7.402  0.00  0.00    +0.046 A 
ENDROOT
BRANCH   1   7
ATOM      7  O   LIG    1       26.913 -22.802   7.133  0.00  0.00    -0.490 OA
BRANCH   7   8
ATOM      8  C   LIG    1       27.367 -21.626   7.824  0.00  0.00    +0.244 C 
BRANCH   8   9
ATOM      9  C   LIG    1       28.861 -21.388   7.504  0.00  0.00    +0.124 C 
BRANCH   9  11
ATOM     10  C   LIG    1       29.523 -19.089   7.914  0.00  0.00    +0.104 C 
ATOM     11  N   LIG    1       29.552 -20.464   8.432  0.00  0.00    -0.305 NA
ATOM     12  C   LIG    1       30.941 -20.857   8.668  0.00  0.00    +0.104 C 
ENDBRANCH   9  11
ENDBRANCH   8   9
ENDBRANCH   7   8
ENDBRANCH   1   7
BRANCH   2  13
ATOM     13  C   LIG    1       26.053 -25.345   6.250  0.00  0.00    +0.074 C 
BRANCH  13  14
ATOM     14  C   LIG    1       25.564 -26.766   6.483  0.00  0.00    -0.043 A 
ATOM     15  C   LIG    1       25.932 -27.470   7.640  0.00  0.00    +0.004 A 
ATOM     16  C   LIG    1       25.437 -28.756   7.870  0.00  0.00    +0.000 A 
ATOM     17  C   LIG    1       24.559 -29.344   6.963  0.00  0.00    +0.000 A 
ATOM     18  C   LIG    1       24.175 -28.650   5.817  0.00  0.00    +0.000 A 
ATOM     19  C   LIG    1       24.683 -27.374   5.573  0.00  0.00    +0.004 A 
ENDBRANCH  13  14
ENDBRANCH   2  13
TORSDOF 6
ENDMDL
MODEL 8
REMARK VINA RESULT:      -7.6      2.166      4.572
REMARK  Name = *****
REMARK                            x       y       z     vdW  Elec       q    Type
REMARK                         _______ _______ _______ _____ _____    ______ ____
ROOT
ATOM      1  C   LIG    1       28.235 -20.642   7.200  0.00  0.00    +0.124 A 
ATOM      2  C   LIG    1       26.882 -21.001   7.056  0.00  0.00    -0.001 A 
ATOM      3  C   LIG    1       26.175 -20.528   5.930  0.00  0.00    +0.007 A 
ATOM      4  C   LIG    1       26.766 -19.679   5.006  0.00  0.00    +0.001 A 
ATOM      5  C   LIG    1       28.088 -19.289   5.184  0.00  0.00    +0.004 A 
ATOM      6  C   LIG    1       28.823 -19.761   6.279  0.00  0.00    +0.046 A 
ENDROOT
BRANCH   1   7
ATOM      7  O   LIG    1       28.908 -21.172   8.278  0.00  0.00    -0.490 OA
BRANCH   7   8
ATOM      8  C   LIG    1       30.342 -21.081   8.233  0.00  0.00    +0.244 C 
BRANCH   8   9
ATOM      9  C   LIG    1       30.838 -20.229   9.424  0.00  0.00    +0.124 C 
BRANCH   9  11
ATOM     10  C   LIG    1       31.716 -18.025   9.938  0.00  0.00    +0.104 C 
ATOM     11  N   LIG    1       31.848 -19.204   9.073  0.00  0.00    -0.305 NA
ATOM     12  C   LIG    1       31.746 -18.786   7.675  0.00  0.00    +0.104 C 
ENDBRANCH   9  11
ENDBRANCH   8   9
ENDBRANCH   7   8
ENDBRANCH   1   7
BRANCH   2  13
ATOM     13  C   LIG    1       26.212 -21.977   8.015  0.00  0.00    +0.074 C 
BRANCH  13  14
ATOM     14  C   LIG    1       25.386 -23.077   7.368  0.00  0.00    -0.043 A 
ATOM     15  C   LIG    1       25.981 -24.285   6.975  0.00  0.00    +0.004 A 
ATOM     16  C   LIG    1       25.205 -25.311   6.428  0.00  0.00    +0.000 A 
ATOM     17  C   LIG    1       23.829 -25.150   6.286  0.00  0.00    +0.000 A 
ATOM     18  C   LIG    1       23.222 -23.961   6.685  0.00  0.00    +0.000 A 
ATOM     19  C   LIG    1       23.997 -22.927   7.212  0.00  0.00    +0.004 A 
ENDBRANCH  13  14
ENDBRANCH   2  13
TORSDOF 6
ENDMDL
MODEL 9
REMARK VINA RESULT:      -7.6      2.718      4.740
REMARK  Name = *****
REMARK                            x       y       z     vdW  Elec       q    Type
REMARK                         _______ _______ _______ _____ _____    ______ ____
ROOT
ATOM      1  C   LIG    1       24.980 -22.977   7.073  0.00  0.00    +0.124 A 
ATOM      2  C   LIG    1       24.381 -21.710   7.203  0.00  0.00    -0.001 A 
ATOM      3  C   LIG    1       25.080 -20.701   7.899  0.00  0.00    +0.007 A 
ATOM      4  C   LIG    1       26.306 -20.950   8.499  0.00  0.00    +0.001 A 
ATOM      5  C   LIG    1       26.866 -22.219   8.408  0.00  0.00    +0.004 A 
ATOM      6  C   LIG    1       26.207 -23.234   7.704  0.00  0.00    +0.046 A 
ENDROOT
BRANCH   1   7
ATOM      7  O   LIG    1       24.295 -23.916   6.336  0.00  0.00    -0.490 OA
BRANCH   7   8
ATOM      8  C   LIG    1       25.101 -24.837   5.581  0.00  0.00    +0.244 C 
BRANCH   8   9
ATOM      9  C   LIG    1       24.307 -26.143   5.352  0.00  0.00    +0.124 C 
BRANCH   9  11
ATOM     10  C   LIG    1       25.866 -27.064   6.968  0.00  0.00    +0.104 C 
ATOM     11  N   LIG    1       24.527 -27.189   6.377  0.00  0.00    -0.305 NA
ATOM     12  C   LIG    1       24.369 -28.537   5.833  0.00  0.00    +0.104 C 
ENDBRANCH   9  11
ENDBRANCH   8   9
ENDBRANCH   7   8
ENDBRANCH   1   7
BRANCH   2  13
ATOM     13  C   LIG    1       23.065 -21.378   6.511  0.00  0.00    +0.074 C 
BRANCH  13  14
ATOM     14  C   LIG    1       23.144 -20.339   5.403  0.00  0.00    -0.043 A 
ATOM     15  C   LIG    1       22.227 -19.279   5.346  0.00  0.00    +0.004 A 
ATOM     16  C   LIG    1       22.339 -18.301   4.354  0.00  0.00    +0.000 A 
ATOM     17  C   LIG    1       23.374 -18.360   3.423  0.00  0.00    +0.000 A 
ATOM     18  C   LIG    1       24.301 -19.399   3.478  0.00  0.00    +0.000 A 
ATOM     19  C   LIG    1       24.180 -20.389   4.454  0.00  0.00    +0.004 A 
ENDBRANCH  13  14
ENDBRANCH   2  13
TORSDOF 6
ENDMDL
