MODEL 1
REMARK VINA RESULT:      -5.8      0.000      0.000
REMARK  Name = *****
REMARK                            x       y       z     vdW  Elec       q    Type
REMARK                         _______ _______ _______ _____ _____    ______ ____
ROOT
ATOM      1  N   LIG    1       22.897 -18.810   4.670  0.00  0.00    -0.303 NA
ENDROOT
BRANCH   1   3
ATOM      2  C   LIG    1       22.412 -21.240   5.227  0.00  0.00    +0.020 C 
ATOM      3  C   LIG    1       21.954 -19.944   4.563  0.00  0.00    +0.081 C 
ENDBRANCH   1   3
BRANCH   1   4
ATOM      4  C   LIG    1       22.240 -17.514   4.920  0.00  0.00    +0.085 C 
BRANCH   4   5
ATOM      5  C   LIG    1       22.529 -16.379   3.921  0.00  0.00    +0.020 C 
BRANCH   5   6
ATOM      6  C   LIG    1       23.209 -15.195   4.603  0.00  0.00    +0.036 C 
BRANCH   6   7
ATOM      7  C   LIG    1       24.372 -14.592   3.860  0.00  0.00    -0.047 A 
ATOM      8  C   LIG    1       25.527 -15.342   3.608  0.00  0.00    +0.003 A 
ATOM      9  C   LIG    1       26.611 -14.764   2.943  0.00  0.00    +0.000 A 
ATOM     10  C   LIG    1       26.550 -13.433   2.524  0.00  0.00    +0.000 A 
ATOM     11  C   LIG    1       25.407 -12.683   2.768  0.00  0.00    +0.000 A 
ATOM     12  C   LIG    1       24.325 -13.256   3.437  0.00  0.00    +0.003 A 
ENDBRANCH   6   7
ENDBRANCH   5   6
ENDBRANCH   4   5
ENDBRANCH   1   4
BRANCH   1  13
ATOM     13  C   LIG    1       23.771 -18.811   3.479  0.00  0.00    +0.085 C 
BRANCH  13  14
ATOM     14  C   LIG    1       25.279 -18.966   3.740  0.00  0.00    +0.020 C 
BRANCH  14  15
ATOM     15  C   LIG    1       25.601 -20.068   4.758  0.00  0.00    +0.036 C 
BRANCH  15  16
ATOM     16  C   LIG    1       26.964 -19.924   5.398  0.00  0.00    -0.047 A 
ATOM     17  C   LIG    1       27.854 -18.940   4.944  0.00  0.00    +0.003 A 
ATOM     18  C   LIG    1       29.105 -18.785   5.549  0.00  0.00    +0.000 A 
ATOM     19  C   LIG    1       29.475 -19.615   6.599  0.00  0.00    +0.000 A 
ATOM     20  C   LIG    1       28.597 -20.596   7.062  0.00  0.00    +0.000 A 
ATOM     21  C   LIG    1       27.340 -20.743   6.467  0.00  0.00    +0.003 A 
ENDBRANCH  15  16
ENDBRANCH  14  15
ENDBRANCH  13  14
ENDBRANCH   1  13
TORSDOF 9
ENDMDL
MODEL 2
REMARK VINA RESULT:      -5.5      1.446      2.062
REMARK  Name = *****
REMARK                            x       y       z     vdW  Elec       q    Type
REMARK                         _______ _______ _______ _____ _____    ______ ____
ROOT
ATOM      1  N   LIG    1       21.949 -18.027   4.411  0.00  0.00    -0.303 NA
ENDROOT
BRANCH   1   3
ATOM      2  C   LIG    1       19.701 -18.519   3.339  0.00  0.00    +0.020 C 
ATOM      3  C   LIG    1       21.219 -18.463   3.202  0.00  0.00    +0.081 C 
ENDBRANCH   1   3
BRANCH   1   4
ATOM      4  C   LIG    1       23.006 -17.035   4.140  0.00  0.00    +0.085 C 
BRANCH   4   5
ATOM      5  C   LIG    1       22.865 -15.659   4.816  0.00  0.00    +0.020 C 
BRANCH   5   6
ATOM      6  C   LIG    1       23.486 -14.554   3.967  0.00  0.00    +0.036 C 
BRANCH   6   7
ATOM      7  C   LIG    1       24.979 -14.395   4.090  0.00  0.00    -0.047 A 
ATOM      8  C   LIG    1       25.529 -13.462   4.976  0.00  0.00    +0.003 A 
ATOM      9  C   LIG    1       26.915 -13.304   5.062  0.00  0.00    +0.000 A 
ATOM     10  C   LIG    1       27.761 -14.076   4.262  0.00  0.00    +0.000 A 
ATOM     11  C   LIG    1       27.223 -15.006   3.383  0.00  0.00    +0.000 A 
ATOM     12  C   LIG    1       25.840 -15.163   3.291  0.00  0.00    +0.003 A 
ENDBRANCH   6   7
ENDBRANCH   5   6
ENDBRANCH   4   5
ENDBRANCH   1   4
BRANCH   1  13
ATOM     13  C   LIG    1       22.431 -19.226   5.128  0.00  0.00    +0.085 C 
BRANCH  13  14
ATOM     14  C   LIG    1       23.441 -20.110   4.375  0.00  0.00    +0.020 C 
BRANCH  14  15
ATOM     15  C   LIG    1       24.106 -21.159   5.277  0.00  0.00    +0.036 C 
BRANCH  15  16
ATOM     16  C   LIG    1       25.541 -20.836   5.628  0.00  0.00    -0.047 A 
ATOM     17  C   LIG    1       26.262 -19.911   4.858  0.00  0.00    +0.003 A 
ATOM     18  C   LIG    1       27.581 -19.588   5.193  0.00  0.00    +0.000 A 
ATOM     19  C   LIG    1       28.186 -20.193   6.286  0.00  0.00    +0.000 A 
ATOM     20  C   LIG    1       27.478 -21.112   7.062  0.00  0.00    +0.000 A 
ATOM     21  C   LIG    1       26.155 -21.425   6.737  0.00  0.00    +0.003 A 
ENDBRANCH  15  16
ENDBRANCH  14  15
ENDBRANCH  13  14
ENDBRANCH   1  13
TORSDOF 9
ENDMDL
MODEL 3
REMARK VINA RESULT:      -5.3      1.436      6.164
REMARK  Name = *****
REMARK                            x       y       z     vdW  Elec       q    Type
REMARK                         _______ _______ _______ _____ _____    ______ ____
ROOT
ATOM      1  N   LIG    1       26.734 -19.680   5.524  0.00  0.00    -0.303 NA
ENDROOT
BRANCH   1   3
ATOM      2  C   LIG    1       28.892 -20.094   6.796  0.00  0.00    +0.020 C 
ATOM      3  C   LIG    1       28.212 -19.661   5.501  0.00  0.00    +0.081 C 
ENDBRANCH   1   3
BRANCH   1   4
ATOM      4  C   LIG    1       26.167 -20.784   6.320  0.00  0.00    +0.085 C 
BRANCH   4   5
ATOM      5  C   LIG    1       24.895 -21.458   5.775  0.00  0.00    +0.020 C 
BRANCH   5   6
ATOM      6  C   LIG    1       23.639 -20.889   6.426  0.00  0.00    +0.036 C 
BRANCH   6   7
ATOM      7  C   LIG    1       22.681 -20.187   5.500  0.00  0.00    -0.047 A 
ATOM      8  C   LIG    1       21.712 -20.908   4.792  0.00  0.00    +0.003 A 
ATOM      9  C   LIG    1       20.846 -20.250   3.914  0.00  0.00    +0.000 A 
ATOM     10  C   LIG    1       20.943 -18.868   3.737  0.00  0.00    +0.000 A 
ATOM     11  C   LIG    1       21.899 -18.145   4.438  0.00  0.00    +0.000 A 
ATOM     12  C   LIG    1       22.768 -18.800   5.311  0.00  0.00    +0.003 A 
ENDBRANCH   6   7
ENDBRANCH   5   6
ENDBRANCH   4   5
ENDBRANCH   1   4
BRANCH   1  13
ATOM     13  C   LIG    1       26.242 -19.640   4.131  0.00  0.00    +0.085 C 
BRANCH  13  14
ATOM     14  C   LIG    1       25.556 -18.335   3.687  0.00  0.00    +0.020 C 
BRANCH  14  15
ATOM     15  C   LIG    1       26.554 -17.210   3.382  0.00  0.00    +0.036 C 
BRANCH  15  16
ATOM     16  C   LIG    1       25.937 -15.829   3.407  0.00  0.00    -0.047 A 
ATOM     17  C   LIG    1       24.638 -15.648   3.902  0.00  0.00    +0.003 A 
ATOM     18  C   LIG    1       24.072 -14.370   3.952  0.00  0.00    +0.000 A 
ATOM     19  C   LIG    1       24.793 -13.274   3.500  0.00  0.00    +0.000 A 
ATOM     20  C   LIG    1       26.089 -13.441   3.008  0.00  0.00    +0.000 A 
ATOM     21  C   LIG    1       26.661 -14.716   2.971  0.00  0.00    +0.003 A 
ENDBRANCH  15  16
ENDBRANCH  14  15
ENDBRANCH  13  14
ENDBRANCH   1  13
TORSDOF 9
ENDMDL
MODEL 4
REMARK VINA RESULT:      -5.2      1.429      5.900
REMARK  Name = *****
REMARK                            x       y       z     vdW  Elec       q    Type
REMARK                         _______ _______ _______ _____ _____    ______ ____
ROOT
ATOM      1  N   LIG    1       24.944 -14.787   4.186  0.00  0.00    -0.303 NA
ENDROOT
BRANCH   1   3
ATOM      2  C   LIG    1       24.686 -12.598   2.925  0.00  0.00    +0.020 C 
ATOM      3  C   LIG    1       25.179 -13.328   4.171  0.00  0.00    +0.081 C 
ENDBRANCH   1   3
BRANCH   1   4
ATOM      4  C   LIG    1       25.752 -15.529   3.199  0.00  0.00    +0.085 C 
BRANCH   4   5
ATOM      5  C   LIG    1       26.993 -16.270   3.727  0.00  0.00    +0.020 C 
BRANCH   5   6
ATOM      6  C   LIG    1       26.798 -17.783   3.689  0.00  0.00    +0.036 C 
BRANCH   6   7
ATOM      7  C   LIG    1       27.537 -18.565   4.743  0.00  0.00    -0.047 A 
ATOM      8  C   LIG    1       26.972 -19.715   5.308  0.00  0.00    +0.003 A 
ATOM      9  C   LIG    1       27.655 -20.418   6.305  0.00  0.00    +0.000 A 
ATOM     10  C   LIG    1       28.905 -19.977   6.745  0.00  0.00    +0.000 A 
ATOM     11  C   LIG    1       29.473 -18.839   6.187  0.00  0.00    +0.000 A 
ATOM     12  C   LIG    1       28.792 -18.132   5.196  0.00  0.00    +0.003 A 
ENDBRANCH   6   7
ENDBRANCH   5   6
ENDBRANCH   4   5
ENDBRANCH   1   4
BRANCH   1  13
ATOM     13  C   LIG    1       23.491 -15.030   4.064  0.00  0.00    +0.085 C 
BRANCH  13  14
ATOM     14  C   LIG    1       22.903 -16.116   4.983  0.00  0.00    +0.020 C 
BRANCH  14  15
ATOM     15  C   LIG    1       22.159 -17.214   4.211  0.00  0.00    +0.036 C 
BRANCH  15  16
ATOM     16  C   LIG    1       22.760 -18.591   4.387  0.00  0.00    -0.047 A 
ATOM     17  C   LIG    1       22.436 -19.362   5.513  0.00  0.00    +0.003 A 
ATOM     18  C   LIG    1       22.968 -20.646   5.667  0.00  0.00    +0.000 A 
ATOM     19  C   LIG    1       23.830 -21.159   4.708  0.00  0.00    +0.000 A 
ATOM     20  C   LIG    1       24.157 -20.403   3.581  0.00  0.00    +0.000 A 
ATOM     21  C   LIG    1       23.615 -19.125   3.419  0.00  0.00    +0.003 A 
ENDBRANCH  15  16
ENDBRANCH  14  15
ENDBRANCH  13  14
ENDBRANCH   1  13
TORSDOF 9
ENDMDL
MODEL 5
REMARK VINA RESULT:      -5.2      0.630      1.222
REMARK  Name = *****
REMARK                            x       y       z     vdW  Elec       q    Type
REMARK                         _______ _______ _______ _____ _____    ______ ____
ROOT
ATOM      1  N   LIG    1       22.719 -18.590   4.739  0.00  0.00    -0.303 NA
ENDROOT
BRANCH   1   3
ATOM      2  C   LIG    1       21.515 -20.825   4.813  0.00  0.00    +0.020 C 
ATOM      3  C   LIG    1       21.582 -19.404   4.260  0.00  0.00    +0.081 C 
ENDBRANCH   1   3
BRANCH   1   4
ATOM      4  C   LIG    1       22.360 -17.194   5.051  0.00  0.00    +0.085 C 
BRANCH   4   5
ATOM      5  C   LIG    1       22.708 -16.130   3.995  0.00  0.00    +0.020 C 
BRANCH   5   6
ATOM      6  C   LIG    1       23.444 -14.947   4.616  0.00  0.00    +0.036 C 
BRANCH   6   7
ATOM      7  C   LIG    1       24.617 -14.420   3.831  0.00  0.00    -0.047 A 
ATOM      8  C   LIG    1       24.534 -13.195   3.157  0.00  0.00    +0.003 A 
ATOM      9  C   LIG    1       25.619 -12.729   2.410  0.00  0.00    +0.000 A 
ATOM     10  C   LIG    1       26.793 -13.481   2.330  0.00  0.00    +0.000 A 
ATOM     11  C   LIG    1       26.884 -14.695   2.998  0.00  0.00    +0.000 A 
ATOM     12  C   LIG    1       25.801 -15.166   3.741  0.00  0.00    +0.003 A 
ENDBRANCH   6   7
ENDBRANCH   5   6
ENDBRANCH   4   5
ENDBRANCH   1   4
BRANCH   1  13
ATOM     13  C   LIG    1       23.828 -18.714   3.771  0.00  0.00    +0.085 C 
BRANCH  13  14
ATOM     14  C   LIG    1       24.757 -19.928   3.950  0.00  0.00    +0.020 C 
BRANCH  14  15
ATOM     15  C   LIG    1       24.998 -20.284   5.424  0.00  0.00    +0.036 C 
BRANCH  15  16
ATOM     16  C   LIG    1       26.461 -20.324   5.806  0.00  0.00    -0.047 A 
ATOM     17  C   LIG    1       27.350 -19.372   5.287  0.00  0.00    +0.003 A 
ATOM     18  C   LIG    1       28.699 -19.389   5.658  0.00  0.00    +0.000 A 
ATOM     19  C   LIG    1       29.165 -20.358   6.536  0.00  0.00    +0.000 A 
ATOM     20  C   LIG    1       28.289 -21.308   7.062  0.00  0.00    +0.000 A 
ATOM     21  C   LIG    1       26.938 -21.284   6.703  0.00  0.00    +0.003 A 
ENDBRANCH  15  16
ENDBRANCH  14  15
ENDBRANCH  13  14
ENDBRANCH   1  13
TORSDOF 9
ENDMDL
MODEL 6
REMARK VINA RESULT:      -5.1      1.163      5.983
REMARK  Name = *****
REMARK                            x       y       z     vdW  Elec       q    Type
REMARK                         _______ _______ _______ _____ _____    ______ ____
ROOT
ATOM      1  N   LIG    1       23.374 -18.459   4.542  0.00  0.00    -0.303 NA
ENDROOT
BRANCH   1   3
ATOM      2  C   LIG    1       25.419 -18.367   3.040  0.00  0.00    +0.020 C 
ATOM      3  C   LIG    1       23.944 -18.720   3.204  0.00  0.00    +0.081 C 
ENDBRANCH   1   3
BRANCH   1   4
ATOM      4  C   LIG    1       22.949 -19.678   5.255  0.00  0.00    +0.085 C 
BRANCH   4   5
ATOM      5  C   LIG    1       23.937 -20.858   5.274  0.00  0.00    +0.020 C 
BRANCH   5   6
ATOM      6  C   LIG    1       24.758 -20.877   6.560  0.00  0.00    +0.036 C 
BRANCH   6   7
ATOM      7  C   LIG    1       26.247 -20.724   6.389  0.00  0.00    -0.047 A 
ATOM      8  C   LIG    1       27.135 -21.571   7.062  0.00  0.00    +0.003 A 
ATOM      9  C   LIG    1       28.515 -21.403   6.918  0.00  0.00    +0.000 A 
ATOM     10  C   LIG    1       29.017 -20.387   6.101  0.00  0.00    +0.000 A 
ATOM     11  C   LIG    1       28.142 -19.544   5.428  0.00  0.00    +0.000 A 
ATOM     12  C   LIG    1       26.764 -19.707   5.574  0.00  0.00    +0.003 A 
ENDBRANCH   6   7
ENDBRANCH   5   6
ENDBRANCH   4   5
ENDBRANCH   1   4
BRANCH   1  13
ATOM     13  C   LIG    1       22.306 -17.447   4.410  0.00  0.00    +0.085 C 
BRANCH  13  14
ATOM     14  C   LIG    1       22.637 -16.034   4.923  0.00  0.00    +0.020 C 
BRANCH  14  15
ATOM     15  C   LIG    1       23.147 -15.100   3.816  0.00  0.00    +0.036 C 
BRANCH  15  16
ATOM     16  C   LIG    1       24.563 -14.616   4.037  0.00  0.00    -0.047 A 
ATOM     17  C   LIG    1       25.644 -15.338   3.511  0.00  0.00    +0.003 A 
ATOM     18  C   LIG    1       26.954 -14.882   3.690  0.00  0.00    +0.000 A 
ATOM     19  C   LIG    1       27.189 -13.713   4.400  0.00  0.00    +0.000 A 
ATOM     20  C   LIG    1       26.122 -12.983   4.926  0.00  0.00    +0.000 A 
ATOM     21  C   LIG    1       24.811 -13.431   4.735  0.00  0.00    +0.003 A 
ENDBRANCH  15  16
ENDBRANCH  14  15
ENDBRANCH  13  14
ENDBRANCH   1  13
TORSDOF 9
ENDMDL
MODEL 7
REMARK VINA RESULT:      -5.1      1.252      6.122
REMARK  Name = *****
REMARK                            x       y       z     vdW  Elec       q    Type
REMARK                         _______ _______ _______ _____ _____    ______ ____
ROOT
ATOM      1  N   LIG    1       21.637 -18.606   3.841  0.00  0.00    -0.303 NA
ENDROOT
BRANCH   1   3
ATOM      2  C   LIG    1       19.449 -18.236   2.608  0.00  0.00    +0.020 C 
ATOM      3  C   LIG    1       20.164 -18.717   3.868  0.00  0.00    +0.081 C 
ENDBRANCH   1   3
BRANCH   1   4
ATOM      4  C   LIG    1       22.333 -19.858   4.191  0.00  0.00    +0.085 C 
BRANCH   4   5
ATOM      5  C   LIG    1       22.750 -20.040   5.662  0.00  0.00    +0.020 C 
BRANCH   5   6
ATOM      6  C   LIG    1       23.750 -21.181   5.822  0.00  0.00    +0.036 C 
BRANCH   6   7
ATOM      7  C   LIG    1       25.199 -20.777   5.889  0.00  0.00    -0.047 A 
ATOM      8  C   LIG    1       25.992 -21.134   6.986  0.00  0.00    +0.003 A 
ATOM      9  C   LIG    1       27.329 -20.730   7.050  0.00  0.00    +0.000 A 
ATOM     10  C   LIG    1       27.882 -19.967   6.020  0.00  0.00    +0.000 A 
ATOM     11  C   LIG    1       27.103 -19.611   4.926  0.00  0.00    +0.000 A 
ATOM     12  C   LIG    1       25.767 -20.008   4.862  0.00  0.00    +0.003 A 
ENDBRANCH   6   7
ENDBRANCH   5   6
ENDBRANCH   4   5
ENDBRANCH   1   4
BRANCH   1  13
ATOM     13  C   LIG    1       22.038 -17.453   4.675  0.00  0.00    +0.085 C 
BRANCH  13  14
ATOM     14  C   LIG    1       23.319 -16.715   4.247  0.00  0.00    +0.020 C 
BRANCH  14  15
ATOM     15  C   LIG    1       23.238 -15.198   4.472  0.00  0.00    +0.036 C 
BRANCH  15  16
ATOM     16  C   LIG    1       24.313 -14.420   3.745  0.00  0.00    -0.047 A 
ATOM     17  C   LIG    1       25.612 -14.937   3.649  0.00  0.00    +0.003 A 
ATOM     18  C   LIG    1       26.603 -14.235   2.956  0.00  0.00    +0.000 A 
ATOM     19  C   LIG    1       26.305 -13.013   2.369  0.00  0.00    +0.000 A 
ATOM     20  C   LIG    1       25.014 -12.490   2.454  0.00  0.00    +0.000 A 
ATOM     21  C   LIG    1       24.019 -13.198   3.134  0.00  0.00    +0.003 A 
ENDBRANCH  15  16
ENDBRANCH  14  15
ENDBRANCH  13  14
ENDBRANCH   1  13
TORSDOF 9
ENDMDL
MODEL 8
REMARK VINA RESULT:      -5.0      1.592      4.821
REMARK  Name = *****
REMARK                            x       y       z     vdW  Elec       q    Type
REMARK                         _______ _______ _______ _____ _____    ______ ____
ROOT
ATOM      1  N   LIG    1       28.548 -18.918   5.190  0.00  0.00    -0.303 NA
ENDROOT
BRANCH   1   3
ATOM      2  C   LIG    1       29.163 -20.521   7.060  0.00  0.00    +0.020 C 
ATOM      3  C   LIG    1       29.475 -19.238   6.296  0.00  0.00    +0.081 C 
ENDBRANCH   1   3
BRANCH   1   4
ATOM      4  C   LIG    1       28.596 -17.507   4.763  0.00  0.00    +0.085 C 
BRANCH   4   5
ATOM      5  C   LIG    1       27.358 -16.954   4.035  0.00  0.00    +0.020 C 
BRANCH   5   6
ATOM      6  C   LIG    1       27.526 -15.477   3.691  0.00  0.00    +0.036 C 
BRANCH   6   7
ATOM      7  C   LIG    1       26.252 -14.711   3.451  0.00  0.00    -0.047 A 
ATOM      8  C   LIG    1       26.237 -13.595   2.606  0.00  0.00    +0.003 A 
ATOM      9  C   LIG    1       25.055 -12.875   2.411  0.00  0.00    +0.000 A 
ATOM     10  C   LIG    1       23.880 -13.265   3.059  0.00  0.00    +0.000 A 
ATOM     11  C   LIG    1       23.886 -14.373   3.896  0.00  0.00    +0.000 A 
ATOM     12  C   LIG    1       25.066 -15.090   4.096  0.00  0.00    +0.003 A 
ENDBRANCH   6   7
ENDBRANCH   5   6
ENDBRANCH   4   5
ENDBRANCH   1   4
BRANCH   1  13
ATOM     13  C   LIG    1       27.194 -19.378   5.563  0.00  0.00    +0.085 C 
BRANCH  13  14
ATOM     14  C   LIG    1       26.552 -20.428   4.638  0.00  0.00    +0.020 C 
BRANCH  14  15
ATOM     15  C   LIG    1       25.237 -20.991   5.195  0.00  0.00    +0.036 C 
BRANCH  15  16
ATOM     16  C   LIG    1       24.020 -20.176   4.816  0.00  0.00    -0.047 A 
ATOM     17  C   LIG    1       24.164 -19.012   4.047  0.00  0.00    +0.003 A 
ATOM     18  C   LIG    1       23.040 -18.270   3.670  0.00  0.00    +0.000 A 
ATOM     19  C   LIG    1       21.774 -18.678   4.068  0.00  0.00    +0.000 A 
ATOM     20  C   LIG    1       21.618 -19.837   4.830  0.00  0.00    +0.000 A 
ATOM     21  C   LIG    1       22.739 -20.588   5.195  0.00  0.00    +0.003 A 
ENDBRANCH  15  16
ENDBRANCH  14  15
ENDBRANCH  13  14
ENDBRANCH   1  13
TORSDOF 9
ENDMDL
MODEL 9
REMARK VINA RESULT:      -4.9      1.297      2.112
REMARK  Name = *****
REMARK                            x       y       z     vdW  Elec       q    Type
REMARK                         _______ _______ _______ _____ _____    ______ ____
ROOT
ATOM      1  N   LIG    1       23.639 -19.117   4.378  0.00  0.00    -0.303 NA
ENDROOT
BRANCH   1   3
ATOM      2  C   LIG    1       21.320 -18.195   3.909  0.00  0.00    +0.020 C 
ATOM      3  C   LIG    1       22.197 -19.403   4.224  0.00  0.00    +0.081 C 
ENDBRANCH   1   3
BRANCH   1   4
ATOM      4  C   LIG    1       24.034 -17.781   3.892  0.00  0.00    +0.085 C 
BRANCH   4   5
ATOM      5  C   LIG    1       25.534 -17.545   3.639  0.00  0.00    +0.020 C 
BRANCH   5   6
ATOM      6  C   LIG    1       25.771 -16.257   2.855  0.00  0.00    +0.036 C 
BRANCH   6   7
ATOM      7  C   LIG    1       25.616 -14.978   3.635  0.00  0.00    -0.047 A 
ATOM      8  C   LIG    1       24.430 -14.237   3.565  0.00  0.00    +0.003 A 
ATOM      9  C   LIG    1       24.306 -13.038   4.271  0.00  0.00    +0.000 A 
ATOM     10  C   LIG    1       25.366 -12.569   5.051  0.00  0.00    +0.000 A 
ATOM     11  C   LIG    1       26.544 -13.300   5.128  0.00  0.00    +0.000 A 
ATOM     12  C   LIG    1       26.672 -14.495   4.420  0.00  0.00    +0.003 A 
ENDBRANCH   6   7
ENDBRANCH   5   6
ENDBRANCH   4   5
ENDBRANCH   1   4
BRANCH   1  13
ATOM     13  C   LIG    1       24.406 -20.221   3.764  0.00  0.00    +0.085 C 
BRANCH  13  14
ATOM     14  C   LIG    1       24.776 -21.391   4.693  0.00  0.00    +0.020 C 
BRANCH  14  15
ATOM     15  C   LIG    1       25.234 -20.930   6.083  0.00  0.00    +0.036 C 
BRANCH  15  16
ATOM     16  C   LIG    1       26.722 -20.677   6.178  0.00  0.00    -0.047 A 
ATOM     17  C   LIG    1       27.297 -19.594   5.497  0.00  0.00    +0.003 A 
ATOM     18  C   LIG    1       28.668 -19.339   5.602  0.00  0.00    +0.000 A 
ATOM     19  C   LIG    1       29.469 -20.167   6.376  0.00  0.00    +0.000 A 
ATOM     20  C   LIG    1       28.909 -21.245   7.062  0.00  0.00    +0.000 A 
ATOM     21  C   LIG    1       27.536 -21.493   6.969  0.00  0.00    +0.003 A 
ENDBRANCH  15  16
ENDBRANCH  14  15
ENDBRANCH  13  14
ENDBRANCH   1  13
TORSDOF 9
ENDMDL
