MODEL 1
REMARK VINA RESULT:      -4.9      0.000      0.000
REMARK  Name = *****
REMARK                            x       y       z     vdW  Elec       q    Type
REMARK                         _______ _______ _______ _____ _____    ______ ____
ROOT
ATOM      1  C   LIG    1       25.779 -15.930   3.335  0.00  0.00    -0.014 A 
ATOM      2  C   LIG    1       26.502 -14.813   2.877  0.00  0.00    +0.055 A 
ATOM      3  C   LIG    1       25.953 -13.538   2.993  0.00  0.00    +0.159 A 
ATOM      4  C   LIG    1       24.699 -13.339   3.565  0.00  0.00    +0.158 A 
ATOM      5  C   LIG    1       23.973 -14.423   4.036  0.00  0.00    +0.049 A 
ATOM      6  C   LIG    1       24.522 -15.706   3.930  0.00  0.00    +0.010 A 
ENDROOT
BRANCH   3   7
ATOM      7  O   LIG    1       26.660 -12.465   2.532  0.00  0.00    -0.503 OA
ATOM      8  H   LIG    1       26.714 -12.603   1.565  0.00  0.00    +0.292 HD
ENDBRANCH   3   7
BRANCH   4   9
ATOM      9  O   LIG    1       24.217 -12.063   3.646  0.00  0.00    -0.503 OA
ATOM     10  H   LIG    1       24.305 -11.649   2.773  0.00  0.00    +0.292 HD
ENDBRANCH   4   9
BRANCH   1  11
ATOM     11  C   LIG    1       26.356 -17.333   3.205  0.00  0.00    +0.158 C 
BRANCH  11  12
ATOM     12  O   LIG    1       27.541 -17.460   3.999  0.00  0.00    -0.386 OA
ATOM     13  H   LIG    1       28.285 -17.132   3.466  0.00  0.00    +0.210 HD
ENDBRANCH  11  12
BRANCH  11  14
ATOM     14  C   LIG    1       25.367 -18.465   3.611  0.00  0.00    +0.117 C 
BRANCH  14  15
ATOM     15  N   LIG    1       25.966 -19.765   3.978  0.00  0.00    -0.311 NA
ATOM     16  H   LIG    1       26.159 -20.260   3.102  0.00  0.00    +0.122 HD
BRANCH  15  18
ATOM     17  C   LIG    1       25.696 -20.675   6.226  0.00  0.00    +0.024 C 
ATOM     18  C   LIG    1       25.107 -20.609   4.815  0.00  0.00    +0.048 C 
ATOM     19  C   LIG    1       23.673 -20.085   4.888  0.00  0.00    +0.024 C 
ENDBRANCH  15  18
ENDBRANCH  14  15
ENDBRANCH  11  14
ENDBRANCH   1  11
TORSDOF 7
ENDMDL
MODEL 2
REMARK VINA RESULT:      -4.7      4.035      5.917
REMARK  Name = *****
REMARK                            x       y       z     vdW  Elec       q    Type
REMARK                         _______ _______ _______ _____ _____    ______ ____
ROOT
ATOM      1  C   LIG    1       25.694 -20.293   5.090  0.00  0.00    -0.014 A 
ATOM      2  C   LIG    1       26.696 -19.432   4.604  0.00  0.00    +0.055 A 
ATOM      3  C   LIG    1       27.906 -19.324   5.286  0.00  0.00    +0.159 A 
ATOM      4  C   LIG    1       28.155 -20.062   6.441  0.00  0.00    +0.158 A 
ATOM      5  C   LIG    1       27.189 -20.929   6.930  0.00  0.00    +0.049 A 
ATOM      6  C   LIG    1       25.973 -21.048   6.246  0.00  0.00    +0.010 A 
ENDROOT
BRANCH   3   7
ATOM      7  O   LIG    1       28.863 -18.475   4.812  0.00  0.00    -0.503 OA
ATOM      8  H   LIG    1       29.664 -18.693   5.330  0.00  0.00    +0.292 HD
ENDBRANCH   3   7
BRANCH   4   9
ATOM      9  O   LIG    1       29.362 -19.909   7.062  0.00  0.00    -0.503 OA
ATOM     10  H   LIG    1       29.786 -20.779   7.120  0.00  0.00    +0.292 HD
ENDBRANCH   4   9
BRANCH   1  11
ATOM     11  C   LIG    1       24.360 -20.415   4.367  0.00  0.00    +0.158 C 
BRANCH  11  12
ATOM     12  O   LIG    1       24.368 -21.548   3.491  0.00  0.00    -0.386 OA
ATOM     13  H   LIG    1       24.572 -22.330   4.030  0.00  0.00    +0.210 HD
ENDBRANCH  11  12
BRANCH  11  14
ATOM     14  C   LIG    1       23.132 -20.535   5.317  0.00  0.00    +0.117 C 
BRANCH  14  15
ATOM     15  N   LIG    1       22.346 -19.304   5.541  0.00  0.00    -0.311 NA
ATOM     16  H   LIG    1       21.399 -19.600   5.796  0.00  0.00    +0.122 HD
BRANCH  15  18
ATOM     17  C   LIG    1       20.946 -18.685   3.642  0.00  0.00    +0.024 C 
ATOM     18  C   LIG    1       22.264 -18.422   4.373  0.00  0.00    +0.048 C 
ATOM     19  C   LIG    1       22.347 -16.944   4.753  0.00  0.00    +0.024 C 
ENDBRANCH  15  18
ENDBRANCH  14  15
ENDBRANCH  11  14
ENDBRANCH   1  11
TORSDOF 7
ENDMDL
MODEL 3
REMARK VINA RESULT:      -4.6      3.001      6.303
REMARK  Name = *****
REMARK                            x       y       z     vdW  Elec       q    Type
REMARK                         _______ _______ _______ _____ _____    ______ ____
ROOT
ATOM      1  C   LIG    1       23.090 -17.466   4.289  0.00  0.00    -0.014 A 
ATOM      2  C   LIG    1       24.301 -17.960   3.770  0.00  0.00    +0.055 A 
ATOM      3  C   LIG    1       24.536 -19.333   3.744  0.00  0.00    +0.159 A 
ATOM      4  C   LIG    1       23.587 -20.238   4.214  0.00  0.00    +0.158 A 
ATOM      5  C   LIG    1       22.379 -19.777   4.716  0.00  0.00    +0.049 A 
ATOM      6  C   LIG    1       22.134 -18.399   4.739  0.00  0.00    +0.010 A 
ENDROOT
BRANCH   3   7
ATOM      7  O   LIG    1       25.721 -19.796   3.251  0.00  0.00    -0.503 OA
ATOM      8  H   LIG    1       25.492 -20.179   2.380  0.00  0.00    +0.292 HD
ENDBRANCH   3   7
BRANCH   4   9
ATOM      9  O   LIG    1       23.880 -21.571   4.162  0.00  0.00    -0.503 OA
ATOM     10  H   LIG    1       24.515 -21.770   4.867  0.00  0.00    +0.292 HD
ENDBRANCH   4   9
BRANCH   1  11
ATOM     11  C   LIG    1       22.821 -15.969   4.339  0.00  0.00    +0.158 C 
BRANCH  11  12
ATOM     12  O   LIG    1       22.202 -15.614   5.581  0.00  0.00    -0.386 OA
ATOM     13  H   LIG    1       22.885 -15.213   6.142  0.00  0.00    +0.210 HD
ENDBRANCH  11  12
BRANCH  11  14
ATOM     14  C   LIG    1       24.092 -15.090   4.153  0.00  0.00    +0.117 C 
BRANCH  14  15
ATOM     15  N   LIG    1       23.870 -13.677   3.781  0.00  0.00    -0.311 NA
ATOM     16  H   LIG    1       23.096 -13.666   3.109  0.00  0.00    +0.122 HD
BRANCH  15  18
ATOM     17  C   LIG    1       26.018 -14.100   2.704  0.00  0.00    +0.024 C 
ATOM     18  C   LIG    1       25.032 -13.026   3.169  0.00  0.00    +0.048 C 
ATOM     19  C   LIG    1       24.646 -12.145   1.980  0.00  0.00    +0.024 C 
ENDBRANCH  15  18
ENDBRANCH  14  15
ENDBRANCH  11  14
ENDBRANCH   1  11
TORSDOF 7
ENDMDL
MODEL 4
REMARK VINA RESULT:      -4.4      1.548      2.265
REMARK  Name = *****
REMARK                            x       y       z     vdW  Elec       q    Type
REMARK                         _______ _______ _______ _____ _____    ______ ____
ROOT
ATOM      1  C   LIG    1       25.905 -17.050   3.504  0.00  0.00    -0.014 A 
ATOM      2  C   LIG    1       24.752 -16.252   3.620  0.00  0.00    +0.055 A 
ATOM      3  C   LIG    1       24.877 -14.878   3.809  0.00  0.00    +0.159 A 
ATOM      4  C   LIG    1       26.128 -14.267   3.877  0.00  0.00    +0.158 A 
ATOM      5  C   LIG    1       27.279 -15.031   3.751  0.00  0.00    +0.049 A 
ATOM      6  C   LIG    1       27.160 -16.411   3.553  0.00  0.00    +0.010 A 
ENDROOT
BRANCH   3   7
ATOM      7  O   LIG    1       23.751 -14.118   3.934  0.00  0.00    -0.503 OA
ATOM      8  H   LIG    1       23.021 -14.767   3.995  0.00  0.00    +0.292 HD
ENDBRANCH   3   7
BRANCH   4   9
ATOM      9  O   LIG    1       26.181 -12.915   4.067  0.00  0.00    -0.503 OA
ATOM     10  H   LIG    1       27.111 -12.660   4.174  0.00  0.00    +0.292 HD
ENDBRANCH   4   9
BRANCH   1  11
ATOM     11  C   LIG    1       25.789 -18.556   3.310  0.00  0.00    +0.158 C 
BRANCH  11  12
ATOM     12  O   LIG    1       26.550 -19.247   4.307  0.00  0.00    -0.386 OA
ATOM     13  H   LIG    1       26.349 -18.836   5.163  0.00  0.00    +0.210 HD
ENDBRANCH  11  12
BRANCH  11  14
ATOM     14  C   LIG    1       24.327 -19.089   3.347  0.00  0.00    +0.117 C 
BRANCH  14  15
ATOM     15  N   LIG    1       24.085 -20.297   4.163  0.00  0.00    -0.311 NA
ATOM     16  H   LIG    1       24.001 -21.083   3.510  0.00  0.00    +0.122 HD
BRANCH  15  18
ATOM     17  C   LIG    1       23.236 -20.552   6.436  0.00  0.00    +0.024 C 
ATOM     18  C   LIG    1       22.872 -20.236   4.984  0.00  0.00    +0.048 C 
ATOM     19  C   LIG    1       22.193 -18.868   4.917  0.00  0.00    +0.024 C 
ENDBRANCH  15  18
ENDBRANCH  14  15
ENDBRANCH  11  14
ENDBRANCH   1  11
TORSDOF 7
ENDMDL
MODEL 5
REMARK VINA RESULT:      -4.3      1.334      1.894
REMARK  Name = *****
REMARK                            x       y       z     vdW  Elec       q    Type
REMARK                         _______ _______ _______ _____ _____    ______ ____
ROOT
ATOM      1  C   LIG    1       26.533 -15.487   3.870  0.00  0.00    -0.014 A 
ATOM      2  C   LIG    1       25.217 -15.020   3.693  0.00  0.00    +0.055 A 
ATOM      3  C   LIG    1       24.843 -13.786   4.217  0.00  0.00    +0.159 A 
ATOM      4  C   LIG    1       25.751 -12.989   4.911  0.00  0.00    +0.158 A 
ATOM      5  C   LIG    1       27.058 -13.420   5.086  0.00  0.00    +0.049 A 
ATOM      6  C   LIG    1       27.442 -14.656   4.555  0.00  0.00    +0.010 A 
ENDROOT
BRANCH   3   7
ATOM      7  O   LIG    1       23.560 -13.352   4.049  0.00  0.00    -0.503 OA
ATOM      8  H   LIG    1       23.073 -14.142   3.737  0.00  0.00    +0.292 HD
ENDBRANCH   3   7
BRANCH   4   9
ATOM      9  O   LIG    1       25.320 -11.789   5.402  0.00  0.00    -0.503 OA
ATOM     10  H   LIG    1       24.921 -11.943   6.273  0.00  0.00    +0.292 HD
ENDBRANCH   4   9
BRANCH   1  11
ATOM     11  C   LIG    1       26.958 -16.840   3.316  0.00  0.00    +0.158 C 
BRANCH  11  12
ATOM     12  O   LIG    1       28.016 -17.392   4.106  0.00  0.00    -0.386 OA
ATOM     13  H   LIG    1       27.956 -18.359   4.038  0.00  0.00    +0.210 HD
ENDBRANCH  11  12
BRANCH  11  14
ATOM     14  C   LIG    1       25.804 -17.883   3.238  0.00  0.00    +0.117 C 
BRANCH  14  15
ATOM     15  N   LIG    1       26.063 -19.201   3.853  0.00  0.00    -0.311 NA
ATOM     16  H   LIG    1       26.705 -19.698   3.228  0.00  0.00    +0.122 HD
BRANCH  15  18
ATOM     17  C   LIG    1       24.914 -20.663   5.433  0.00  0.00    +0.024 C 
ATOM     18  C   LIG    1       24.864 -20.022   4.044  0.00  0.00    +0.048 C 
ATOM     19  C   LIG    1       23.576 -19.210   3.907  0.00  0.00    +0.024 C 
ENDBRANCH  15  18
ENDBRANCH  14  15
ENDBRANCH  11  14
ENDBRANCH   1  11
TORSDOF 7
ENDMDL
MODEL 6
REMARK VINA RESULT:      -4.3      3.428      5.460
REMARK  Name = *****
REMARK                            x       y       z     vdW  Elec       q    Type
REMARK                         _______ _______ _______ _____ _____    ______ ____
ROOT
ATOM      1  C   LIG    1       25.004 -19.346   3.936  0.00  0.00    -0.014 A 
ATOM      2  C   LIG    1       23.778 -18.655   3.938  0.00  0.00    +0.055 A 
ATOM      3  C   LIG    1       22.605 -19.326   4.278  0.00  0.00    +0.159 A 
ATOM      4  C   LIG    1       22.619 -20.675   4.629  0.00  0.00    +0.158 A 
ATOM      5  C   LIG    1       23.817 -21.373   4.648  0.00  0.00    +0.049 A 
ATOM      6  C   LIG    1       25.000 -20.703   4.316  0.00  0.00    +0.010 A 
ENDROOT
BRANCH   3   7
ATOM      7  O   LIG    1       21.421 -18.648   4.262  0.00  0.00    -0.503 OA
ATOM      8  H   LIG    1       20.809 -19.233   3.770  0.00  0.00    +0.292 HD
ENDBRANCH   3   7
BRANCH   4   9
ATOM      9  O   LIG    1       21.434 -21.274   4.949  0.00  0.00    -0.503 OA
ATOM     10  H   LIG    1       21.373 -22.108   4.458  0.00  0.00    +0.292 HD
ENDBRANCH   4   9
BRANCH   1  11
ATOM     11  C   LIG    1       26.294 -18.633   3.555  0.00  0.00    +0.158 C 
BRANCH  11  12
ATOM     12  O   LIG    1       26.027 -17.270   3.208  0.00  0.00    -0.386 OA
ATOM     13  H   LIG    1       25.136 -17.056   3.530  0.00  0.00    +0.210 HD
ENDBRANCH  11  12
BRANCH  11  14
ATOM     14  C   LIG    1       27.383 -18.655   4.668  0.00  0.00    +0.117 C 
BRANCH  14  15
ATOM     15  N   LIG    1       27.832 -19.986   5.126  0.00  0.00    -0.311 NA
ATOM     16  H   LIG    1       27.120 -20.658   4.826  0.00  0.00    +0.122 HD
BRANCH  15  18
ATOM     17  C   LIG    1       27.338 -21.389   7.060  0.00  0.00    +0.024 C 
ATOM     18  C   LIG    1       28.001 -20.097   6.579  0.00  0.00    +0.048 C 
ATOM     19  C   LIG    1       29.472 -20.095   6.995  0.00  0.00    +0.024 C 
ENDBRANCH  15  18
ENDBRANCH  14  15
ENDBRANCH  11  14
ENDBRANCH   1  11
TORSDOF 7
ENDMDL
MODEL 7
REMARK VINA RESULT:      -4.3      2.592      3.784
REMARK  Name = *****
REMARK                            x       y       z     vdW  Elec       q    Type
REMARK                         _______ _______ _______ _____ _____    ______ ____
ROOT
ATOM      1  C   LIG    1       25.397 -14.200   4.005  0.00  0.00    -0.014 A 
ATOM      2  C   LIG    1       26.126 -13.552   5.019  0.00  0.00    +0.055 A 
ATOM      3  C   LIG    1       27.453 -13.193   4.796  0.00  0.00    +0.159 A 
ATOM      4  C   LIG    1       28.079 -13.453   3.579  0.00  0.00    +0.158 A 
ATOM      5  C   LIG    1       27.377 -14.078   2.559  0.00  0.00    +0.049 A 
ATOM      6  C   LIG    1       26.041 -14.435   2.774  0.00  0.00    +0.010 A 
ENDROOT
BRANCH   3   7
ATOM      7  O   LIG    1       28.153 -12.578   5.794  0.00  0.00    -0.503 OA
ATOM      8  H   LIG    1       27.470 -12.301   6.439  0.00  0.00    +0.292 HD
ENDBRANCH   3   7
BRANCH   4   9
ATOM      9  O   LIG    1       29.383 -13.077   3.426  0.00  0.00    -0.503 OA
ATOM     10  H   LIG    1       29.426 -12.410   2.723  0.00  0.00    +0.292 HD
ENDBRANCH   4   9
BRANCH   1  11
ATOM     11  C   LIG    1       23.949 -14.613   4.235  0.00  0.00    +0.158 C 
BRANCH  11  12
ATOM     12  O   LIG    1       23.087 -13.940   3.311  0.00  0.00    -0.386 OA
ATOM     13  H   LIG    1       23.556 -13.884   2.462  0.00  0.00    +0.210 HD
ENDBRANCH  11  12
BRANCH  11  14
ATOM     14  C   LIG    1       23.700 -16.145   4.115  0.00  0.00    +0.117 C 
BRANCH  14  15
ATOM     15  N   LIG    1       22.399 -16.643   4.607  0.00  0.00    -0.311 NA
ATOM     16  H   LIG    1       22.308 -16.326   5.577  0.00  0.00    +0.122 HD
BRANCH  15  18
ATOM     17  C   LIG    1       21.020 -18.470   3.761  0.00  0.00    +0.024 C 
ATOM     18  C   LIG    1       22.263 -18.103   4.576  0.00  0.00    +0.048 C 
ATOM     19  C   LIG    1       23.487 -18.788   3.969  0.00  0.00    +0.024 C 
ENDBRANCH  15  18
ENDBRANCH  14  15
ENDBRANCH  11  14
ENDBRANCH   1  11
TORSDOF 7
ENDMDL
MODEL 8
REMARK VINA RESULT:      -4.3      2.968      6.340
REMARK  Name = *****
REMARK                            x       y       z     vdW  Elec       q    Type
REMARK                         _______ _______ _______ _____ _____    ______ ____
ROOT
ATOM      1  C   LIG    1       25.111 -19.298   4.231  0.00  0.00    -0.014 A 
ATOM      2  C   LIG    1       25.746 -20.083   5.211  0.00  0.00    +0.055 A 
ATOM      3  C   LIG    1       24.980 -20.824   6.108  0.00  0.00    +0.159 A 
ATOM      4  C   LIG    1       23.588 -20.814   6.052  0.00  0.00    +0.158 A 
ATOM      5  C   LIG    1       22.940 -20.060   5.086  0.00  0.00    +0.049 A 
ATOM      6  C   LIG    1       23.703 -19.319   4.176  0.00  0.00    +0.010 A 
ENDROOT
BRANCH   3   7
ATOM      7  O   LIG    1       25.609 -21.570   7.062  0.00  0.00    -0.503 OA
ATOM      8  H   LIG    1       24.958 -22.259   7.304  0.00  0.00    +0.292 HD
ENDBRANCH   3   7
BRANCH   4   9
ATOM      9  O   LIG    1       22.897 -21.562   6.962  0.00  0.00    -0.503 OA
ATOM     10  H   LIG    1       22.259 -20.982   7.409  0.00  0.00    +0.292 HD
ENDBRANCH   4   9
BRANCH   1  11
ATOM     11  C   LIG    1       25.930 -18.470   3.250  0.00  0.00    +0.158 C 
BRANCH  11  12
ATOM     12  O   LIG    1       25.726 -18.937   1.911  0.00  0.00    -0.386 OA
ATOM     13  H   LIG    1       26.195 -19.784   1.824  0.00  0.00    +0.210 HD
ENDBRANCH  11  12
BRANCH  11  14
ATOM     14  C   LIG    1       25.619 -16.945   3.292  0.00  0.00    +0.117 C 
BRANCH  14  15
ATOM     15  N   LIG    1       26.781 -16.036   3.373  0.00  0.00    -0.311 NA
ATOM     16  H   LIG    1       27.167 -16.134   4.317  0.00  0.00    +0.122 HD
BRANCH  15  18
ATOM     17  C   LIG    1       25.295 -14.223   4.051  0.00  0.00    +0.024 C 
ATOM     18  C   LIG    1       26.458 -14.625   3.141  0.00  0.00    +0.048 C 
ATOM     19  C   LIG    1       27.650 -13.705   3.405  0.00  0.00    +0.024 C 
ENDBRANCH  15  18
ENDBRANCH  14  15
ENDBRANCH  11  14
ENDBRANCH   1  11
TORSDOF 7
ENDMDL
MODEL 9
REMARK VINA RESULT:      -4.2      2.874      6.071
REMARK  Name = *****
REMARK                            x       y       z     vdW  Elec       q    Type
REMARK                         _______ _______ _______ _____ _____    ______ ____
ROOT
ATOM      1  C   LIG    1       24.111 -17.867   3.851  0.00  0.00    -0.014 A 
ATOM      2  C   LIG    1       24.957 -18.992   3.867  0.00  0.00    +0.055 A 
ATOM      3  C   LIG    1       24.479 -20.211   4.341  0.00  0.00    +0.159 A 
ATOM      4  C   LIG    1       23.168 -20.349   4.794  0.00  0.00    +0.158 A 
ATOM      5  C   LIG    1       22.311 -19.258   4.774  0.00  0.00    +0.049 A 
ATOM      6  C   LIG    1       22.783 -18.032   4.292  0.00  0.00    +0.010 A 
ENDROOT
BRANCH   3   7
ATOM      7  O   LIG    1       25.314 -21.290   4.364  0.00  0.00    -0.503 OA
ATOM      8  H   LIG    1       24.882 -21.949   3.782  0.00  0.00    +0.292 HD
ENDBRANCH   3   7
BRANCH   4   9
ATOM      9  O   LIG    1       22.763 -21.572   5.247  0.00  0.00    -0.503 OA
ATOM     10  H   LIG    1       23.527 -22.016   5.646  0.00  0.00    +0.292 HD
ENDBRANCH   4   9
BRANCH   1  11
ATOM     11  C   LIG    1       24.619 -16.522   3.350  0.00  0.00    +0.158 C 
BRANCH  11  12
ATOM     12  O   LIG    1       24.017 -15.454   4.089  0.00  0.00    -0.386 OA
ATOM     13  H   LIG    1       23.870 -15.774   4.995  0.00  0.00    +0.210 HD
ENDBRANCH  11  12
BRANCH  11  14
ATOM     14  C   LIG    1       26.166 -16.362   3.423  0.00  0.00    +0.117 C 
BRANCH  14  15
ATOM     15  N   LIG    1       26.708 -15.028   3.092  0.00  0.00    -0.311 NA
ATOM     16  H   LIG    1       27.321 -15.151   2.280  0.00  0.00    +0.122 HD
BRANCH  15  18
ATOM     17  C   LIG    1       28.430 -13.368   3.573  0.00  0.00    +0.024 C 
ATOM     18  C   LIG    1       27.480 -14.407   4.173  0.00  0.00    +0.048 C 
ATOM     19  C   LIG    1       26.585 -13.735   5.214  0.00  0.00    +0.024 C 
ENDBRANCH  15  18
ENDBRANCH  14  15
ENDBRANCH  11  14
ENDBRANCH   1  11
TORSDOF 7
ENDMDL
