MODEL 1
REMARK VINA RESULT:      -7.4      0.000      0.000
REMARK  Name = *****
REMARK                            x       y       z     vdW  Elec       q    Type
REMARK                         _______ _______ _______ _____ _____    ______ ____
ROOT
ATOM      1  C   LIG    1       25.553 -21.062   8.160  0.00  0.00    +0.350 C 
ATOM      2  O   LIG    1       25.479 -21.112   9.379  0.00  0.00    -0.247 OA
ENDROOT
BRANCH   1   3
ATOM      3  O   LIG    1       26.593 -20.474   7.491  0.00  0.00    -0.458 OA
BRANCH   3  12
ATOM      4  C   LIG    1       29.562 -18.468   6.033  0.00  0.00    +0.193 C 
ATOM      5  N   LIG    1       30.371 -19.294   7.025  0.00  0.00    +0.247 N 
ATOM      6  C   LIG    1       31.834 -18.862   6.837  0.00  0.00    +0.193 C 
ATOM      7  C   LIG    1       29.952 -19.160   8.514  0.00  0.00    +0.102 C 
ATOM      8  C   LIG    1       30.705 -20.275   9.225  0.00  0.00    +0.201 C 
ATOM      9  C   LIG    1       30.899 -21.364   8.191  0.00  0.00    +0.201 C 
ATOM     10  O   LIG    1       30.100 -21.556   9.356  0.00  0.00    -0.357 OA
ATOM     11  C   LIG    1       28.427 -19.352   8.601  0.00  0.00    +0.102 C 
ATOM     12  C   LIG    1       27.927 -20.684   7.985  0.00  0.00    +0.187 C 
ATOM     13  C   LIG    1       28.779 -21.225   6.823  0.00  0.00    +0.102 C 
ATOM     14  C   LIG    1       30.259 -20.842   6.912  0.00  0.00    +0.102 C 
ENDBRANCH   3  12
ENDBRANCH   1   3
BRANCH   1  15
ATOM     15  C   LIG    1       24.465 -21.606   7.170  0.00  0.00    +0.226 C 
BRANCH  15  16
ATOM     16  C   LIG    1       24.694 -23.096   6.913  0.00  0.00    +0.037 A 
ATOM     17  S   LIG    1       23.388 -24.170   6.553  0.00  0.00    -0.098 S 
ATOM     18  C   LIG    1       24.425 -25.506   6.345  0.00  0.00    +0.045 A 
ATOM     19  C   LIG    1       25.738 -25.180   6.585  0.00  0.00    +0.008 A 
ATOM     20  C   LIG    1       25.892 -23.801   6.914  0.00  0.00    +0.015 A 
ENDBRANCH  15  16
BRANCH  15  21
ATOM     21  C   LIG    1       24.346 -20.747   5.905  0.00  0.00    +0.037 A 
ATOM     22  S   LIG    1       22.867 -19.997   5.419  0.00  0.00    -0.098 S 
ATOM     23  C   LIG    1       23.537 -19.351   4.002  0.00  0.00    +0.045 A 
ATOM     24  C   LIG    1       24.874 -19.640   3.894  0.00  0.00    +0.008 A 
ATOM     25  C   LIG    1       25.340 -20.437   4.984  0.00  0.00    +0.015 A 
ENDBRANCH  15  21
BRANCH  15  26
ATOM     26  O   LIG    1       23.179 -21.517   7.815  0.00  0.00    -0.369 OA
ATOM     27  H   LIG    1       22.571 -22.086   7.312  0.00  0.00    +0.212 HD
ENDBRANCH  15  26
ENDBRANCH   1  15
TORSDOF 6
ENDMDL
MODEL 2
REMARK VINA RESULT:      -7.0      1.202      2.112
REMARK  Name = *****
REMARK                            x       y       z     vdW  Elec       q    Type
REMARK                         _______ _______ _______ _____ _____    ______ ____
ROOT
ATOM      1  C   LIG    1       25.607 -21.056   7.988  0.00  0.00    +0.350 C 
ATOM      2  O   LIG    1       25.534 -20.333   8.971  0.00  0.00    -0.247 OA
ENDROOT
BRANCH   1   3
ATOM      3  O   LIG    1       26.792 -21.429   7.412  0.00  0.00    -0.458 OA
BRANCH   3  12
ATOM      4  C   LIG    1       30.265 -21.591   9.107  0.00  0.00    +0.193 C 
ATOM      5  N   LIG    1       30.497 -20.294   8.344  0.00  0.00    +0.247 N 
ATOM      6  C   LIG    1       31.917 -19.835   8.715  0.00  0.00    +0.193 C 
ATOM      7  C   LIG    1       30.340 -20.380   6.801  0.00  0.00    +0.102 C 
ATOM      8  C   LIG    1       30.337 -18.932   6.334  0.00  0.00    +0.201 C 
ATOM      9  C   LIG    1       29.781 -18.128   7.491  0.00  0.00    +0.201 C 
ATOM     10  O   LIG    1       29.104 -18.229   6.241  0.00  0.00    -0.357 OA
ATOM     11  C   LIG    1       29.006 -21.085   6.496  0.00  0.00    +0.102 C 
ATOM     12  C   LIG    1       27.776 -20.411   7.157  0.00  0.00    +0.187 C 
ATOM     13  C   LIG    1       28.064 -19.692   8.487  0.00  0.00    +0.102 C 
ATOM     14  C   LIG    1       29.487 -19.137   8.594  0.00  0.00    +0.102 C 
ENDBRANCH   3  12
ENDBRANCH   1   3
BRANCH   1  15
ATOM     15  C   LIG    1       24.378 -21.629   7.200  0.00  0.00    +0.226 C 
BRANCH  15  16
ATOM     16  C   LIG    1       24.600 -23.110   6.893  0.00  0.00    +0.037 A 
ATOM     17  S   LIG    1       23.284 -24.178   6.553  0.00  0.00    -0.098 S 
ATOM     18  C   LIG    1       24.316 -25.505   6.270  0.00  0.00    +0.045 A 
ATOM     19  C   LIG    1       25.636 -25.181   6.471  0.00  0.00    +0.008 A 
ATOM     20  C   LIG    1       25.799 -23.811   6.831  0.00  0.00    +0.015 A 
ENDBRANCH  15  16
BRANCH  15  21
ATOM     21  C   LIG    1       24.015 -20.769   5.982  0.00  0.00    +0.037 A 
ATOM     22  S   LIG    1       25.059 -20.593   4.617  0.00  0.00    -0.098 S 
ATOM     23  C   LIG    1       24.018 -19.513   3.826  0.00  0.00    +0.045 A 
ATOM     24  C   LIG    1       22.863 -19.308   4.539  0.00  0.00    +0.008 A 
ATOM     25  C   LIG    1       22.858 -20.027   5.772  0.00  0.00    +0.015 A 
ENDBRANCH  15  21
BRANCH  15  26
ATOM     26  O   LIG    1       23.224 -21.580   8.061  0.00  0.00    -0.369 OA
ATOM     27  H   LIG    1       22.566 -22.192   7.686  0.00  0.00    +0.212 HD
ENDBRANCH  15  26
ENDBRANCH   1  15
TORSDOF 6
ENDMDL
MODEL 3
REMARK VINA RESULT:      -6.0      1.456      3.876
REMARK  Name = *****
REMARK                            x       y       z     vdW  Elec       q    Type
REMARK                         _______ _______ _______ _____ _____    ______ ____
ROOT
ATOM      1  C   LIG    1       25.553 -20.975   7.370  0.00  0.00    +0.350 C 
ATOM      2  O   LIG    1       24.862 -20.343   8.157  0.00  0.00    -0.247 OA
ENDROOT
BRANCH   1   3
ATOM      3  O   LIG    1       26.860 -21.307   7.614  0.00  0.00    -0.458 OA
BRANCH   3  12
ATOM      4  C   LIG    1       30.337 -21.537   9.291  0.00  0.00    +0.193 C 
ATOM      5  N   LIG    1       30.609 -20.276   8.483  0.00  0.00    +0.247 N 
ATOM      6  C   LIG    1       32.047 -19.856   8.830  0.00  0.00    +0.193 C 
ATOM      7  C   LIG    1       30.438 -20.408   6.946  0.00  0.00    +0.102 C 
ATOM      8  C   LIG    1       30.483 -18.977   6.431  0.00  0.00    +0.201 C 
ATOM      9  C   LIG    1       29.964 -18.115   7.563  0.00  0.00    +0.201 C 
ATOM     10  O   LIG    1       29.275 -18.234   6.322  0.00  0.00    -0.357 OA
ATOM     11  C   LIG    1       29.077 -21.073   6.673  0.00  0.00    +0.102 C 
ATOM     12  C   LIG    1       27.877 -20.334   7.319  0.00  0.00    +0.187 C 
ATOM     13  C   LIG    1       28.200 -19.583   8.622  0.00  0.00    +0.102 C 
ATOM     14  C   LIG    1       29.643 -19.075   8.701  0.00  0.00    +0.102 C 
ENDBRANCH   3  12
ENDBRANCH   1   3
BRANCH   1  15
ATOM     15  C   LIG    1       25.090 -21.458   5.953  0.00  0.00    +0.226 C 
BRANCH  15  16
ATOM     16  C   LIG    1       24.106 -20.451   5.355  0.00  0.00    +0.037 A 
ATOM     17  S   LIG    1       24.483 -19.540   3.936  0.00  0.00    -0.098 S 
ATOM     18  C   LIG    1       22.956 -18.784   3.905  0.00  0.00    +0.045 A 
ATOM     19  C   LIG    1       22.174 -19.164   4.969  0.00  0.00    +0.008 A 
ATOM     20  C   LIG    1       22.833 -20.115   5.802  0.00  0.00    +0.015 A 
ENDBRANCH  15  16
BRANCH  15  21
ATOM     21  C   LIG    1       24.594 -22.909   5.965  0.00  0.00    +0.037 A 
ATOM     22  S   LIG    1       23.184 -23.409   6.831  0.00  0.00    -0.098 S 
ATOM     23  C   LIG    1       23.373 -25.040   6.409  0.00  0.00    +0.045 A 
ATOM     24  C   LIG    1       24.453 -25.229   5.582  0.00  0.00    +0.008 A 
ATOM     25  C   LIG    1       25.152 -24.011   5.326  0.00  0.00    +0.015 A 
ENDBRANCH  15  21
BRANCH  15  26
ATOM     26  O   LIG    1       26.232 -21.451   5.075  0.00  0.00    -0.369 OA
ATOM     27  H   LIG    1       26.705 -22.289   5.221  0.00  0.00    +0.212 HD
ENDBRANCH  15  26
ENDBRANCH   1  15
TORSDOF 6
ENDMDL
MODEL 4
REMARK VINA RESULT:      -6.0      1.034      3.397
REMARK  Name = *****
REMARK                            x       y       z     vdW  Elec       q    Type
REMARK                         _______ _______ _______ _____ _____    ______ ____
ROOT
ATOM      1  C   LIG    1       25.700 -21.147   7.846  0.00  0.00    +0.350 C 
ATOM      2  O   LIG    1       25.210 -21.525   8.901  0.00  0.00    -0.247 OA
ENDROOT
BRANCH   1   3
ATOM      3  O   LIG    1       26.644 -20.158   7.765  0.00  0.00    -0.458 OA
BRANCH   3  12
ATOM      4  C   LIG    1       29.694 -18.469   6.090  0.00  0.00    +0.193 C 
ATOM      5  N   LIG    1       30.479 -19.310   7.087  0.00  0.00    +0.247 N 
ATOM      6  C   LIG    1       31.962 -19.007   6.817  0.00  0.00    +0.193 C 
ATOM      7  C   LIG    1       30.139 -19.075   8.584  0.00  0.00    +0.102 C 
ATOM      8  C   LIG    1       30.833 -20.213   9.317  0.00  0.00    +0.201 C 
ATOM      9  C   LIG    1       30.894 -21.361   8.332  0.00  0.00    +0.201 C 
ATOM     10  O   LIG    1       30.136 -21.433   9.536  0.00  0.00    -0.357 OA
ATOM     11  C   LIG    1       28.609 -19.138   8.742  0.00  0.00    +0.102 C 
ATOM     12  C   LIG    1       27.978 -20.452   8.214  0.00  0.00    +0.187 C 
ATOM     13  C   LIG    1       28.732 -21.114   7.047  0.00  0.00    +0.102 C 
ATOM     14  C   LIG    1       30.241 -20.848   7.055  0.00  0.00    +0.102 C 
ENDBRANCH   3  12
ENDBRANCH   1   3
BRANCH   1  15
ATOM     15  C   LIG    1       25.301 -21.681   6.427  0.00  0.00    +0.226 C 
BRANCH  15  16
ATOM     16  C   LIG    1       24.306 -20.724   5.770  0.00  0.00    +0.037 A 
ATOM     17  S   LIG    1       24.606 -20.019   4.221  0.00  0.00    -0.098 S 
ATOM     18  C   LIG    1       23.103 -19.216   4.195  0.00  0.00    +0.045 A 
ATOM     19  C   LIG    1       22.389 -19.424   5.350  0.00  0.00    +0.008 A 
ATOM     20  C   LIG    1       23.079 -20.285   6.254  0.00  0.00    +0.015 A 
ENDBRANCH  15  16
BRANCH  15  21
ATOM     21  C   LIG    1       24.853 -23.148   6.462  0.00  0.00    +0.037 A 
ATOM     22  S   LIG    1       25.968 -24.467   6.439  0.00  0.00    -0.098 S 
ATOM     23  C   LIG    1       24.743 -25.641   6.432  0.00  0.00    +0.045 A 
ATOM     24  C   LIG    1       23.495 -25.072   6.496  0.00  0.00    +0.008 A 
ATOM     25  C   LIG    1       23.555 -23.646   6.515  0.00  0.00    +0.015 A 
ENDBRANCH  15  21
BRANCH  15  26
ATOM     26  O   LIG    1       26.472 -21.659   5.588  0.00  0.00    -0.369 OA
ATOM     27  H   LIG    1       26.304 -22.273   4.853  0.00  0.00    +0.212 HD
ENDBRANCH  15  26
ENDBRANCH   1  15
TORSDOF 6
ENDMDL
MODEL 5
REMARK VINA RESULT:      -6.0      1.690      2.386
REMARK  Name = *****
REMARK                            x       y       z     vdW  Elec       q    Type
REMARK                         _______ _______ _______ _____ _____    ______ ____
ROOT
ATOM      1  C   LIG    1       26.900 -20.404   6.326  0.00  0.00    +0.350 C 
ATOM      2  O   LIG    1       27.427 -20.315   5.225  0.00  0.00    -0.247 OA
ENDROOT
BRANCH   1   3
ATOM      3  O   LIG    1       27.531 -20.064   7.493  0.00  0.00    -0.458 OA
BRANCH   3  12
ATOM      4  C   LIG    1       29.320 -18.155  10.342  0.00  0.00    +0.193 C 
ATOM      5  N   LIG    1       30.564 -18.456   9.517  0.00  0.00    +0.247 N 
ATOM      6  C   LIG    1       31.738 -17.819  10.279  0.00  0.00    +0.193 C 
ATOM      7  C   LIG    1       30.845 -19.958   9.243  0.00  0.00    +0.102 C 
ATOM      8  C   LIG    1       31.943 -19.957   8.190  0.00  0.00    +0.201 C 
ATOM      9  C   LIG    1       31.760 -18.673   7.408  0.00  0.00    +0.201 C 
ATOM     10  O   LIG    1       31.590 -19.956   6.812  0.00  0.00    -0.357 OA
ATOM     11  C   LIG    1       29.547 -20.599   8.720  0.00  0.00    +0.102 C 
ATOM     12  C   LIG    1       28.959 -19.893   7.471  0.00  0.00    +0.187 C 
ATOM     13  C   LIG    1       29.250 -18.384   7.379  0.00  0.00    +0.102 C 
ATOM     14  C   LIG    1       30.568 -17.968   8.040  0.00  0.00    +0.102 C 
ENDBRANCH   3  12
ENDBRANCH   1   3
BRANCH   1  15
ATOM     15  C   LIG    1       25.458 -20.959   6.590  0.00  0.00    +0.226 C 
BRANCH  15  16
ATOM     16  C   LIG    1       25.467 -22.486   6.514  0.00  0.00    +0.037 A 
ATOM     17  S   LIG    1       24.744 -23.338   5.196  0.00  0.00    -0.098 S 
ATOM     18  C   LIG    1       25.222 -24.859   5.797  0.00  0.00    +0.045 A 
ATOM     19  C   LIG    1       25.878 -24.753   6.999  0.00  0.00    +0.008 A 
ATOM     20  C   LIG    1       26.015 -23.395   7.412  0.00  0.00    +0.015 A 
ENDBRANCH  15  16
BRANCH  15  21
ATOM     21  C   LIG    1       24.402 -20.279   5.710  0.00  0.00    +0.037 A 
ATOM     22  S   LIG    1       24.758 -19.644   4.143  0.00  0.00    -0.098 S 
ATOM     23  C   LIG    1       23.185 -19.055   3.907  0.00  0.00    +0.045 A 
ATOM     24  C   LIG    1       22.364 -19.363   4.963  0.00  0.00    +0.008 A 
ATOM     25  C   LIG    1       23.058 -20.066   5.995  0.00  0.00    +0.015 A 
ENDBRANCH  15  21
BRANCH  15  26
ATOM     26  O   LIG    1       25.090 -20.640   7.945  0.00  0.00    -0.369 OA
ATOM     27  H   LIG    1       24.502 -19.866   7.904  0.00  0.00    +0.212 HD
ENDBRANCH  15  26
ENDBRANCH   1  15
TORSDOF 6
ENDMDL
MODEL 6
REMARK VINA RESULT:      -5.9      7.150      9.537
REMARK  Name = *****
REMARK                            x       y       z     vdW  Elec       q    Type
REMARK                         _______ _______ _______ _____ _____    ______ ____
ROOT
ATOM      1  C   LIG    1       25.841 -30.192   8.782  0.00  0.00    +0.350 C 
ATOM      2  O   LIG    1       26.829 -30.913   8.754  0.00  0.00    -0.247 OA
ENDROOT
BRANCH   1   3
ATOM      3  O   LIG    1       25.383 -29.584   9.921  0.00  0.00    -0.458 OA
BRANCH   3  12
ATOM      4  C   LIG    1       24.317 -27.712  13.134  0.00  0.00    +0.193 C 
ATOM      5  N   LIG    1       25.643 -28.242  13.664  0.00  0.00    +0.247 N 
ATOM      6  C   LIG    1       25.763 -27.710  15.102  0.00  0.00    +0.193 C 
ATOM      7  C   LIG    1       25.811 -29.785  13.640  0.00  0.00    +0.102 C 
ATOM      8  C   LIG    1       27.285 -30.014  13.940  0.00  0.00    +0.201 C 
ATOM      9  C   LIG    1       28.005 -28.783  13.430  0.00  0.00    +0.201 C 
ATOM     10  O   LIG    1       28.217 -30.075  12.867  0.00  0.00    -0.357 OA
ATOM     11  C   LIG    1       25.427 -30.286  12.236  0.00  0.00    +0.102 C 
ATOM     12  C   LIG    1       26.220 -29.608  11.090  0.00  0.00    +0.187 C 
ATOM     13  C   LIG    1       26.671 -28.164  11.375  0.00  0.00    +0.102 C 
ATOM     14  C   LIG    1       26.923 -27.877  12.858  0.00  0.00    +0.102 C 
ENDBRANCH   3  12
ENDBRANCH   1   3
BRANCH   1  15
ATOM     15  C   LIG    1       24.916 -29.887   7.554  0.00  0.00    +0.226 C 
BRANCH  15  16
ATOM     16  C   LIG    1       25.003 -31.028   6.540  0.00  0.00    +0.037 A 
ATOM     17  S   LIG    1       23.837 -32.303   6.500  0.00  0.00    -0.098 S 
ATOM     18  C   LIG    1       24.562 -33.046   5.148  0.00  0.00    +0.045 A 
ATOM     19  C   LIG    1       25.696 -32.384   4.746  0.00  0.00    +0.008 A 
ATOM     20  C   LIG    1       25.952 -31.231   5.544  0.00  0.00    +0.015 A 
ENDBRANCH  15  16
BRANCH  15  21
ATOM     21  C   LIG    1       25.163 -28.490   6.971  0.00  0.00    +0.037 A 
ATOM     22  S   LIG    1       24.359 -27.911   5.555  0.00  0.00    -0.098 S 
ATOM     23  C   LIG    1       25.190 -26.433   5.558  0.00  0.00    +0.045 A 
ATOM     24  C   LIG    1       26.037 -26.329   6.633  0.00  0.00    +0.008 A 
ATOM     25  C   LIG    1       26.022 -27.504   7.444  0.00  0.00    +0.015 A 
ENDBRANCH  15  21
BRANCH  15  26
ATOM     26  O   LIG    1       23.548 -29.875   8.007  0.00  0.00    -0.369 OA
ATOM     27  H   LIG    1       23.574 -29.823   8.979  0.00  0.00    +0.212 HD
ENDBRANCH  15  26
ENDBRANCH   1  15
TORSDOF 6
ENDMDL
MODEL 7
REMARK VINA RESULT:      -5.7      7.394     10.062
REMARK  Name = *****
REMARK                            x       y       z     vdW  Elec       q    Type
REMARK                         _______ _______ _______ _____ _____    ______ ____
ROOT
ATOM      1  C   LIG    1       24.494 -30.185   9.290  0.00  0.00    +0.350 C 
ATOM      2  O   LIG    1       23.283 -30.016   9.315  0.00  0.00    -0.247 OA
ENDROOT
BRANCH   1   3
ATOM      3  O   LIG    1       25.262 -30.311  10.418  0.00  0.00    -0.458 OA
BRANCH   3  12
ATOM      4  C   LIG    1       28.198 -29.628  12.841  0.00  0.00    +0.193 C 
ATOM      5  N   LIG    1       27.238 -28.602  13.427  0.00  0.00    +0.247 N 
ATOM      6  C   LIG    1       27.984 -27.953  14.604  0.00  0.00    +0.193 C 
ATOM      7  C   LIG    1       26.727 -27.516  12.442  0.00  0.00    +0.102 C 
ATOM      8  C   LIG    1       25.596 -26.823  13.189  0.00  0.00    +0.201 C 
ATOM      9  C   LIG    1       25.027 -27.863  14.130  0.00  0.00    +0.201 C 
ATOM     10  O   LIG    1       24.267 -27.312  13.058  0.00  0.00    -0.357 OA
ATOM     11  C   LIG    1       26.225 -28.223  11.170  0.00  0.00    +0.102 C 
ATOM     12  C   LIG    1       25.146 -29.303  11.437  0.00  0.00    +0.187 C 
ATOM     13  C   LIG    1       25.249 -30.003  12.804  0.00  0.00    +0.102 C 
ATOM     14  C   LIG    1       25.851 -29.124  13.904  0.00  0.00    +0.102 C 
ENDBRANCH   3  12
ENDBRANCH   1   3
BRANCH   1  15
ATOM     15  C   LIG    1       25.369 -30.233   7.989  0.00  0.00    +0.226 C 
BRANCH  15  16
ATOM     16  C   LIG    1       25.218 -28.926   7.212  0.00  0.00    +0.037 A 
ATOM     17  S   LIG    1       24.235 -28.816   5.795  0.00  0.00    -0.098 S 
ATOM     18  C   LIG    1       24.529 -27.148   5.609  0.00  0.00    +0.045 A 
ATOM     19  C   LIG    1       25.393 -26.670   6.565  0.00  0.00    +0.008 A 
ATOM     20  C   LIG    1       25.791 -27.688   7.480  0.00  0.00    +0.015 A 
ENDBRANCH  15  16
BRANCH  15  21
ATOM     21  C   LIG    1       25.117 -31.503   7.166  0.00  0.00    +0.037 A 
ATOM     22  S   LIG    1       26.296 -32.171   6.094  0.00  0.00    -0.098 S 
ATOM     23  C   LIG    1       25.272 -33.418   5.574  0.00  0.00    +0.045 A 
ATOM     24  C   LIG    1       24.063 -33.386   6.222  0.00  0.00    +0.008 A 
ATOM     25  C   LIG    1       23.972 -32.292   7.135  0.00  0.00    +0.015 A 
ENDBRANCH  15  21
BRANCH  15  26
ATOM     26  O   LIG    1       26.755 -30.297   8.377  0.00  0.00    -0.369 OA
ATOM     27  H   LIG    1       26.895 -29.598   9.039  0.00  0.00    +0.212 HD
ENDBRANCH  15  26
ENDBRANCH   1  15
TORSDOF 6
ENDMDL
MODEL 8
REMARK VINA RESULT:      -5.6      7.346     10.034
REMARK  Name = *****
REMARK                            x       y       z     vdW  Elec       q    Type
REMARK                         _______ _______ _______ _____ _____    ______ ____
ROOT
ATOM      1  C   LIG    1       23.929 -30.372   8.452  0.00  0.00    +0.350 C 
ATOM      2  O   LIG    1       22.928 -31.008   8.751  0.00  0.00    -0.247 OA
ENDROOT
BRANCH   1   3
ATOM      3  O   LIG    1       24.680 -29.676   9.362  0.00  0.00    -0.458 OA
BRANCH   3  12
ATOM      4  C   LIG    1       26.281 -27.559  12.175  0.00  0.00    +0.193 C 
ATOM      5  N   LIG    1       25.996 -28.794  13.018  0.00  0.00    +0.247 N 
ATOM      6  C   LIG    1       26.521 -28.471  14.427  0.00  0.00    +0.193 C 
ATOM      7  C   LIG    1       24.510 -29.240  13.082  0.00  0.00    +0.102 C 
ATOM      8  C   LIG    1       24.551 -30.618  13.727  0.00  0.00    +0.201 C 
ATOM      9  C   LIG    1       25.900 -31.202  13.364  0.00  0.00    +0.201 C 
ATOM     10  O   LIG    1       24.677 -31.772  12.906  0.00  0.00    -0.357 OA
ATOM     11  C   LIG    1       23.967 -29.297  11.642  0.00  0.00    +0.102 C 
ATOM     12  C   LIG    1       24.794 -30.203  10.695  0.00  0.00    +0.187 C 
ATOM     13  C   LIG    1       26.292 -30.303  11.034  0.00  0.00    +0.102 C 
ATOM     14  C   LIG    1       26.600 -30.140  12.526  0.00  0.00    +0.102 C 
ENDBRANCH   3  12
ENDBRANCH   1   3
BRANCH   1  15
ATOM     15  C   LIG    1       24.485 -30.203   6.996  0.00  0.00    +0.226 C 
BRANCH  15  16
ATOM     16  C   LIG    1       25.544 -31.269   6.716  0.00  0.00    +0.037 A 
ATOM     17  S   LIG    1       25.840 -31.864   5.120  0.00  0.00    -0.098 S 
ATOM     18  C   LIG    1       27.112 -32.875   5.635  0.00  0.00    +0.045 A 
ATOM     19  C   LIG    1       27.296 -32.816   6.995  0.00  0.00    +0.008 A 
ATOM     20  C   LIG    1       26.397 -31.900   7.615  0.00  0.00    +0.015 A 
ENDBRANCH  15  16
BRANCH  15  21
ATOM     21  C   LIG    1       24.931 -28.764   6.705  0.00  0.00    +0.037 A 
ATOM     22  S   LIG    1       24.398 -27.882   5.318  0.00  0.00    -0.098 S 
ATOM     23  C   LIG    1       25.337 -26.520   5.692  0.00  0.00    +0.045 A 
ATOM     24  C   LIG    1       26.018 -26.681   6.873  0.00  0.00    +0.008 A 
ATOM     25  C   LIG    1       25.785 -27.964   7.456  0.00  0.00    +0.015 A 
ENDBRANCH  15  21
BRANCH  15  26
ATOM     26  O   LIG    1       23.415 -30.467   6.068  0.00  0.00    -0.369 OA
ATOM     27  H   LIG    1       23.222 -29.628   5.613  0.00  0.00    +0.212 HD
ENDBRANCH  15  26
ENDBRANCH   1  15
TORSDOF 6
ENDMDL
MODEL 9
REMARK VINA RESULT:      -5.3      7.973      9.990
REMARK  Name = *****
REMARK                            x       y       z     vdW  Elec       q    Type
REMARK                         _______ _______ _______ _____ _____    ______ ____
ROOT
ATOM      1  C   LIG    1       26.507 -29.533   9.906  0.00  0.00    +0.350 C 
ATOM      2  O   LIG    1       27.730 -29.520   9.873  0.00  0.00    -0.247 OA
ENDROOT
BRANCH   1   3
ATOM      3  O   LIG    1       25.772 -28.872  10.853  0.00  0.00    -0.458 OA
BRANCH   3  12
ATOM      4  C   LIG    1       24.023 -26.536  13.392  0.00  0.00    +0.193 C 
ATOM      5  N   LIG    1       25.283 -26.781  14.211  0.00  0.00    +0.247 N 
ATOM      6  C   LIG    1       25.115 -25.959  15.499  0.00  0.00    +0.193 C 
ATOM      7  C   LIG    1       25.591 -28.265  14.549  0.00  0.00    +0.102 C 
ATOM      8  C   LIG    1       27.009 -28.246  15.100  0.00  0.00    +0.201 C 
ATOM      9  C   LIG    1       27.691 -27.064  14.442  0.00  0.00    +0.201 C 
ATOM     10  O   LIG    1       28.108 -28.407  14.211  0.00  0.00    -0.357 OA
ATOM     11  C   LIG    1       25.492 -29.081  13.247  0.00  0.00    +0.102 C 
ATOM     12  C   LIG    1       26.401 -28.556  12.107  0.00  0.00    +0.187 C 
ATOM     13  C   LIG    1       26.667 -27.041  12.132  0.00  0.00    +0.102 C 
ATOM     14  C   LIG    1       26.642 -26.431  13.537  0.00  0.00    +0.102 C 
ENDBRANCH   3  12
ENDBRANCH   1   3
BRANCH   1  15
ATOM     15  C   LIG    1       25.590 -30.334   8.919  0.00  0.00    +0.226 C 
BRANCH  15  16
ATOM     16  C   LIG    1       25.246 -29.468   7.707  0.00  0.00    +0.037 A 
ATOM     17  S   LIG    1       24.585 -30.145   6.260  0.00  0.00    -0.098 S 
ATOM     18  C   LIG    1       24.437 -28.624   5.508  0.00  0.00    +0.045 A 
ATOM     19  C   LIG    1       24.917 -27.610   6.301  0.00  0.00    +0.008 A 
ATOM     20  C   LIG    1       25.384 -28.093   7.559  0.00  0.00    +0.015 A 
ENDBRANCH  15  16
BRANCH  15  21
ATOM     21  C   LIG    1       24.380 -30.958   9.626  0.00  0.00    +0.037 A 
ATOM     22  S   LIG    1       24.484 -32.417  10.546  0.00  0.00    -0.098 S 
ATOM     23  C   LIG    1       22.825 -32.441  10.895  0.00  0.00    +0.045 A 
ATOM     24  C   LIG    1       22.181 -31.344  10.377  0.00  0.00    +0.008 A 
ATOM     25  C   LIG    1       23.069 -30.494   9.652  0.00  0.00    +0.015 A 
ENDBRANCH  15  21
BRANCH  15  26
ATOM     26  O   LIG    1       26.345 -31.446   8.400  0.00  0.00    -0.369 OA
ATOM     27  H   LIG    1       25.723 -31.996   7.891  0.00  0.00    +0.212 HD
ENDBRANCH  15  26
ENDBRANCH   1  15
TORSDOF 6
ENDMDL
