MODEL 1
REMARK VINA RESULT:      -9.8      0.000      0.000
REMARK  Name = *****
REMARK                            x       y       z     vdW  Elec       q    Type
REMARK                         _______ _______ _______ _____ _____    ______ ____
ROOT
ATOM      1  N   LIG    1       24.770 -21.503   7.143  0.00  0.00    -0.327 N 
ATOM      2  C   LIG    1       25.522 -20.275   7.480  0.00  0.00    +0.120 C 
ATOM      3  C   LIG    1       26.385 -20.536   8.741  0.00  0.00    +0.103 C 
ATOM      4  N   LIG    1       27.330 -21.674   8.640  0.00  0.00    -0.299 NA
ATOM      5  C   LIG    1       26.552 -22.869   8.210  0.00  0.00    +0.103 C 
ATOM      6  C   LIG    1       25.651 -22.674   6.957  0.00  0.00    +0.120 C 
ENDROOT
BRANCH   1   9
ATOM      7  C   LIG    1       22.319 -19.841   4.877  0.00  0.00    +0.057 A 
ATOM      8  C   LIG    1       23.448 -20.094   5.684  0.00  0.00    +0.035 A 
ATOM      9  C   LIG    1       23.662 -21.334   6.312  0.00  0.00    +0.030 A 
ATOM     10  C   LIG    1       22.698 -22.327   6.099  0.00  0.00    +0.023 A 
ATOM     11  C   LIG    1       21.579 -22.102   5.289  0.00  0.00    +0.002 A 
ATOM     12  C   LIG    1       21.387 -20.865   4.681  0.00  0.00    +0.012 A 
BRANCH   7  14
ATOM     13  F   LIG    1       22.071 -17.465   5.154  0.00  0.00    -0.166 F 
ATOM     14  C   LIG    1       22.130 -18.484   4.250  0.00  0.00    +0.417 C 
ATOM     15  F   LIG    1       23.134 -18.155   3.389  0.00  0.00    -0.166 F 
ATOM     16  F   LIG    1       20.977 -18.400   3.527  0.00  0.00    -0.166 F 
ENDBRANCH   7  14
ENDBRANCH   1   9
BRANCH   4  17
ATOM     17  C   LIG    1       28.453 -21.432   7.712  0.00  0.00    +0.092 C 
BRANCH  17  18
ATOM     18  C   LIG    1       28.590 -19.965   7.272  0.00  0.00    +0.091 C 
BRANCH  18  19
ATOM     19  C   LIG    1       29.956 -19.444   7.523  0.00  0.00    +0.135 A 
ATOM     20  N   LIG    1       30.331 -18.799   8.640  0.00  0.00    -0.314 N 
ATOM     21  C   LIG    1       29.724 -18.275   9.868  0.00  0.00    +0.129 C 
ATOM     22  C   LIG    1       30.699 -17.128  10.120  0.00  0.00    +0.019 C 
ATOM     23  C   LIG    1       32.069 -17.709   9.672  0.00  0.00    +0.062 C 
ATOM     24  C   LIG    1       32.918 -16.473   9.748  0.00  0.00    +0.011 C 
ATOM     25  C   LIG    1       32.432 -15.838  11.082  0.00  0.00    +0.001 C 
ATOM     26  C   LIG    1       31.074 -16.509  11.440  0.00  0.00    +0.006 C 
ATOM     27  C   LIG    1       31.629 -18.404   8.475  0.00  0.00    +0.137 A 
ATOM     28  N   LIG    1       32.075 -18.816   7.317  0.00  0.00    -0.134 NA
ATOM     29  N   LIG    1       31.004 -19.471   6.709  0.00  0.00    -0.134 NA
ENDBRANCH  18  19
ENDBRANCH  17  18
ENDBRANCH   4  17
TORSDOF 5
ENDMDL
MODEL 2
REMARK VINA RESULT:      -9.6      5.719      9.439
REMARK  Name = *****
REMARK                            x       y       z     vdW  Elec       q    Type
REMARK                         _______ _______ _______ _____ _____    ______ ____
ROOT
ATOM      1  N   LIG    1       25.501 -24.545   5.985  0.00  0.00    -0.327 N 
ATOM      2  C   LIG    1       24.710 -25.059   4.847  0.00  0.00    +0.120 C 
ATOM      3  C   LIG    1       25.507 -26.182   4.137  0.00  0.00    +0.103 C 
ATOM      4  N   LIG    1       25.913 -27.318   5.001  0.00  0.00    -0.299 NA
ATOM      5  C   LIG    1       26.625 -26.754   6.181  0.00  0.00    +0.103 C 
ATOM      6  C   LIG    1       25.888 -25.610   6.934  0.00  0.00    +0.120 C 
ENDROOT
BRANCH   1   9
ATOM      7  C   LIG    1       23.822 -21.221   6.167  0.00  0.00    +0.057 A 
ATOM      8  C   LIG    1       24.194 -22.519   5.761  0.00  0.00    +0.035 A 
ATOM      9  C   LIG    1       25.133 -23.290   6.471  0.00  0.00    +0.030 A 
ATOM     10  C   LIG    1       25.689 -22.713   7.618  0.00  0.00    +0.023 A 
ATOM     11  C   LIG    1       25.321 -21.432   8.048  0.00  0.00    +0.002 A 
ATOM     12  C   LIG    1       24.393 -20.687   7.326  0.00  0.00    +0.012 A 
BRANCH   7  14
ATOM     13  F   LIG    1       22.424 -19.276   5.952  0.00  0.00    -0.166 F 
ATOM     14  C   LIG    1       22.830 -20.432   5.352  0.00  0.00    +0.417 C 
ATOM     15  F   LIG    1       23.321 -20.063   4.136  0.00  0.00    -0.166 F 
ATOM     16  F   LIG    1       21.690 -21.133   5.096  0.00  0.00    -0.166 F 
ENDBRANCH   7  14
ENDBRANCH   1   9
BRANCH   4  17
ATOM     17  C   LIG    1       24.783 -28.162   5.439  0.00  0.00    +0.092 C 
BRANCH  17  18
ATOM     18  C   LIG    1       25.178 -29.614   5.753  0.00  0.00    +0.091 C 
BRANCH  18  19
ATOM     19  C   LIG    1       24.522 -30.103   6.991  0.00  0.00    +0.135 A 
ATOM     20  N   LIG    1       24.855 -29.715   8.233  0.00  0.00    -0.314 N 
ATOM     21  C   LIG    1       25.874 -28.896   8.897  0.00  0.00    +0.129 C 
ATOM     22  C   LIG    1       25.907 -29.631  10.234  0.00  0.00    +0.019 C 
ATOM     23  C   LIG    1       24.424 -30.031  10.467  0.00  0.00    +0.062 C 
ATOM     24  C   LIG    1       24.574 -30.918  11.669  0.00  0.00    +0.011 C 
ATOM     25  C   LIG    1       25.592 -30.113  12.528  0.00  0.00    +0.001 C 
ATOM     26  C   LIG    1       26.262 -29.072  11.586  0.00  0.00    +0.006 C 
ATOM     27  C   LIG    1       24.093 -30.434   9.111  0.00  0.00    +0.137 A 
ATOM     28  N   LIG    1       23.279 -31.218   8.453  0.00  0.00    -0.134 NA
ATOM     29  N   LIG    1       23.561 -31.012   7.102  0.00  0.00    -0.134 NA
ENDBRANCH  18  19
ENDBRANCH  17  18
ENDBRANCH   4  17
TORSDOF 5
ENDMDL
MODEL 3
REMARK VINA RESULT:      -9.4      6.208      7.934
REMARK  Name = *****
REMARK                            x       y       z     vdW  Elec       q    Type
REMARK                         _______ _______ _______ _____ _____    ______ ____
ROOT
ATOM      1  N   LIG    1       25.243 -27.051   5.923  0.00  0.00    -0.327 N 
ATOM      2  C   LIG    1       25.718 -26.280   7.091  0.00  0.00    +0.120 C 
ATOM      3  C   LIG    1       26.266 -24.912   6.611  0.00  0.00    +0.103 C 
ATOM      4  N   LIG    1       25.313 -24.082   5.833  0.00  0.00    -0.299 NA
ATOM      5  C   LIG    1       24.788 -24.922   4.722  0.00  0.00    +0.103 C 
ATOM      6  C   LIG    1       24.234 -26.317   5.131  0.00  0.00    +0.120 C 
ENDROOT
BRANCH   1   9
ATOM      7  C   LIG    1       24.529 -30.292   7.621  0.00  0.00    +0.057 A 
ATOM      8  C   LIG    1       24.639 -28.914   7.347  0.00  0.00    +0.035 A 
ATOM      9  C   LIG    1       25.103 -28.426   6.112  0.00  0.00    +0.030 A 
ATOM     10  C   LIG    1       25.454 -29.377   5.146  0.00  0.00    +0.023 A 
ATOM     11  C   LIG    1       25.337 -30.751   5.392  0.00  0.00    +0.002 A 
ATOM     12  C   LIG    1       24.878 -31.209   6.625  0.00  0.00    +0.012 A 
BRANCH   7  14
ATOM     13  F   LIG    1       24.990 -30.649   9.955  0.00  0.00    -0.166 F 
ATOM     14  C   LIG    1       24.050 -30.756   8.973  0.00  0.00    +0.417 C 
ATOM     15  F   LIG    1       22.970 -30.056   9.418  0.00  0.00    -0.166 F 
ATOM     16  F   LIG    1       23.669 -32.065   8.970  0.00  0.00    -0.166 F 
ENDBRANCH   7  14
ENDBRANCH   1   9
BRANCH   4  17
ATOM     17  C   LIG    1       24.199 -23.545   6.642  0.00  0.00    +0.092 C 
BRANCH  17  18
ATOM     18  C   LIG    1       24.518 -22.207   7.329  0.00  0.00    +0.091 C 
BRANCH  18  19
ATOM     19  C   LIG    1       25.395 -21.357   6.488  0.00  0.00    +0.135 A 
ATOM     20  N   LIG    1       26.708 -21.167   6.707  0.00  0.00    -0.314 N 
ATOM     21  C   LIG    1       27.719 -21.508   7.712  0.00  0.00    +0.129 C 
ATOM     22  C   LIG    1       28.634 -20.302   7.518  0.00  0.00    +0.019 C 
ATOM     23  C   LIG    1       28.577 -20.044   5.986  0.00  0.00    +0.062 C 
ATOM     24  C   LIG    1       29.316 -18.739   5.910  0.00  0.00    +0.011 C 
ATOM     25  C   LIG    1       30.498 -18.989   6.889  0.00  0.00    +0.001 C 
ATOM     26  C   LIG    1       30.118 -20.221   7.760  0.00  0.00    +0.006 C 
ATOM     27  C   LIG    1       27.156 -20.265   5.782  0.00  0.00    +0.137 A 
ATOM     28  N   LIG    1       26.179 -19.927   4.982  0.00  0.00    -0.134 NA
ATOM     29  N   LIG    1       25.056 -20.617   5.440  0.00  0.00    -0.134 NA
ENDBRANCH  18  19
ENDBRANCH  17  18
ENDBRANCH   4  17
TORSDOF 5
ENDMDL
MODEL 4
REMARK VINA RESULT:      -9.3      6.269      8.084
REMARK  Name = *****
REMARK                            x       y       z     vdW  Elec       q    Type
REMARK                         _______ _______ _______ _____ _____    ______ ____
ROOT
ATOM      1  N   LIG    1       25.209 -27.231   5.933  0.00  0.00    -0.327 N 
ATOM      2  C   LIG    1       25.652 -26.444   7.104  0.00  0.00    +0.120 C 
ATOM      3  C   LIG    1       26.214 -25.083   6.622  0.00  0.00    +0.103 C 
ATOM      4  N   LIG    1       25.284 -24.264   5.807  0.00  0.00    -0.299 NA
ATOM      5  C   LIG    1       24.789 -25.118   4.692  0.00  0.00    +0.103 C 
ATOM      6  C   LIG    1       24.224 -26.507   5.103  0.00  0.00    +0.120 C 
ENDROOT
BRANCH   1   9
ATOM      7  C   LIG    1       24.408 -30.447   7.639  0.00  0.00    +0.057 A 
ATOM      8  C   LIG    1       24.529 -29.073   7.349  0.00  0.00    +0.035 A 
ATOM      9  C   LIG    1       25.064 -28.604   6.136  0.00  0.00    +0.030 A 
ATOM     10  C   LIG    1       25.474 -29.569   5.209  0.00  0.00    +0.023 A 
ATOM     11  C   LIG    1       25.347 -30.938   5.470  0.00  0.00    +0.002 A 
ATOM     12  C   LIG    1       24.818 -31.378   6.680  0.00  0.00    +0.012 A 
BRANCH   7  14
ATOM     13  F   LIG    1       23.226 -32.103   8.922  0.00  0.00    -0.166 F 
ATOM     14  C   LIG    1       23.850 -30.892   8.967  0.00  0.00    +0.417 C 
ATOM     15  F   LIG    1       24.808 -31.006   9.930  0.00  0.00    -0.166 F 
ATOM     16  F   LIG    1       22.926 -30.020   9.463  0.00  0.00    -0.166 F 
ENDBRANCH   7  14
ENDBRANCH   1   9
BRANCH   4  17
ATOM     17  C   LIG    1       24.148 -23.716   6.576  0.00  0.00    +0.092 C 
BRANCH  17  18
ATOM     18  C   LIG    1       24.108 -22.179   6.616  0.00  0.00    +0.091 C 
BRANCH  18  19
ATOM     19  C   LIG    1       25.199 -21.625   7.454  0.00  0.00    +0.135 A 
ATOM     20  N   LIG    1       26.163 -20.805   7.003  0.00  0.00    -0.314 N 
ATOM     21  C   LIG    1       26.627 -20.242   5.732  0.00  0.00    +0.129 C 
ATOM     22  C   LIG    1       28.104 -20.091   6.086  0.00  0.00    +0.019 C 
ATOM     23  C   LIG    1       28.079 -19.679   7.584  0.00  0.00    +0.062 C 
ATOM     24  C   LIG    1       29.543 -19.760   7.905  0.00  0.00    +0.011 C 
ATOM     25  C   LIG    1       30.178 -19.103   6.646  0.00  0.00    +0.001 C 
ATOM     26  C   LIG    1       29.087 -19.092   5.537  0.00  0.00    +0.006 C 
ATOM     27  C   LIG    1       27.026 -20.572   8.038  0.00  0.00    +0.137 A 
ATOM     28  N   LIG    1       26.608 -21.186   9.113  0.00  0.00    -0.134 NA
ATOM     29  N   LIG    1       25.448 -21.864   8.736  0.00  0.00    -0.134 NA
ENDBRANCH  18  19
ENDBRANCH  17  18
ENDBRANCH   4  17
TORSDOF 5
ENDMDL
MODEL 5
REMARK VINA RESULT:      -9.2      5.964      9.009
REMARK  Name = *****
REMARK                            x       y       z     vdW  Elec       q    Type
REMARK                         _______ _______ _______ _____ _____    ______ ____
ROOT
ATOM      1  N   LIG    1       25.049 -24.268   5.850  0.00  0.00    -0.327 N 
ATOM      2  C   LIG    1       24.535 -25.097   4.740  0.00  0.00    +0.120 C 
ATOM      3  C   LIG    1       25.534 -26.249   4.459  0.00  0.00    +0.103 C 
ATOM      4  N   LIG    1       25.841 -27.122   5.618  0.00  0.00    -0.299 NA
ATOM      5  C   LIG    1       26.266 -26.244   6.743  0.00  0.00    +0.103 C 
ATOM      6  C   LIG    1       25.316 -25.057   7.071  0.00  0.00    +0.120 C 
ENDROOT
BRANCH   1   9
ATOM      7  C   LIG    1       24.161 -20.757   4.965  0.00  0.00    +0.057 A 
ATOM      8  C   LIG    1       24.638 -22.082   4.894  0.00  0.00    +0.035 A 
ATOM      9  C   LIG    1       24.506 -22.988   5.962  0.00  0.00    +0.030 A 
ATOM     10  C   LIG    1       23.868 -22.518   7.117  0.00  0.00    +0.023 A 
ATOM     11  C   LIG    1       23.373 -21.212   7.202  0.00  0.00    +0.002 A 
ATOM     12  C   LIG    1       23.519 -20.332   6.132  0.00  0.00    +0.012 A 
BRANCH   7  14
ATOM     13  F   LIG    1       25.563 -19.193   3.794  0.00  0.00    -0.166 F 
ATOM     14  C   LIG    1       24.354 -19.823   3.798  0.00  0.00    +0.417 C 
ATOM     15  F   LIG    1       24.264 -20.456   2.595  0.00  0.00    -0.166 F 
ATOM     16  F   LIG    1       23.422 -18.829   3.766  0.00  0.00    -0.166 F 
ENDBRANCH   7  14
ENDBRANCH   1   9
BRANCH   4  17
ATOM     17  C   LIG    1       24.709 -27.976   6.032  0.00  0.00    +0.092 C 
BRANCH  17  18
ATOM     18  C   LIG    1       25.119 -29.403   6.430  0.00  0.00    +0.091 C 
BRANCH  18  19
ATOM     19  C   LIG    1       24.680 -29.734   7.807  0.00  0.00    +0.135 A 
ATOM     20  N   LIG    1       25.342 -29.382   8.923  0.00  0.00    -0.314 N 
ATOM     21  C   LIG    1       26.607 -28.744   9.300  0.00  0.00    +0.129 C 
ATOM     22  C   LIG    1       26.809 -29.440  10.643  0.00  0.00    +0.019 C 
ATOM     23  C   LIG    1       25.367 -29.560  11.212  0.00  0.00    +0.062 C 
ATOM     24  C   LIG    1       25.627 -30.429  12.409  0.00  0.00    +0.011 C 
ATOM     25  C   LIG    1       26.931 -29.800  12.977  0.00  0.00    +0.001 C 
ATOM     26  C   LIG    1       27.544 -28.921  11.850  0.00  0.00    +0.006 C 
ATOM     27  C   LIG    1       24.681 -29.930   9.987  0.00  0.00    +0.137 A 
ATOM     28  N   LIG    1       23.620 -30.569   9.569  0.00  0.00    -0.134 NA
ATOM     29  N   LIG    1       23.627 -30.451   8.179  0.00  0.00    -0.134 NA
ENDBRANCH  18  19
ENDBRANCH  17  18
ENDBRANCH   4  17
TORSDOF 5
ENDMDL
MODEL 6
REMARK VINA RESULT:      -9.1      5.427      9.843
REMARK  Name = *****
REMARK                            x       y       z     vdW  Elec       q    Type
REMARK                         _______ _______ _______ _____ _____    ______ ____
ROOT
ATOM      1  N   LIG    1       26.717 -20.758   6.808  0.00  0.00    -0.327 N 
ATOM      2  C   LIG    1       26.818 -22.014   7.580  0.00  0.00    +0.120 C 
ATOM      3  C   LIG    1       25.406 -22.431   8.064  0.00  0.00    +0.103 C 
ATOM      4  N   LIG    1       24.390 -22.595   6.995  0.00  0.00    -0.299 NA
ATOM      5  C   LIG    1       24.384 -21.347   6.183  0.00  0.00    +0.103 C 
ATOM      6  C   LIG    1       25.772 -20.862   5.677  0.00  0.00    +0.120 C 
ENDROOT
BRANCH   1   9
ATOM      7  C   LIG    1       30.013 -19.227   7.639  0.00  0.00    +0.057 A 
ATOM      8  C   LIG    1       28.826 -19.983   7.711  0.00  0.00    +0.035 A 
ATOM      9  C   LIG    1       27.901 -20.037   6.652  0.00  0.00    +0.030 A 
ATOM     10  C   LIG    1       28.212 -19.302   5.501  0.00  0.00    +0.023 A 
ATOM     11  C   LIG    1       29.394 -18.558   5.403  0.00  0.00    +0.002 A 
ATOM     12  C   LIG    1       30.292 -18.518   6.466  0.00  0.00    +0.012 A 
BRANCH   7  14
ATOM     13  F   LIG    1       30.426 -18.586   9.920  0.00  0.00    -0.166 F 
ATOM     14  C   LIG    1       30.954 -19.187   8.815  0.00  0.00    +0.417 C 
ATOM     15  F   LIG    1       31.344 -20.427   9.222  0.00  0.00    -0.166 F 
ATOM     16  F   LIG    1       32.103 -18.507   8.541  0.00  0.00    -0.166 F 
ENDBRANCH   7  14
ENDBRANCH   1   9
BRANCH   4  17
ATOM     17  C   LIG    1       24.627 -23.769   6.129  0.00  0.00    +0.092 C 
BRANCH  17  18
ATOM     18  C   LIG    1       25.041 -25.035   6.897  0.00  0.00    +0.091 C 
BRANCH  18  19
ATOM     19  C   LIG    1       25.311 -26.168   5.979  0.00  0.00    +0.135 A 
ATOM     20  N   LIG    1       24.936 -27.438   6.208  0.00  0.00    -0.314 N 
ATOM     21  C   LIG    1       24.320 -28.231   7.276  0.00  0.00    +0.129 C 
ATOM     22  C   LIG    1       24.972 -29.573   6.954  0.00  0.00    +0.019 C 
ATOM     23  C   LIG    1       25.031 -29.586   5.401  0.00  0.00    +0.062 C 
ATOM     24  C   LIG    1       25.863 -30.816   5.179  0.00  0.00    +0.011 C 
ATOM     25  C   LIG    1       25.250 -31.802   6.214  0.00  0.00    +0.001 C 
ATOM     26  C   LIG    1       24.429 -30.951   7.225  0.00  0.00    +0.006 C 
ATOM     27  C   LIG    1       25.427 -28.205   5.188  0.00  0.00    +0.137 A 
ATOM     28  N   LIG    1       26.052 -27.448   4.324  0.00  0.00    -0.134 NA
ATOM     29  N   LIG    1       25.984 -26.152   4.836  0.00  0.00    -0.134 NA
ENDBRANCH  18  19
ENDBRANCH  17  18
ENDBRANCH   4  17
TORSDOF 5
ENDMDL
MODEL 7
REMARK VINA RESULT:      -9.0      6.284      9.992
REMARK  Name = *****
REMARK                            x       y       z     vdW  Elec       q    Type
REMARK                         _______ _______ _______ _____ _____    ______ ____
ROOT
ATOM      1  N   LIG    1       25.445 -24.958   6.022  0.00  0.00    -0.327 N 
ATOM      2  C   LIG    1       24.718 -25.464   4.838  0.00  0.00    +0.120 C 
ATOM      3  C   LIG    1       25.579 -26.541   4.133  0.00  0.00    +0.103 C 
ATOM      4  N   LIG    1       25.986 -27.688   4.982  0.00  0.00    -0.299 NA
ATOM      5  C   LIG    1       26.630 -27.136   6.206  0.00  0.00    +0.103 C 
ATOM      6  C   LIG    1       25.826 -26.037   6.957  0.00  0.00    +0.120 C 
ENDROOT
BRANCH   1   9
ATOM      7  C   LIG    1       25.587 -21.601   7.639  0.00  0.00    +0.057 A 
ATOM      8  C   LIG    1       25.960 -22.833   7.064  0.00  0.00    +0.035 A 
ATOM      9  C   LIG    1       25.017 -23.729   6.525  0.00  0.00    +0.030 A 
ATOM     10  C   LIG    1       23.673 -23.342   6.579  0.00  0.00    +0.023 A 
ATOM     11  C   LIG    1       23.284 -22.116   7.130  0.00  0.00    +0.002 A 
ATOM     12  C   LIG    1       24.235 -21.248   7.660  0.00  0.00    +0.012 A 
BRANCH   7  14
ATOM     13  F   LIG    1       27.768 -21.347   8.620  0.00  0.00    -0.166 F 
ATOM     14  C   LIG    1       26.639 -20.694   8.223  0.00  0.00    +0.417 C 
ATOM     15  F   LIG    1       27.056 -19.737   7.347  0.00  0.00    -0.166 F 
ATOM     16  F   LIG    1       26.196 -20.023   9.324  0.00  0.00    -0.166 F 
ENDBRANCH   7  14
ENDBRANCH   1   9
BRANCH   4  17
ATOM     17  C   LIG    1       24.866 -28.578   5.350  0.00  0.00    +0.092 C 
BRANCH  17  18
ATOM     18  C   LIG    1       25.308 -29.976   5.812  0.00  0.00    +0.091 C 
BRANCH  18  19
ATOM     19  C   LIG    1       24.530 -30.434   6.989  0.00  0.00    +0.135 A 
ATOM     20  N   LIG    1       24.725 -30.000   8.246  0.00  0.00    -0.314 N 
ATOM     21  C   LIG    1       25.656 -29.143   8.985  0.00  0.00    +0.129 C 
ATOM     22  C   LIG    1       25.556 -29.832  10.343  0.00  0.00    +0.019 C 
ATOM     23  C   LIG    1       24.061 -30.249  10.430  0.00  0.00    +0.062 C 
ATOM     24  C   LIG    1       24.094 -31.093  11.672  0.00  0.00    +0.011 C 
ATOM     25  C   LIG    1       25.003 -30.244  12.605  0.00  0.00    +0.001 C 
ATOM     26  C   LIG    1       25.757 -29.224  11.705  0.00  0.00    +0.006 C 
ATOM     27  C   LIG    1       23.882 -30.702   9.061  0.00  0.00    +0.137 A 
ATOM     28  N   LIG    1       23.153 -31.520   8.349  0.00  0.00    -0.134 NA
ATOM     29  N   LIG    1       23.574 -31.354   7.029  0.00  0.00    -0.134 NA
ENDBRANCH  18  19
ENDBRANCH  17  18
ENDBRANCH   4  17
TORSDOF 5
ENDMDL
MODEL 8
REMARK VINA RESULT:      -9.0      6.561      8.411
REMARK  Name = *****
REMARK                            x       y       z     vdW  Elec       q    Type
REMARK                         _______ _______ _______ _____ _____    ______ ____
ROOT
ATOM      1  N   LIG    1       25.244 -27.560   6.174  0.00  0.00    -0.327 N 
ATOM      2  C   LIG    1       25.772 -26.659   7.221  0.00  0.00    +0.120 C 
ATOM      3  C   LIG    1       26.286 -25.355   6.561  0.00  0.00    +0.103 C 
ATOM      4  N   LIG    1       25.290 -24.621   5.743  0.00  0.00    -0.299 NA
ATOM      5  C   LIG    1       24.715 -25.583   4.762  0.00  0.00    +0.103 C 
ATOM      6  C   LIG    1       24.192 -26.922   5.356  0.00  0.00    +0.120 C 
ENDROOT
BRANCH   1   9
ATOM      7  C   LIG    1       25.181 -31.272   5.830  0.00  0.00    +0.057 A 
ATOM      8  C   LIG    1       25.341 -29.898   5.554  0.00  0.00    +0.035 A 
ATOM      9  C   LIG    1       25.124 -28.905   6.526  0.00  0.00    +0.030 A 
ATOM     10  C   LIG    1       24.740 -29.338   7.800  0.00  0.00    +0.023 A 
ATOM     11  C   LIG    1       24.591 -30.698   8.100  0.00  0.00    +0.002 A 
ATOM     12  C   LIG    1       24.809 -31.662   7.119  0.00  0.00    +0.012 A 
BRANCH   7  14
ATOM     13  F   LIG    1       26.410 -33.169   5.010  0.00  0.00    -0.166 F 
ATOM     14  C   LIG    1       25.403 -32.290   4.741  0.00  0.00    +0.417 C 
ATOM     15  F   LIG    1       24.301 -33.054   4.500  0.00  0.00    -0.166 F 
ATOM     16  F   LIG    1       25.726 -31.716   3.548  0.00  0.00    -0.166 F 
ENDBRANCH   7  14
ENDBRANCH   1   9
BRANCH   4  17
ATOM     17  C   LIG    1       24.215 -23.996   6.540  0.00  0.00    +0.092 C 
BRANCH  17  18
ATOM     18  C   LIG    1       24.209 -22.460   6.480  0.00  0.00    +0.091 C 
BRANCH  18  19
ATOM     19  C   LIG    1       25.257 -21.875   7.351  0.00  0.00    +0.135 A 
ATOM     20  N   LIG    1       26.169 -20.975   6.944  0.00  0.00    -0.314 N 
ATOM     21  C   LIG    1       26.603 -20.328   5.703  0.00  0.00    +0.129 C 
ATOM     22  C   LIG    1       28.065 -20.099   6.076  0.00  0.00    +0.019 C 
ATOM     23  C   LIG    1       28.005 -19.756   7.591  0.00  0.00    +0.062 C 
ATOM     24  C   LIG    1       29.470 -19.757   7.921  0.00  0.00    +0.011 C 
ATOM     25  C   LIG    1       30.069 -19.007   6.698  0.00  0.00    +0.001 C 
ATOM     26  C   LIG    1       28.987 -19.017   5.580  0.00  0.00    +0.006 C 
ATOM     27  C   LIG    1       27.010 -20.734   7.996  0.00  0.00    +0.137 A 
ATOM     28  N   LIG    1       26.624 -21.420   9.039  0.00  0.00    -0.134 NA
ATOM     29  N   LIG    1       25.513 -22.153   8.623  0.00  0.00    -0.134 NA
ENDBRANCH  18  19
ENDBRANCH  17  18
ENDBRANCH   4  17
TORSDOF 5
ENDMDL
MODEL 9
REMARK VINA RESULT:      -8.9      5.636      9.272
REMARK  Name = *****
REMARK                            x       y       z     vdW  Elec       q    Type
REMARK                         _______ _______ _______ _____ _____    ______ ____
ROOT
ATOM      1  N   LIG    1       25.196 -24.763   6.232  0.00  0.00    -0.327 N 
ATOM      2  C   LIG    1       23.951 -25.453   5.831  0.00  0.00    +0.120 C 
ATOM      3  C   LIG    1       24.310 -26.707   4.996  0.00  0.00    +0.103 C 
ATOM      4  N   LIG    1       25.213 -27.678   5.661  0.00  0.00    -0.299 NA
ATOM      5  C   LIG    1       26.411 -26.930   6.132  0.00  0.00    +0.103 C 
ATOM      6  C   LIG    1       26.124 -25.648   6.966  0.00  0.00    +0.120 C 
ENDROOT
BRANCH   1   9
ATOM      7  C   LIG    1       24.001 -21.231   6.260  0.00  0.00    +0.057 A 
ATOM      8  C   LIG    1       24.146 -22.599   5.951  0.00  0.00    +0.035 A 
ATOM      9  C   LIG    1       25.059 -23.431   6.624  0.00  0.00    +0.030 A 
ATOM     10  C   LIG    1       25.830 -22.840   7.633  0.00  0.00    +0.023 A 
ATOM     11  C   LIG    1       25.689 -21.488   7.967  0.00  0.00    +0.002 A 
ATOM     12  C   LIG    1       24.781 -20.684   7.283  0.00  0.00    +0.012 A 
BRANCH   7  14
ATOM     13  F   LIG    1       22.483 -19.366   6.218  0.00  0.00    -0.166 F 
ATOM     14  C   LIG    1       23.023 -20.383   5.487  0.00  0.00    +0.417 C 
ATOM     15  F   LIG    1       23.584 -19.794   4.395  0.00  0.00    -0.166 F 
ATOM     16  F   LIG    1       21.964 -21.103   5.020  0.00  0.00    -0.166 F 
ENDBRANCH   7  14
ENDBRANCH   1   9
BRANCH   4  17
ATOM     17  C   LIG    1       24.582 -28.397   6.787  0.00  0.00    +0.092 C 
BRANCH  17  18
ATOM     18  C   LIG    1       25.456 -29.516   7.378  0.00  0.00    +0.091 C 
BRANCH  18  19
ATOM     19  C   LIG    1       25.752 -29.279   8.812  0.00  0.00    +0.135 A 
ATOM     20  N   LIG    1       24.958 -29.664   9.826  0.00  0.00    -0.314 N 
ATOM     21  C   LIG    1       23.637 -30.268  10.025  0.00  0.00    +0.129 C 
ATOM     22  C   LIG    1       23.312 -29.639  11.377  0.00  0.00    +0.019 C 
ATOM     23  C   LIG    1       24.685 -29.611  12.106  0.00  0.00    +0.062 C 
ATOM     24  C   LIG    1       24.326 -28.799  13.316  0.00  0.00    +0.011 C 
ATOM     25  C   LIG    1       22.945 -29.402  13.702  0.00  0.00    +0.001 C 
ATOM     26  C   LIG    1       22.430 -30.192  12.464  0.00  0.00    +0.006 C 
ATOM     27  C   LIG    1       25.516 -29.203  10.986  0.00  0.00    +0.137 A 
ATOM     28  N   LIG    1       26.639 -28.587  10.725  0.00  0.00    -0.134 NA
ATOM     29  N   LIG    1       26.782 -28.629   9.338  0.00  0.00    -0.134 NA
ENDBRANCH  18  19
ENDBRANCH  17  18
ENDBRANCH   4  17
TORSDOF 5
ENDMDL
