MODEL 1
REMARK VINA RESULT:      -2.7      0.000      0.000
REMARK  Name = *****
REMARK                            x       y       z     vdW  Elec       q    Type
REMARK                         _______ _______ _______ _____ _____    ______ ____
ROOT
ATOM      1  C   LIG    1       22.440 -32.850  10.281  0.00  0.00    +0.210 C 
ATOM      2  C   LIG    1       21.293 -32.264  11.220  0.00  0.00    +0.127 C 
ATOM      3  C   LIG    1       20.930 -30.837  10.792  0.00  0.00    +0.048 C 
ATOM      4  C   LIG    1       21.730 -32.385  12.714  0.00  0.00    +0.166 C 
ATOM      5  C   LIG    1       20.721 -31.837  13.805  0.00  0.00    +0.085 C 
ATOM      6  C   LIG    1       20.864 -32.629  15.126  0.00  0.00    +0.027 C 
ATOM      7  N   LIG    1       20.786 -30.409  14.211  0.00  0.00    -0.300 NA
ATOM      8  C   LIG    1       19.845 -29.527  13.535  0.00  0.00    +0.105 C 
ATOM      9  C   LIG    1       22.148 -29.889  14.249  0.00  0.00    +0.087 C 
ATOM     10  C   LIG    1       22.477 -28.679  15.134  0.00  0.00    +0.003 C 
ATOM     11  C   LIG    1       21.397 -27.673  15.500  0.00  0.00    +0.009 C 
ATOM     12  C   LIG    1       23.823 -28.074  14.694  0.00  0.00    +0.041 C 
ATOM     13  C   LIG    1       24.210 -27.524  13.279  0.00  0.00    +0.090 C 
ATOM     14  C   LIG    1       23.020 -27.290  12.354  0.00  0.00    +0.044 C 
ATOM     15  C   LIG    1       25.457 -28.353  12.637  0.00  0.00    +0.158 C 
ATOM     16  C   LIG    1       25.737 -27.969  11.094  0.00  0.00    +0.047 C 
ATOM     17  C   LIG    1       26.832 -26.896  10.971  0.00  0.00    +0.013 C 
ATOM     18  C   LIG    1       25.918 -29.256  10.152  0.00  0.00    +0.140 C 
ATOM     19  C   LIG    1       24.495 -29.849   9.868  0.00  0.00    +0.124 C 
ATOM     20  C   LIG    1       23.774 -29.417   8.569  0.00  0.00    +0.022 C 
ATOM     21  C   LIG    1       24.355 -31.347  10.038  0.00  0.00    +0.313 C 
ATOM     22  O   LIG    1       25.168 -32.084  10.648  0.00  0.00    -0.250 OA
ATOM     23  O   LIG    1       23.124 -31.738   9.651  0.00  0.00    -0.458 OA
ENDROOT
BRANCH   1  25
ATOM     24  C   LIG    1       22.579 -33.520   7.824  0.00  0.00    +0.007 C 
ATOM     25  C   LIG    1       21.866 -33.721   9.153  0.00  0.00    +0.044 C 
ENDBRANCH   1  25
BRANCH   2  26
ATOM     26  O   LIG    1       20.103 -33.078  11.093  0.00  0.00    -0.383 OA
ATOM     27  H   LIG    1       19.409 -32.707  11.668  0.00  0.00    +0.210 HD
ENDBRANCH   2  26
BRANCH   4  28
ATOM     28  O   LIG    1       21.951 -33.794  12.956  0.00  0.00    -0.387 OA
ATOM     29  H   LIG    1       21.193 -34.092  13.497  0.00  0.00    +0.210 HD
ENDBRANCH   4  28
BRANCH  13  30
ATOM     30  O   LIG    1       24.683 -26.190  13.455  0.00  0.00    -0.386 OA
ATOM     31  H   LIG    1       24.590 -25.823  12.561  0.00  0.00    +0.210 HD
ENDBRANCH  13  30
BRANCH  15  32
ATOM     32  O   LIG    1       26.756 -28.189  13.347  0.00  0.00    -0.342 OA
BRANCH  32  33
ATOM     33  C   LIG    1       27.165 -29.097  14.379  0.00  0.00    +0.281 C 
ATOM     34  C   LIG    1       28.100 -30.298  14.041  0.00  0.00    +0.187 C 
ATOM     35  C   LIG    1       29.547 -29.884  13.672  0.00  0.00    +0.092 C 
ATOM     36  C   LIG    1       30.085 -29.013  14.830  0.00  0.00    +0.053 C 
ATOM     37  C   LIG    1       29.114 -28.048  15.500  0.00  0.00    +0.120 C 
ATOM     38  C   LIG    1       29.400 -26.581  15.182  0.00  0.00    +0.038 C 
ATOM     39  O   LIG    1       27.739 -28.407  15.488  0.00  0.00    -0.346 OA
BRANCH  35  40
ATOM     40  N   LIG    1       29.700 -29.307  12.310  0.00  0.00    -0.303 NA
ATOM     41  C   LIG    1       31.066 -29.463  11.782  0.00  0.00    +0.105 C 
ATOM     42  C   LIG    1       28.818 -29.983  11.331  0.00  0.00    +0.105 C 
ENDBRANCH  35  40
BRANCH  34  43
ATOM     43  O   LIG    1       28.187 -31.171  15.210  0.00  0.00    -0.385 OA
ATOM     44  H   LIG    1       27.309 -31.161  15.639  0.00  0.00    +0.210 HD
ENDBRANCH  34  43
ENDBRANCH  32  33
ENDBRANCH  15  32
BRANCH  18  45
ATOM     45  O   LIG    1       26.634 -28.912   8.940  0.00  0.00    -0.347 OA
BRANCH  45  46
ATOM     46  C   LIG    1       25.815 -28.460   7.833  0.00  0.00    +0.254 C 
ATOM     47  O   LIG    1       25.920 -29.347   6.725  0.00  0.00    -0.346 OA
ATOM     48  C   LIG    1       25.164 -28.989   5.560  0.00  0.00    +0.150 C 
ATOM     49  C   LIG    1       23.664 -29.215   5.736  0.00  0.00    +0.040 C 
ATOM     50  C   LIG    1       25.536 -27.584   5.051  0.00  0.00    +0.175 C 
ATOM     51  C   LIG    1       25.502 -26.502   6.164  0.00  0.00    +0.099 C 
ATOM     52  C   LIG    1       24.064 -26.086   6.530  0.00  0.00    +0.044 C 
ATOM     53  C   LIG    1       26.247 -27.040   7.416  0.00  0.00    +0.098 C 
BRANCH  50  54
ATOM     54  O   LIG    1       26.857 -27.664   4.479  0.00  0.00    -0.386 OA
ATOM     55  H   LIG    1       27.386 -28.254   5.047  0.00  0.00    +0.210 HD
ENDBRANCH  50  54
BRANCH  51  56
ATOM     56  O   LIG    1       26.214 -25.301   5.767  0.00  0.00    -0.374 OA
ATOM     57  C   LIG    1       25.481 -24.079   5.793  0.00  0.00    +0.195 C 
ENDBRANCH  51  56
ENDBRANCH  45  46
ENDBRANCH  18  45
TORSDOF 12
ENDMDL
