MODEL 1
REMARK VINA RESULT:      -5.3      0.000      0.000
REMARK  Name = *****
REMARK                            x       y       z     vdW  Elec       q    Type
REMARK                         _______ _______ _______ _____ _____    ______ ____
ROOT
ATOM      1  C   LIG    1       22.997 -30.776  11.519  0.00  0.00    +0.064 A 
ATOM      2  C   LIG    1       24.037 -30.907  10.575  0.00  0.00    +0.049 A 
ATOM      3  I   LIG    1       24.348 -32.793   9.603  0.00  0.00    -0.041 I 
ATOM      4  C   LIG    1       25.039 -29.924  10.502  0.00  0.00    +0.065 A 
ATOM      5  C   LIG    1       25.224 -29.089  11.621  0.00  0.00    +0.040 A 
ATOM      6  I   LIG    1       27.254 -28.501  12.013  0.00  0.00    -0.042 I 
ATOM      7  C   LIG    1       24.193 -28.915  12.571  0.00  0.00    +0.065 A 
ATOM      8  C   LIG    1       23.015 -29.669  12.395  0.00  0.00    +0.049 A 
ATOM      9  I   LIG    1       21.106 -29.004  13.184  0.00  0.00    -0.041 I 
ENDROOT
BRANCH   1  11
ATOM     10  C   LIG    1       22.147 -32.791  12.676  0.00  0.00    +0.138 C 
ATOM     11  N   LIG    1       21.971 -31.763  11.659  0.00  0.00    -0.271 N 
ATOM     12  C   LIG    1       20.878 -31.728  10.786  0.00  0.00    +0.245 C 
ATOM     13  O   LIG    1       20.712 -30.831   9.954  0.00  0.00    -0.273 OA
BRANCH  12  14
ATOM     14  C   LIG    1       19.812 -32.817  10.954  0.00  0.00    +0.252 C 
BRANCH  14  15
ATOM     15  O   LIG    1       18.547 -32.272  11.292  0.00  0.00    -0.386 OA
ATOM     16  H   LIG    1       18.679 -31.725  12.090  0.00  0.00    +0.210 HD
ENDBRANCH  14  15
ENDBRANCH  12  14
ENDBRANCH   1  11
BRANCH   4  17
ATOM     17  C   LIG    1       25.669 -29.572   9.178  0.00  0.00    +0.246 C 
ATOM     18  N   LIG    1       24.800 -29.138   8.186  0.00  0.00    -0.309 N 
ATOM     19  H   LIG    1       23.824 -28.981   8.401  0.00  0.00    +0.149 HD
ATOM     20  O   LIG    1       26.871 -29.738   8.948  0.00  0.00    -0.270 OA
BRANCH  18  21
ATOM     21  C   LIG    1       25.246 -28.843   6.823  0.00  0.00    +0.138 C 
BRANCH  21  22
ATOM     22  C   LIG    1       24.657 -29.765   5.727  0.00  0.00    +0.157 C 
BRANCH  22  23
ATOM     23  O   LIG    1       23.224 -29.702   5.688  0.00  0.00    -0.388 OA
ATOM     24  H   LIG    1       22.889 -30.616   5.734  0.00  0.00    +0.210 HD
ENDBRANCH  22  23
BRANCH  22  25
ATOM     25  C   LIG    1       25.057 -31.224   6.010  0.00  0.00    +0.188 C 
BRANCH  25  26
ATOM     26  O   LIG    1       26.424 -31.326   6.404  0.00  0.00    -0.392 OA
ATOM     27  H   LIG    1       26.576 -30.617   7.058  0.00  0.00    +0.209 HD
ENDBRANCH  25  26
ENDBRANCH  22  25
ENDBRANCH  21  22
ENDBRANCH  18  21
ENDBRANCH   4  17
BRANCH   7  28
ATOM     28  C   LIG    1       24.344 -27.978  13.719  0.00  0.00    +0.246 C 
ATOM     29  N   LIG    1       24.156 -26.646  13.454  0.00  0.00    -0.309 N 
ATOM     30  H   LIG    1       24.160 -26.324  12.484  0.00  0.00    +0.149 HD
ATOM     31  O   LIG    1       24.626 -28.396  14.854  0.00  0.00    -0.270 OA
BRANCH  29  32
ATOM     32  C   LIG    1       24.381 -25.624  14.455  0.00  0.00    +0.138 C 
BRANCH  32  33
ATOM     33  C   LIG    1       25.167 -24.435  13.890  0.00  0.00    +0.157 C 
BRANCH  33  34
ATOM     34  O   LIG    1       26.297 -24.921  13.150  0.00  0.00    -0.388 OA
ATOM     35  H   LIG    1       26.921 -25.293  13.804  0.00  0.00    +0.210 HD
ENDBRANCH  33  34
BRANCH  33  36
ATOM     36  C   LIG    1       25.641 -23.507  15.011  0.00  0.00    +0.188 C 
BRANCH  36  37
ATOM     37  O   LIG    1       25.553 -22.140  14.603  0.00  0.00    -0.392 OA
ATOM     38  H   LIG    1       24.624 -21.859  14.672  0.00  0.00    +0.209 HD
ENDBRANCH  36  37
ENDBRANCH  33  36
ENDBRANCH  32  33
ENDBRANCH  29  32
ENDBRANCH   7  28
TORSDOF 15
ENDMDL
MODEL 2
REMARK VINA RESULT:      -5.1      2.341      3.095
REMARK  Name = *****
REMARK                            x       y       z     vdW  Elec       q    Type
REMARK                         _______ _______ _______ _____ _____    ______ ____
ROOT
ATOM      1  C   LIG    1       22.600 -31.045  10.924  0.00  0.00    +0.064 A 
ATOM      2  C   LIG    1       23.271 -31.281   9.706  0.00  0.00    +0.049 A 
ATOM      3  I   LIG    1       22.873 -33.083   8.614  0.00  0.00    -0.041 I 
ATOM      4  C   LIG    1       24.399 -30.512   9.372  0.00  0.00    +0.065 A 
ATOM      5  C   LIG    1       25.074 -29.847  10.415  0.00  0.00    +0.040 A 
ATOM      6  I   LIG    1       27.208 -29.712  10.200  0.00  0.00    -0.042 I 
ATOM      7  C   LIG    1       24.422 -29.572  11.638  0.00  0.00    +0.065 A 
ATOM      8  C   LIG    1       23.107 -30.057  11.796  0.00  0.00    +0.049 A 
ATOM      9  I   LIG    1       21.696 -29.114  13.149  0.00  0.00    -0.041 I 
ENDROOT
BRANCH   1  11
ATOM     10  C   LIG    1       21.695 -32.940  12.233  0.00  0.00    +0.138 C 
ATOM     11  N   LIG    1       21.467 -31.821  11.328  0.00  0.00    -0.271 N 
ATOM     12  C   LIG    1       20.210 -31.505  10.801  0.00  0.00    +0.245 C 
ATOM     13  O   LIG    1       20.015 -30.530  10.068  0.00  0.00    -0.273 OA
BRANCH  12  14
ATOM     14  C   LIG    1       19.027 -32.374  11.242  0.00  0.00    +0.252 C 
BRANCH  14  15
ATOM     15  O   LIG    1       18.322 -32.909  10.134  0.00  0.00    -0.386 OA
ATOM     16  H   LIG    1       17.839 -33.694  10.457  0.00  0.00    +0.210 HD
ENDBRANCH  14  15
ENDBRANCH  12  14
ENDBRANCH   1  11
BRANCH   4  17
ATOM     17  C   LIG    1       24.685 -30.157   7.935  0.00  0.00    +0.246 C 
ATOM     18  N   LIG    1       24.143 -28.963   7.483  0.00  0.00    -0.309 N 
ATOM     19  H   LIG    1       23.676 -28.340   8.131  0.00  0.00    +0.149 HD
ATOM     20  O   LIG    1       25.288 -30.917   7.170  0.00  0.00    -0.270 OA
BRANCH  18  21
ATOM     21  C   LIG    1       24.256 -28.523   6.091  0.00  0.00    +0.138 C 
BRANCH  21  22
ATOM     22  C   LIG    1       24.741 -27.065   5.901  0.00  0.00    +0.157 C 
BRANCH  22  23
ATOM     23  O   LIG    1       23.690 -26.210   5.426  0.00  0.00    -0.388 OA
ATOM     24  H   LIG    1       24.053 -25.306   5.366  0.00  0.00    +0.210 HD
ENDBRANCH  22  23
BRANCH  22  25
ATOM     25  C   LIG    1       25.881 -27.031   4.867  0.00  0.00    +0.188 C 
BRANCH  25  26
ATOM     26  O   LIG    1       27.144 -26.801   5.487  0.00  0.00    -0.392 OA
ATOM     27  H   LIG    1       27.794 -26.712   4.764  0.00  0.00    +0.209 HD
ENDBRANCH  25  26
ENDBRANCH  22  25
ENDBRANCH  21  22
ENDBRANCH  18  21
ENDBRANCH   4  17
BRANCH   7  28
ATOM     28  C   LIG    1       25.095 -28.804  12.722  0.00  0.00    +0.246 C 
ATOM     29  N   LIG    1       25.763 -29.536  13.670  0.00  0.00    -0.309 N 
ATOM     30  H   LIG    1       25.587 -30.539  13.743  0.00  0.00    +0.149 HD
ATOM     31  O   LIG    1       25.045 -27.563  12.754  0.00  0.00    -0.270 OA
BRANCH  29  32
ATOM     32  C   LIG    1       26.365 -28.918  14.834  0.00  0.00    +0.138 C 
BRANCH  32  33
ATOM     33  C   LIG    1       27.847 -28.599  14.608  0.00  0.00    +0.157 C 
BRANCH  33  34
ATOM     34  O   LIG    1       27.961 -27.447  13.760  0.00  0.00    -0.388 OA
ATOM     35  H   LIG    1       27.971 -26.666  14.348  0.00  0.00    +0.210 HD
ENDBRANCH  33  34
BRANCH  33  36
ATOM     36  C   LIG    1       28.574 -29.786  13.971  0.00  0.00    +0.188 C 
BRANCH  36  37
ATOM     37  O   LIG    1       28.071 -31.020  14.487  0.00  0.00    -0.392 OA
ATOM     38  H   LIG    1       28.536 -31.214  15.320  0.00  0.00    +0.209 HD
ENDBRANCH  36  37
ENDBRANCH  33  36
ENDBRANCH  32  33
ENDBRANCH  29  32
ENDBRANCH   7  28
TORSDOF 15
ENDMDL
MODEL 3
REMARK VINA RESULT:      -5.0      1.656      1.924
REMARK  Name = *****
REMARK                            x       y       z     vdW  Elec       q    Type
REMARK                         _______ _______ _______ _____ _____    ______ ____
ROOT
ATOM      1  C   LIG    1       22.382 -31.057  11.022  0.00  0.00    +0.064 A 
ATOM      2  C   LIG    1       23.183 -31.300   9.887  0.00  0.00    +0.049 A 
ATOM      3  I   LIG    1       22.918 -33.116   8.777  0.00  0.00    -0.041 I 
ATOM      4  C   LIG    1       24.336 -30.525   9.669  0.00  0.00    +0.065 A 
ATOM      5  C   LIG    1       24.888 -29.845  10.771  0.00  0.00    +0.040 A 
ATOM      6  I   LIG    1       27.032 -29.694  10.787  0.00  0.00    -0.042 I 
ATOM      7  C   LIG    1       24.105 -29.563  11.913  0.00  0.00    +0.065 A 
ATOM      8  C   LIG    1       22.785 -30.057  11.933  0.00  0.00    +0.049 A 
ATOM      9  I   LIG    1       21.230 -29.113  13.115  0.00  0.00    -0.041 I 
ENDROOT
BRANCH   1  11
ATOM     10  C   LIG    1       21.365 -32.980  12.202  0.00  0.00    +0.138 C 
ATOM     11  N   LIG    1       21.218 -31.838  11.309  0.00  0.00    -0.271 N 
ATOM     12  C   LIG    1       20.011 -31.505  10.685  0.00  0.00    +0.245 C 
ATOM     13  O   LIG    1       19.881 -30.512   9.963  0.00  0.00    -0.273 OA
BRANCH  12  14
ATOM     14  C   LIG    1       18.792 -32.380  11.002  0.00  0.00    +0.252 C 
BRANCH  14  15
ATOM     15  O   LIG    1       17.656 -31.603  11.339  0.00  0.00    -0.386 OA
ATOM     16  H   LIG    1       17.127 -31.507  10.525  0.00  0.00    +0.210 HD
ENDBRANCH  14  15
ENDBRANCH  12  14
ENDBRANCH   1  11
BRANCH   4  17
ATOM     17  C   LIG    1       24.772 -30.183   8.267  0.00  0.00    +0.246 C 
ATOM     18  N   LIG    1       24.227 -29.028   7.724  0.00  0.00    -0.309 N 
ATOM     19  H   LIG    1       23.655 -28.420   8.296  0.00  0.00    +0.149 HD
ATOM     20  O   LIG    1       25.502 -30.922   7.598  0.00  0.00    -0.270 OA
BRANCH  18  21
ATOM     21  C   LIG    1       24.484 -28.609   6.345  0.00  0.00    +0.138 C 
BRANCH  21  22
ATOM     22  C   LIG    1       24.856 -27.116   6.171  0.00  0.00    +0.157 C 
BRANCH  22  23
ATOM     23  O   LIG    1       23.714 -26.317   5.828  0.00  0.00    -0.388 OA
ATOM     24  H   LIG    1       23.654 -26.293   4.855  0.00  0.00    +0.210 HD
ENDBRANCH  22  23
BRANCH  22  25
ATOM     25  C   LIG    1       25.890 -26.970   5.041  0.00  0.00    +0.188 C 
BRANCH  25  26
ATOM     26  O   LIG    1       27.214 -26.841   5.555  0.00  0.00    -0.392 OA
ATOM     27  H   LIG    1       27.817 -27.092   4.829  0.00  0.00    +0.209 HD
ENDBRANCH  25  26
ENDBRANCH  22  25
ENDBRANCH  21  22
ENDBRANCH  18  21
ENDBRANCH   4  17
BRANCH   7  28
ATOM     28  C   LIG    1       24.652 -28.779  13.056  0.00  0.00    +0.246 C 
ATOM     29  N   LIG    1       24.631 -27.413  12.930  0.00  0.00    -0.309 N 
ATOM     30  H   LIG    1       24.478 -26.998  12.009  0.00  0.00    +0.149 HD
ATOM     31  O   LIG    1       25.100 -29.346  14.066  0.00  0.00    -0.270 OA
BRANCH  29  32
ATOM     32  C   LIG    1       25.231 -26.542  13.919  0.00  0.00    +0.138 C 
BRANCH  32  33
ATOM     33  C   LIG    1       26.364 -25.698  13.323  0.00  0.00    +0.157 C 
BRANCH  33  34
ATOM     34  O   LIG    1       27.355 -26.567  12.755  0.00  0.00    -0.388 OA
ATOM     35  H   LIG    1       27.147 -27.470  13.064  0.00  0.00    +0.210 HD
ENDBRANCH  33  34
BRANCH  33  36
ATOM     36  C   LIG    1       27.006 -24.808  14.391  0.00  0.00    +0.188 C 
BRANCH  36  37
ATOM     37  O   LIG    1       28.135 -24.115  13.855  0.00  0.00    -0.392 OA
ATOM     38  H   LIG    1       28.324 -24.476  12.971  0.00  0.00    +0.209 HD
ENDBRANCH  36  37
ENDBRANCH  33  36
ENDBRANCH  32  33
ENDBRANCH  29  32
ENDBRANCH   7  28
TORSDOF 15
ENDMDL
MODEL 4
REMARK VINA RESULT:      -4.9      1.617      6.746
REMARK  Name = *****
REMARK                            x       y       z     vdW  Elec       q    Type
REMARK                         _______ _______ _______ _____ _____    ______ ____
ROOT
ATOM      1  C   LIG    1       22.789 -31.006  11.964  0.00  0.00    +0.064 A 
ATOM      2  C   LIG    1       23.471 -29.883  12.477  0.00  0.00    +0.049 A 
ATOM      3  I   LIG    1       22.410 -28.462  13.682  0.00  0.00    -0.041 I 
ATOM      4  C   LIG    1       24.731 -29.537  11.959  0.00  0.00    +0.065 A 
ATOM      5  C   LIG    1       25.077 -30.034  10.687  0.00  0.00    +0.040 A 
ATOM      6  I   LIG    1       26.266 -28.719   9.471  0.00  0.00    -0.042 I 
ATOM      7  C   LIG    1       24.431 -31.171  10.154  0.00  0.00    +0.065 A 
ATOM      8  C   LIG    1       23.381 -31.733  10.909  0.00  0.00    +0.049 A 
ATOM      9  I   LIG    1       22.833 -33.825  10.722  0.00  0.00    -0.041 I 
ENDROOT
BRANCH   1  11
ATOM     10  C   LIG    1       21.403 -32.093  13.701  0.00  0.00    +0.138 C 
ATOM     11  N   LIG    1       21.490 -31.383  12.432  0.00  0.00    -0.271 N 
ATOM     12  C   LIG    1       20.377 -31.100  11.635  0.00  0.00    +0.245 C 
ATOM     13  O   LIG    1       20.451 -30.460  10.581  0.00  0.00    -0.273 OA
BRANCH  12  14
ATOM     14  C   LIG    1       19.006 -31.539  12.163  0.00  0.00    +0.252 C 
BRANCH  14  15
ATOM     15  O   LIG    1       18.092 -30.458  12.228  0.00  0.00    -0.386 OA
ATOM     16  H   LIG    1       18.447 -29.752  11.656  0.00  0.00    +0.210 HD
ENDBRANCH  14  15
ENDBRANCH  12  14
ENDBRANCH   1  11
BRANCH   4  17
ATOM     17  C   LIG    1       25.784 -28.930  12.851  0.00  0.00    +0.246 C 
ATOM     18  N   LIG    1       25.816 -27.544  12.900  0.00  0.00    -0.309 N 
ATOM     19  H   LIG    1       25.098 -27.003  12.435  0.00  0.00    +0.149 HD
ATOM     20  O   LIG    1       26.630 -29.611  13.438  0.00  0.00    -0.270 OA
BRANCH  18  21
ATOM     21  C   LIG    1       26.835 -26.806  13.650  0.00  0.00    +0.138 C 
BRANCH  21  22
ATOM     22  C   LIG    1       26.809 -25.270  13.455  0.00  0.00    +0.157 C 
BRANCH  22  23
ATOM     23  O   LIG    1       28.128 -24.705  13.485  0.00  0.00    -0.388 OA
ATOM     24  H   LIG    1       28.440 -24.638  12.564  0.00  0.00    +0.210 HD
ENDBRANCH  22  23
BRANCH  22  25
ATOM     25  C   LIG    1       25.991 -24.620  14.585  0.00  0.00    +0.188 C 
BRANCH  25  26
ATOM     26  O   LIG    1       26.269 -23.226  14.698  0.00  0.00    -0.392 OA
ATOM     27  H   LIG    1       25.406 -22.780  14.787  0.00  0.00    +0.209 HD
ENDBRANCH  25  26
ENDBRANCH  22  25
ENDBRANCH  21  22
ENDBRANCH  18  21
ENDBRANCH   4  17
BRANCH   7  28
ATOM     28  C   LIG    1       24.836 -31.754   8.845  0.00  0.00    +0.246 C 
ATOM     29  N   LIG    1       24.039 -31.461   7.768  0.00  0.00    -0.309 N 
ATOM     30  H   LIG    1       23.106 -31.077   7.927  0.00  0.00    +0.149 HD
ATOM     31  O   LIG    1       25.848 -32.468   8.747  0.00  0.00    -0.270 OA
BRANCH  29  32
ATOM     32  C   LIG    1       24.260 -32.053   6.465  0.00  0.00    +0.138 C 
BRANCH  32  33
ATOM     33  C   LIG    1       25.025 -31.108   5.532  0.00  0.00    +0.157 C 
BRANCH  33  34
ATOM     34  O   LIG    1       26.435 -31.257   5.755  0.00  0.00    -0.388 OA
ATOM     35  H   LIG    1       26.666 -32.170   5.492  0.00  0.00    +0.210 HD
ENDBRANCH  33  34
BRANCH  33  36
ATOM     36  C   LIG    1       24.614 -29.652   5.767  0.00  0.00    +0.188 C 
BRANCH  36  37
ATOM     37  O   LIG    1       23.259 -29.441   5.364  0.00  0.00    -0.392 OA
ATOM     38  H   LIG    1       22.833 -28.860   6.019  0.00  0.00    +0.209 HD
ENDBRANCH  36  37
ENDBRANCH  33  36
ENDBRANCH  32  33
ENDBRANCH  29  32
ENDBRANCH   7  28
TORSDOF 15
ENDMDL
MODEL 5
REMARK VINA RESULT:      -4.9      2.260      7.725
REMARK  Name = *****
REMARK                            x       y       z     vdW  Elec       q    Type
REMARK                         _______ _______ _______ _____ _____    ______ ____
ROOT
ATOM      1  C   LIG    1       24.898 -29.734  12.357  0.00  0.00    +0.064 A 
ATOM      2  C   LIG    1       23.641 -30.013  12.933  0.00  0.00    +0.049 A 
ATOM      3  I   LIG    1       23.435 -30.017  15.067  0.00  0.00    -0.041 I 
ATOM      4  C   LIG    1       22.624 -30.579  12.145  0.00  0.00    +0.065 A 
ATOM      5  C   LIG    1       23.001 -31.238  10.959  0.00  0.00    +0.040 A 
ATOM      6  I   LIG    1       21.820 -32.958  10.439  0.00  0.00    -0.042 I 
ATOM      7  C   LIG    1       24.242 -30.964  10.343  0.00  0.00    +0.065 A 
ATOM      8  C   LIG    1       25.110 -30.070  11.002  0.00  0.00    +0.049 A 
ATOM      9  I   LIG    1       26.604 -28.923   9.923  0.00  0.00    -0.041 I 
ENDROOT
BRANCH   1  11
ATOM     10  C   LIG    1       27.008 -30.105  13.595  0.00  0.00    +0.138 C 
ATOM     11  N   LIG    1       25.978 -29.190  13.121  0.00  0.00    -0.271 N 
ATOM     12  C   LIG    1       25.971 -27.824  13.421  0.00  0.00    +0.245 C 
ATOM     13  O   LIG    1       25.119 -27.045  12.983  0.00  0.00    -0.273 OA
BRANCH  12  14
ATOM     14  C   LIG    1       27.134 -27.284  14.262  0.00  0.00    +0.252 C 
BRANCH  14  15
ATOM     15  O   LIG    1       27.804 -26.216  13.613  0.00  0.00    -0.386 OA
ATOM     16  H   LIG    1       28.694 -26.156  14.011  0.00  0.00    +0.210 HD
ENDBRANCH  14  15
ENDBRANCH  12  14
ENDBRANCH   1  11
BRANCH   4  17
ATOM     17  C   LIG    1       21.179 -30.222  12.390  0.00  0.00    +0.246 C 
ATOM     18  N   LIG    1       20.397 -31.212  12.967  0.00  0.00    -0.309 N 
ATOM     19  H   LIG    1       20.823 -32.073  13.286  0.00  0.00    +0.149 HD
ATOM     20  O   LIG    1       20.688 -29.150  12.024  0.00  0.00    -0.270 OA
BRANCH  18  21
ATOM     21  C   LIG    1       18.958 -31.051  13.187  0.00  0.00    +0.138 C 
BRANCH  21  22
ATOM     22  C   LIG    1       18.059 -31.523  12.019  0.00  0.00    +0.157 C 
BRANCH  22  23
ATOM     23  O   LIG    1       18.368 -30.838  10.795  0.00  0.00    -0.388 OA
ATOM     24  H   LIG    1       19.017 -30.140  11.006  0.00  0.00    +0.210 HD
ENDBRANCH  22  23
BRANCH  22  25
ATOM     25  C   LIG    1       16.584 -31.242  12.356  0.00  0.00    +0.188 C 
BRANCH  25  26
ATOM     26  O   LIG    1       16.411 -29.936  12.903  0.00  0.00    -0.392 OA
ATOM     27  H   LIG    1       17.280 -29.495  12.843  0.00  0.00    +0.209 HD
ENDBRANCH  25  26
ENDBRANCH  22  25
ENDBRANCH  21  22
ENDBRANCH  18  21
ENDBRANCH   4  17
BRANCH   7  28
ATOM     28  C   LIG    1       24.625 -31.596   9.049  0.00  0.00    +0.246 C 
ATOM     29  N   LIG    1       23.915 -31.208   7.942  0.00  0.00    -0.309 N 
ATOM     30  H   LIG    1       23.032 -30.710   8.063  0.00  0.00    +0.149 HD
ATOM     31  O   LIG    1       25.543 -32.431   8.991  0.00  0.00    -0.270 OA
BRANCH  29  32
ATOM     32  C   LIG    1       24.113 -31.826   6.647  0.00  0.00    +0.138 C 
BRANCH  32  33
ATOM     33  C   LIG    1       25.015 -30.978   5.742  0.00  0.00    +0.157 C 
BRANCH  33  34
ATOM     34  O   LIG    1       26.376 -31.099   6.181  0.00  0.00    -0.388 OA
ATOM     35  H   LIG    1       26.488 -30.474   6.924  0.00  0.00    +0.210 HD
ENDBRANCH  33  34
BRANCH  33  36
ATOM     36  C   LIG    1       24.590 -29.507   5.767  0.00  0.00    +0.188 C 
BRANCH  36  37
ATOM     37  O   LIG    1       23.209 -29.376   5.423  0.00  0.00    -0.392 OA
ATOM     38  H   LIG    1       22.765 -28.872   6.127  0.00  0.00    +0.209 HD
ENDBRANCH  36  37
ENDBRANCH  33  36
ENDBRANCH  32  33
ENDBRANCH  29  32
ENDBRANCH   7  28
TORSDOF 15
ENDMDL
MODEL 6
REMARK VINA RESULT:      -4.6      2.962      7.798
REMARK  Name = *****
REMARK                            x       y       z     vdW  Elec       q    Type
REMARK                         _______ _______ _______ _____ _____    ______ ____
ROOT
ATOM      1  C   LIG    1       25.028 -29.457  12.874  0.00  0.00    +0.064 A 
ATOM      2  C   LIG    1       23.714 -29.457  13.387  0.00  0.00    +0.049 A 
ATOM      3  I   LIG    1       23.405 -29.656  15.500  0.00  0.00    -0.041 I 
ATOM      4  C   LIG    1       22.626 -29.637  12.516  0.00  0.00    +0.065 A 
ATOM      5  C   LIG    1       22.879 -30.230  11.263  0.00  0.00    +0.040 A 
ATOM      6  I   LIG    1       21.318 -31.502  10.509  0.00  0.00    -0.042 I 
ATOM      7  C   LIG    1       24.178 -30.224  10.709  0.00  0.00    +0.065 A 
ATOM      8  C   LIG    1       25.214 -29.676  11.492  0.00  0.00    +0.049 A 
ATOM      9  I   LIG    1       27.009 -28.848  10.595  0.00  0.00    -0.041 I 
ENDROOT
BRANCH   1  11
ATOM     10  C   LIG    1       26.893 -30.517  14.108  0.00  0.00    +0.138 C 
ATOM     11  N   LIG    1       26.172 -29.311  13.721  0.00  0.00    -0.271 N 
ATOM     12  C   LIG    1       26.515 -28.034  14.178  0.00  0.00    +0.245 C 
ATOM     13  O   LIG    1       25.927 -27.011  13.814  0.00  0.00    -0.273 OA
BRANCH  12  14
ATOM     14  C   LIG    1       27.734 -27.924  15.102  0.00  0.00    +0.252 C 
BRANCH  14  15
ATOM     15  O   LIG    1       28.927 -27.681  14.376  0.00  0.00    -0.386 OA
ATOM     16  H   LIG    1       29.592 -28.316  14.703  0.00  0.00    +0.210 HD
ENDBRANCH  14  15
ENDBRANCH  12  14
ENDBRANCH   1  11
BRANCH   4  17
ATOM     17  C   LIG    1       21.314 -28.941  12.777  0.00  0.00    +0.246 C 
ATOM     18  N   LIG    1       21.366 -27.559  12.877  0.00  0.00    -0.309 N 
ATOM     19  H   LIG    1       22.230 -27.068  12.681  0.00  0.00    +0.149 HD
ATOM     20  O   LIG    1       20.263 -29.559  12.979  0.00  0.00    -0.270 OA
BRANCH  18  21
ATOM     21  C   LIG    1       20.195 -26.748  13.215  0.00  0.00    +0.138 C 
BRANCH  21  22
ATOM     22  C   LIG    1       20.057 -26.387  14.714  0.00  0.00    +0.157 C 
BRANCH  22  23
ATOM     23  O   LIG    1       21.224 -26.758  15.463  0.00  0.00    -0.388 OA
ATOM     24  H   LIG    1       21.655 -27.494  14.989  0.00  0.00    +0.210 HD
ENDBRANCH  22  23
BRANCH  22  25
ATOM     25  C   LIG    1       18.853 -27.134  15.316  0.00  0.00    +0.188 C 
BRANCH  25  26
ATOM     26  O   LIG    1       17.642 -26.403  15.140  0.00  0.00    -0.392 OA
ATOM     27  H   LIG    1       16.917 -27.008  15.388  0.00  0.00    +0.209 HD
ENDBRANCH  25  26
ENDBRANCH  22  25
ENDBRANCH  21  22
ENDBRANCH  18  21
ENDBRANCH   4  17
BRANCH   7  28
ATOM     28  C   LIG    1       24.448 -30.780   9.354  0.00  0.00    +0.246 C 
ATOM     29  N   LIG    1       24.002 -30.042   8.287  0.00  0.00    -0.309 N 
ATOM     30  H   LIG    1       23.320 -29.299   8.444  0.00  0.00    +0.149 HD
ATOM     31  O   LIG    1       25.049 -31.858   9.211  0.00  0.00    -0.270 OA
BRANCH  29  32
ATOM     32  C   LIG    1       24.103 -30.523   6.925  0.00  0.00    +0.138 C 
BRANCH  32  33
ATOM     33  C   LIG    1       24.618 -29.437   5.974  0.00  0.00    +0.157 C 
BRANCH  33  34
ATOM     34  O   LIG    1       25.881 -29.845   5.426  0.00  0.00    -0.388 OA
ATOM     35  H   LIG    1       26.536 -29.774   6.148  0.00  0.00    +0.210 HD
ENDBRANCH  33  34
BRANCH  33  36
ATOM     36  C   LIG    1       24.776 -28.099   6.701  0.00  0.00    +0.188 C 
BRANCH  36  37
ATOM     37  O   LIG    1       23.932 -27.106   6.116  0.00  0.00    -0.392 OA
ATOM     38  H   LIG    1       23.801 -27.330   5.178  0.00  0.00    +0.209 HD
ENDBRANCH  36  37
ENDBRANCH  33  36
ENDBRANCH  32  33
ENDBRANCH  29  32
ENDBRANCH   7  28
TORSDOF 15
ENDMDL
MODEL 7
REMARK VINA RESULT:      -4.5      3.040      3.802
REMARK  Name = *****
REMARK                            x       y       z     vdW  Elec       q    Type
REMARK                         _______ _______ _______ _____ _____    ______ ____
ROOT
ATOM      1  C   LIG    1       22.922 -29.147  12.653  0.00  0.00    +0.064 A 
ATOM      2  C   LIG    1       23.006 -29.916  11.473  0.00  0.00    +0.049 A 
ATOM      3  I   LIG    1       21.702 -31.599  11.216  0.00  0.00    -0.041 I 
ATOM      4  C   LIG    1       24.121 -29.777  10.628  0.00  0.00    +0.065 A 
ATOM      5  C   LIG    1       25.294 -29.221  11.175  0.00  0.00    +0.040 A 
ATOM      6  I   LIG    1       27.139 -30.024  10.419  0.00  0.00    -0.042 I 
ATOM      7  C   LIG    1       25.242 -28.425  12.341  0.00  0.00    +0.065 A 
ATOM      8  C   LIG    1       23.989 -28.279  12.971  0.00  0.00    +0.049 A 
ATOM      9  I   LIG    1       23.524 -26.553  14.202  0.00  0.00    -0.041 I 
ENDROOT
BRANCH   1  11
ATOM     10  C   LIG    1       21.961 -30.218  14.666  0.00  0.00    +0.138 C 
ATOM     11  N   LIG    1       21.826 -29.274  13.564  0.00  0.00    -0.271 N 
ATOM     12  C   LIG    1       20.665 -28.530  13.330  0.00  0.00    +0.245 C 
ATOM     13  O   LIG    1       20.571 -27.700  12.420  0.00  0.00    -0.273 OA
BRANCH  12  14
ATOM     14  C   LIG    1       19.506 -28.711  14.317  0.00  0.00    +0.252 C 
BRANCH  14  15
ATOM     15  O   LIG    1       18.345 -29.219  13.682  0.00  0.00    -0.386 OA
ATOM     16  H   LIG    1       18.320 -30.178  13.862  0.00  0.00    +0.210 HD
ENDBRANCH  14  15
ENDBRANCH  12  14
ENDBRANCH   1  11
BRANCH   4  17
ATOM     17  C   LIG    1       23.971 -29.918   9.135  0.00  0.00    +0.246 C 
ATOM     18  N   LIG    1       24.623 -28.967   8.364  0.00  0.00    -0.309 N 
ATOM     19  H   LIG    1       25.238 -28.294   8.803  0.00  0.00    +0.149 HD
ATOM     20  O   LIG    1       23.242 -30.771   8.618  0.00  0.00    -0.270 OA
BRANCH  18  21
ATOM     21  C   LIG    1       24.502 -28.917   6.905  0.00  0.00    +0.138 C 
BRANCH  21  22
ATOM     22  C   LIG    1       24.931 -27.578   6.257  0.00  0.00    +0.157 C 
BRANCH  22  23
ATOM     23  O   LIG    1       23.800 -26.805   5.829  0.00  0.00    -0.388 OA
ATOM     24  H   LIG    1       23.032 -27.091   6.358  0.00  0.00    +0.210 HD
ENDBRANCH  22  23
BRANCH  22  25
ATOM     25  C   LIG    1       25.805 -27.860   5.022  0.00  0.00    +0.188 C 
BRANCH  25  26
ATOM     26  O   LIG    1       27.044 -27.157   5.086  0.00  0.00    -0.392 OA
ATOM     27  H   LIG    1       27.555 -27.566   5.810  0.00  0.00    +0.209 HD
ENDBRANCH  25  26
ENDBRANCH  22  25
ENDBRANCH  21  22
ENDBRANCH  18  21
ENDBRANCH   4  17
BRANCH   7  28
ATOM     28  C   LIG    1       26.461 -27.768  12.889  0.00  0.00    +0.246 C 
ATOM     29  N   LIG    1       26.933 -28.247  14.084  0.00  0.00    -0.309 N 
ATOM     30  H   LIG    1       26.332 -28.841  14.657  0.00  0.00    +0.149 HD
ATOM     31  O   LIG    1       27.013 -26.834  12.283  0.00  0.00    -0.270 OA
BRANCH  29  32
ATOM     32  C   LIG    1       28.043 -27.625  14.777  0.00  0.00    +0.138 C 
BRANCH  32  33
ATOM     33  C   LIG    1       29.067 -28.660  15.257  0.00  0.00    +0.157 C 
BRANCH  33  34
ATOM     34  O   LIG    1       30.197 -28.656  14.372  0.00  0.00    -0.388 OA
ATOM     35  H   LIG    1       30.473 -27.724  14.273  0.00  0.00    +0.210 HD
ENDBRANCH  33  34
BRANCH  33  36
ATOM     36  C   LIG    1       28.451 -30.061  15.306  0.00  0.00    +0.188 C 
BRANCH  36  37
ATOM     37  O   LIG    1       28.458 -30.659  14.008  0.00  0.00    -0.392 OA
ATOM     38  H   LIG    1       27.720 -30.287  13.495  0.00  0.00    +0.209 HD
ENDBRANCH  36  37
ENDBRANCH  33  36
ENDBRANCH  32  33
ENDBRANCH  29  32
ENDBRANCH   7  28
TORSDOF 15
ENDMDL
MODEL 8
REMARK VINA RESULT:      -4.4      3.323      6.097
REMARK  Name = *****
REMARK                            x       y       z     vdW  Elec       q    Type
REMARK                         _______ _______ _______ _____ _____    ______ ____
ROOT
ATOM      1  C   LIG    1       22.594 -31.117  11.650  0.00  0.00    +0.064 A 
ATOM      2  C   LIG    1       21.294 -30.719  12.025  0.00  0.00    +0.049 A 
ATOM      3  I   LIG    1       19.659 -31.050  10.677  0.00  0.00    -0.041 I 
ATOM      4  C   LIG    1       21.118 -29.847  13.113  0.00  0.00    +0.065 A 
ATOM      5  C   LIG    1       22.222 -29.070  13.517  0.00  0.00    +0.040 A 
ATOM      6  I   LIG    1       21.753 -27.100  14.238  0.00  0.00    -0.042 I 
ATOM      7  C   LIG    1       23.539 -29.455  13.181  0.00  0.00    +0.065 A 
ATOM      8  C   LIG    1       23.694 -30.594  12.365  0.00  0.00    +0.049 A 
ATOM      9  I   LIG    1       25.505 -31.788  12.402  0.00  0.00    -0.041 I 
ENDROOT
BRANCH   1  11
ATOM     10  C   LIG    1       22.730 -33.414  10.740  0.00  0.00    +0.138 C 
ATOM     11  N   LIG    1       22.831 -31.975  10.530  0.00  0.00    -0.271 N 
ATOM     12  C   LIG    1       23.194 -31.403   9.306  0.00  0.00    +0.245 C 
ATOM     13  O   LIG    1       23.237 -30.183   9.122  0.00  0.00    -0.273 OA
BRANCH  12  14
ATOM     14  C   LIG    1       23.461 -32.359   8.137  0.00  0.00    +0.252 C 
BRANCH  14  15
ATOM     15  O   LIG    1       23.361 -31.703   6.885  0.00  0.00    -0.386 OA
ATOM     16  H   LIG    1       23.541 -32.374   6.198  0.00  0.00    +0.210 HD
ENDBRANCH  14  15
ENDBRANCH  12  14
ENDBRANCH   1  11
BRANCH   4  17
ATOM     17  C   LIG    1       19.908 -29.970  14.004  0.00  0.00    +0.246 C 
ATOM     18  N   LIG    1       18.783 -29.265  13.604  0.00  0.00    -0.309 N 
ATOM     19  H   LIG    1       18.774 -28.789  12.710  0.00  0.00    +0.149 HD
ATOM     20  O   LIG    1       19.931 -30.587  15.074  0.00  0.00    -0.270 OA
BRANCH  18  21
ATOM     21  C   LIG    1       17.559 -29.213  14.407  0.00  0.00    +0.138 C 
BRANCH  21  22
ATOM     22  C   LIG    1       16.986 -27.793  14.637  0.00  0.00    +0.157 C 
BRANCH  22  23
ATOM     23  O   LIG    1       16.139 -27.376  13.555  0.00  0.00    -0.388 OA
ATOM     24  H   LIG    1       16.655 -27.456  12.731  0.00  0.00    +0.210 HD
ENDBRANCH  22  23
BRANCH  22  25
ATOM     25  C   LIG    1       18.141 -26.782  14.748  0.00  0.00    +0.188 C 
BRANCH  25  26
ATOM     26  O   LIG    1       17.902 -25.625  13.950  0.00  0.00    -0.392 OA
ATOM     27  H   LIG    1       17.060 -25.243  14.262  0.00  0.00    +0.209 HD
ENDBRANCH  25  26
ENDBRANCH  22  25
ENDBRANCH  21  22
ENDBRANCH  18  21
ENDBRANCH   4  17
BRANCH   7  28
ATOM     28  C   LIG    1       24.720 -28.687  13.664  0.00  0.00    +0.246 C 
ATOM     29  N   LIG    1       25.362 -27.902  12.740  0.00  0.00    -0.309 N 
ATOM     30  H   LIG    1       25.176 -28.045  11.746  0.00  0.00    +0.149 HD
ATOM     31  O   LIG    1       25.095 -28.763  14.846  0.00  0.00    -0.270 OA
BRANCH  29  32
ATOM     32  C   LIG    1       26.586 -27.192  13.053  0.00  0.00    +0.138 C 
BRANCH  32  33
ATOM     33  C   LIG    1       26.419 -25.676  12.905  0.00  0.00    +0.157 C 
BRANCH  33  34
ATOM     34  O   LIG    1       27.663 -25.028  13.214  0.00  0.00    -0.388 OA
ATOM     35  H   LIG    1       28.223 -25.101  12.416  0.00  0.00    +0.210 HD
ENDBRANCH  33  34
BRANCH  33  36
ATOM     36  C   LIG    1       25.318 -25.151  13.831  0.00  0.00    +0.188 C 
BRANCH  36  37
ATOM     37  O   LIG    1       25.441 -25.725  15.134  0.00  0.00    -0.392 OA
ATOM     38  H   LIG    1       26.101 -26.440  15.092  0.00  0.00    +0.209 HD
ENDBRANCH  36  37
ENDBRANCH  33  36
ENDBRANCH  32  33
ENDBRANCH  29  32
ENDBRANCH   7  28
TORSDOF 15
ENDMDL
MODEL 9
REMARK VINA RESULT:      -4.4      2.420      5.478
REMARK  Name = *****
REMARK                            x       y       z     vdW  Elec       q    Type
REMARK                         _______ _______ _______ _____ _____    ______ ____
ROOT
ATOM      1  C   LIG    1       24.003 -30.750  12.072  0.00  0.00    +0.064 A 
ATOM      2  C   LIG    1       22.606 -30.883  11.923  0.00  0.00    +0.049 A 
ATOM      3  I   LIG    1       21.823 -31.939  10.229  0.00  0.00    -0.041 I 
ATOM      4  C   LIG    1       21.744 -30.081  12.690  0.00  0.00    +0.065 A 
ATOM      5  C   LIG    1       22.269 -28.899  13.249  0.00  0.00    +0.040 A 
ATOM      6  I   LIG    1       20.908 -27.238  13.350  0.00  0.00    -0.042 I 
ATOM      7  C   LIG    1       23.661 -28.744  13.436  0.00  0.00    +0.065 A 
ATOM      8  C   LIG    1       24.497 -29.779  12.971  0.00  0.00    +0.049 A 
ATOM      9  I   LIG    1       26.457 -30.138  13.831  0.00  0.00    -0.041 I 
ENDROOT
BRANCH   1  11
ATOM     10  C   LIG    1       25.223 -32.875  11.730  0.00  0.00    +0.138 C 
ATOM     11  N   LIG    1       24.925 -31.517  11.293  0.00  0.00    -0.271 N 
ATOM     12  C   LIG    1       25.533 -30.919  10.185  0.00  0.00    +0.245 C 
ATOM     13  O   LIG    1       25.247 -29.783   9.793  0.00  0.00    -0.273 OA
BRANCH  12  14
ATOM     14  C   LIG    1       26.532 -31.768   9.389  0.00  0.00    +0.252 C 
BRANCH  14  15
ATOM     15  O   LIG    1       26.904 -31.145   8.171  0.00  0.00    -0.386 OA
ATOM     16  H   LIG    1       27.717 -31.589   7.862  0.00  0.00    +0.210 HD
ENDBRANCH  14  15
ENDBRANCH  12  14
ENDBRANCH   1  11
BRANCH   4  17
ATOM     17  C   LIG    1       20.414 -30.617  13.156  0.00  0.00    +0.246 C 
ATOM     18  N   LIG    1       19.346 -30.434  12.291  0.00  0.00    -0.309 N 
ATOM     19  H   LIG    1       19.502 -30.051  11.367  0.00  0.00    +0.149 HD
ATOM     20  O   LIG    1       20.254 -31.113  14.276  0.00  0.00    -0.270 OA
BRANCH  18  21
ATOM     21  C   LIG    1       17.976 -30.819  12.637  0.00  0.00    +0.138 C 
BRANCH  21  22
ATOM     22  C   LIG    1       17.221 -31.612  11.543  0.00  0.00    +0.157 C 
BRANCH  22  23
ATOM     23  O   LIG    1       17.044 -32.990  11.906  0.00  0.00    -0.388 OA
ATOM     24  H   LIG    1       16.190 -33.282  11.537  0.00  0.00    +0.210 HD
ENDBRANCH  22  23
BRANCH  22  25
ATOM     25  C   LIG    1       18.023 -31.570  10.230  0.00  0.00    +0.188 C 
BRANCH  25  26
ATOM     26  O   LIG    1       17.740 -30.391   9.480  0.00  0.00    -0.392 OA
ATOM     27  H   LIG    1       17.893 -30.617   8.543  0.00  0.00    +0.209 HD
ENDBRANCH  25  26
ENDBRANCH  22  25
ENDBRANCH  21  22
ENDBRANCH  18  21
ENDBRANCH   4  17
BRANCH   7  28
ATOM     28  C   LIG    1       24.227 -27.534  14.094  0.00  0.00    +0.246 C 
ATOM     29  N   LIG    1       24.816 -26.606  13.273  0.00  0.00    -0.309 N 
ATOM     30  H   LIG    1       25.057 -26.868  12.316  0.00  0.00    +0.149 HD
ATOM     31  O   LIG    1       24.162 -27.384  15.326  0.00  0.00    -0.270 OA
BRANCH  29  32
ATOM     32  C   LIG    1       25.499 -25.441  13.796  0.00  0.00    +0.138 C 
BRANCH  32  33
ATOM     33  C   LIG    1       26.951 -25.366  13.310  0.00  0.00    +0.157 C 
BRANCH  33  34
ATOM     34  O   LIG    1       27.311 -26.610  12.692  0.00  0.00    -0.388 OA
ATOM     35  H   LIG    1       26.557 -26.872  12.128  0.00  0.00    +0.210 HD
ENDBRANCH  33  34
BRANCH  33  36
ATOM     36  C   LIG    1       27.904 -25.067  14.469  0.00  0.00    +0.188 C 
BRANCH  36  37
ATOM     37  O   LIG    1       28.058 -23.657  14.644  0.00  0.00    -0.392 OA
ATOM     38  H   LIG    1       28.988 -23.476  14.866  0.00  0.00    +0.209 HD
ENDBRANCH  36  37
ENDBRANCH  33  36
ENDBRANCH  32  33
ENDBRANCH  29  32
ENDBRANCH   7  28
TORSDOF 15
ENDMDL
