MODEL 1
REMARK VINA RESULT:      -0.9      0.000      0.000
REMARK  Name = *****
REMARK                            x       y       z     vdW  Elec       q    Type
REMARK                         _______ _______ _______ _____ _____    ______ ____
ROOT
ATOM      1  O   LIG    1       26.488 -16.935   3.359  0.00  0.00    -0.461 OA
ENDROOT
BRANCH   1   5
ATOM      2  N   LIG    1       25.775 -12.930   3.857  0.00  0.00    +0.247 N 
ATOM      3  C   LIG    1       26.874 -13.628   3.006  0.00  0.00    +0.070 C 
ATOM      4  C   LIG    1       26.269 -14.786   2.202  0.00  0.00    +0.099 C 
ATOM      5  C   LIG    1       25.569 -15.846   3.066  0.00  0.00    +0.187 C 
ATOM      6  C   LIG    1       24.973 -15.302   4.382  0.00  0.00    +0.099 C 
ATOM      7  C   LIG    1       27.870 -14.161   4.060  0.00  0.00    +0.060 C 
ATOM      8  C   LIG    1       27.074 -14.299   5.357  0.00  0.00    +0.060 C 
ATOM      9  C   LIG    1       25.626 -14.025   4.954  0.00  0.00    +0.070 C 
ATOM     10  C   LIG    1       26.354 -11.616   4.459  0.00  0.00    +0.193 C 
BRANCH   2  12
ATOM     11  C   LIG    1       23.475 -11.802   4.020  0.00  0.00    +0.063 C 
ATOM     12  C   LIG    1       24.435 -12.580   3.111  0.00  0.00    +0.060 C 
ATOM     13  C   LIG    1       24.684 -11.804   1.813  0.00  0.00    +0.063 C 
ENDBRANCH   2  12
ENDBRANCH   1   5
BRANCH   1  14
ATOM     14  C   LIG    1       25.954 -18.200   3.275  0.00  0.00    +0.317 C 
ATOM     15  O   LIG    1       25.711 -18.758   2.202  0.00  0.00    -0.250 OA
BRANCH  14  16
ATOM     16  C   LIG    1       25.749 -18.831   4.647  0.00  0.00    +0.153 C 
BRANCH  16  17
ATOM     17  C   LIG    1       24.415 -19.564   4.736  0.00  0.00    -0.032 A 
ATOM     18  C   LIG    1       23.210 -18.962   4.341  0.00  0.00    +0.004 A 
ATOM     19  C   LIG    1       22.001 -19.655   4.434  0.00  0.00    +0.000 A 
ATOM     20  C   LIG    1       21.978 -20.957   4.928  0.00  0.00    +0.000 A 
ATOM     21  C   LIG    1       23.162 -21.568   5.329  0.00  0.00    +0.000 A 
ATOM     22  C   LIG    1       24.373 -20.876   5.236  0.00  0.00    +0.004 A 
ENDBRANCH  16  17
BRANCH  16  23
ATOM     23  C   LIG    1       26.954 -19.732   4.970  0.00  0.00    +0.175 C 
BRANCH  23  24
ATOM     24  O   LIG    1       28.188 -19.035   4.814  0.00  0.00    -0.394 OA
ATOM     25  H   LIG    1       28.054 -18.343   4.137  0.00  0.00    +0.209 HD
ENDBRANCH  23  24
ENDBRANCH  16  23
ENDBRANCH  14  16
ENDBRANCH   1  14
TORSDOF 7
ENDMDL
MODEL 2
REMARK VINA RESULT:      -0.7      2.007      3.168
REMARK  Name = *****
REMARK                            x       y       z     vdW  Elec       q    Type
REMARK                         _______ _______ _______ _____ _____    ______ ____
ROOT
ATOM      1  O   LIG    1       23.800 -16.146   4.153  0.00  0.00    -0.461 OA
ENDROOT
BRANCH   1   5
ATOM      2  N   LIG    1       25.962 -12.763   3.333  0.00  0.00    +0.247 N 
ATOM      3  C   LIG    1       25.697 -13.996   2.424  0.00  0.00    +0.070 C 
ATOM      4  C   LIG    1       24.218 -14.396   2.489  0.00  0.00    +0.099 C 
ATOM      5  C   LIG    1       23.719 -14.714   3.907  0.00  0.00    +0.187 C 
ATOM      6  C   LIG    1       24.459 -13.952   5.027  0.00  0.00    +0.099 C 
ATOM      7  C   LIG    1       26.586 -15.102   3.038  0.00  0.00    +0.060 C 
ATOM      8  C   LIG    1       26.811 -14.697   4.495  0.00  0.00    +0.060 C 
ATOM      9  C   LIG    1       25.897 -13.491   4.708  0.00  0.00    +0.070 C 
ATOM     10  C   LIG    1       27.397 -12.224   3.056  0.00  0.00    +0.193 C 
BRANCH   2  12
ATOM     11  C   LIG    1       24.280 -11.556   1.814  0.00  0.00    +0.063 C 
ATOM     12  C   LIG    1       24.953 -11.564   3.192  0.00  0.00    +0.060 C 
ATOM     13  C   LIG    1       23.895 -11.568   4.301  0.00  0.00    +0.063 C 
ENDBRANCH   2  12
ENDBRANCH   1   5
BRANCH   1  14
ATOM     14  C   LIG    1       22.626 -16.746   4.548  0.00  0.00    +0.317 C 
ATOM     15  O   LIG    1       21.826 -16.214   5.322  0.00  0.00    -0.250 OA
BRANCH  14  16
ATOM     16  C   LIG    1       22.420 -18.102   3.884  0.00  0.00    +0.153 C 
BRANCH  16  17
ATOM     17  C   LIG    1       23.328 -19.168   4.486  0.00  0.00    -0.032 A 
ATOM     18  C   LIG    1       24.584 -19.470   3.937  0.00  0.00    +0.004 A 
ATOM     19  C   LIG    1       25.397 -20.452   4.508  0.00  0.00    +0.000 A 
ATOM     20  C   LIG    1       24.963 -21.151   5.632  0.00  0.00    +0.000 A 
ATOM     21  C   LIG    1       23.717 -20.870   6.186  0.00  0.00    +0.000 A 
ATOM     22  C   LIG    1       22.904 -19.886   5.617  0.00  0.00    +0.004 A 
ENDBRANCH  16  17
BRANCH  16  23
ATOM     23  C   LIG    1       20.928 -18.473   3.952  0.00  0.00    +0.175 C 
BRANCH  23  24
ATOM     24  O   LIG    1       20.236 -18.087   2.767  0.00  0.00    -0.394 OA
ATOM     25  H   LIG    1       19.478 -17.531   3.034  0.00  0.00    +0.209 HD
ENDBRANCH  23  24
ENDBRANCH  16  23
ENDBRANCH  14  16
ENDBRANCH   1  14
TORSDOF 7
ENDMDL
MODEL 3
REMARK VINA RESULT:      -0.3      1.503      2.983
REMARK  Name = *****
REMARK                            x       y       z     vdW  Elec       q    Type
REMARK                         _______ _______ _______ _____ _____    ______ ____
ROOT
ATOM      1  O   LIG    1       25.347 -16.803   2.955  0.00  0.00    -0.461 OA
ENDROOT
BRANCH   1   5
ATOM      2  N   LIG    1       25.758 -12.827   3.859  0.00  0.00    +0.247 N 
ATOM      3  C   LIG    1       24.810 -13.881   4.499  0.00  0.00    +0.070 C 
ATOM      4  C   LIG    1       25.573 -15.182   4.778  0.00  0.00    +0.099 C 
ATOM      5  C   LIG    1       26.228 -15.801   3.534  0.00  0.00    +0.187 C 
ATOM      6  C   LIG    1       26.632 -14.777   2.452  0.00  0.00    +0.099 C 
ATOM      7  C   LIG    1       23.730 -14.107   3.417  0.00  0.00    +0.060 C 
ATOM      8  C   LIG    1       24.375 -13.706   2.091  0.00  0.00    +0.060 C 
ATOM      9  C   LIG    1       25.842 -13.450   2.435  0.00  0.00    +0.070 C 
ATOM     10  C   LIG    1       25.035 -11.448   3.821  0.00  0.00    +0.193 C 
BRANCH   2  12
ATOM     11  C   LIG    1       27.193 -13.309   5.933  0.00  0.00    +0.063 C 
ATOM     12  C   LIG    1       27.153 -12.630   4.559  0.00  0.00    +0.060 C 
ATOM     13  C   LIG    1       28.311 -13.128   3.685  0.00  0.00    +0.063 C 
ENDBRANCH   2  12
ENDBRANCH   1   5
BRANCH   1  14
ATOM     14  C   LIG    1       25.499 -18.079   3.446  0.00  0.00    +0.317 C 
ATOM     15  O   LIG    1       26.598 -18.570   3.714  0.00  0.00    -0.250 OA
BRANCH  14  16
ATOM     16  C   LIG    1       24.161 -18.778   3.658  0.00  0.00    +0.153 C 
BRANCH  16  17
ATOM     17  C   LIG    1       24.217 -19.760   4.823  0.00  0.00    -0.032 A 
ATOM     18  C   LIG    1       23.076 -20.087   5.573  0.00  0.00    +0.004 A 
ATOM     19  C   LIG    1       23.155 -20.989   6.637  0.00  0.00    +0.000 A 
ATOM     20  C   LIG    1       24.375 -21.572   6.970  0.00  0.00    +0.000 A 
ATOM     21  C   LIG    1       25.518 -21.254   6.242  0.00  0.00    +0.000 A 
ATOM     22  C   LIG    1       25.440 -20.353   5.176  0.00  0.00    +0.004 A 
ENDBRANCH  16  17
BRANCH  16  23
ATOM     23  C   LIG    1       23.059 -17.716   3.817  0.00  0.00    +0.175 C 
BRANCH  23  24
ATOM     24  O   LIG    1       21.795 -18.309   4.108  0.00  0.00    -0.394 OA
ATOM     25  H   LIG    1       21.176 -18.049   3.399  0.00  0.00    +0.209 HD
ENDBRANCH  23  24
ENDBRANCH  16  23
ENDBRANCH  14  16
ENDBRANCH   1  14
TORSDOF 7
ENDMDL
MODEL 4
REMARK VINA RESULT:      -0.2      1.863      3.543
REMARK  Name = *****
REMARK                            x       y       z     vdW  Elec       q    Type
REMARK                         _______ _______ _______ _____ _____    ______ ____
ROOT
ATOM      1  O   LIG    1       24.120 -16.940   3.511  0.00  0.00    -0.461 OA
ENDROOT
BRANCH   1   5
ATOM      2  N   LIG    1       26.211 -13.417   3.620  0.00  0.00    +0.247 N 
ATOM      3  C   LIG    1       24.823 -13.748   4.237  0.00  0.00    +0.070 C 
ATOM      4  C   LIG    1       24.868 -15.105   4.952  0.00  0.00    +0.099 C 
ATOM      5  C   LIG    1       25.295 -16.272   4.048  0.00  0.00    +0.187 C 
ATOM      6  C   LIG    1       26.237 -15.870   2.894  0.00  0.00    +0.099 C 
ATOM      7  C   LIG    1       23.882 -13.811   3.012  0.00  0.00    +0.060 C 
ATOM      8  C   LIG    1       24.778 -14.118   1.812  0.00  0.00    +0.060 C 
ATOM      9  C   LIG    1       26.152 -14.404   2.417  0.00  0.00    +0.070 C 
ATOM     10  C   LIG    1       26.211 -11.940   3.127  0.00  0.00    +0.193 C 
BRANCH   2  12
ATOM     11  C   LIG    1       28.740 -13.084   3.912  0.00  0.00    +0.063 C 
ATOM     12  C   LIG    1       27.457 -13.621   4.558  0.00  0.00    +0.060 C 
ATOM     13  C   LIG    1       27.249 -12.986   5.938  0.00  0.00    +0.063 C 
ENDBRANCH   2  12
ENDBRANCH   1   5
BRANCH   1  14
ATOM     14  C   LIG    1       23.867 -18.193   4.020  0.00  0.00    +0.317 C 
ATOM     15  O   LIG    1       22.887 -18.447   4.725  0.00  0.00    -0.250 OA
BRANCH  14  16
ATOM     16  C   LIG    1       24.902 -19.218   3.572  0.00  0.00    +0.153 C 
BRANCH  16  17
ATOM     17  C   LIG    1       25.787 -19.668   4.730  0.00  0.00    -0.032 A 
ATOM     18  C   LIG    1       27.157 -19.367   4.777  0.00  0.00    +0.004 A 
ATOM     19  C   LIG    1       27.945 -19.793   5.849  0.00  0.00    +0.000 A 
ATOM     20  C   LIG    1       27.377 -20.529   6.885  0.00  0.00    +0.000 A 
ATOM     21  C   LIG    1       26.021 -20.842   6.852  0.00  0.00    +0.000 A 
ATOM     22  C   LIG    1       25.231 -20.416   5.781  0.00  0.00    +0.004 A 
ENDBRANCH  16  17
BRANCH  16  23
ATOM     23  C   LIG    1       24.184 -20.385   2.874  0.00  0.00    +0.175 C 
BRANCH  23  24
ATOM     24  O   LIG    1       23.254 -21.027   3.745  0.00  0.00    -0.394 OA
ATOM     25  H   LIG    1       22.841 -21.760   3.248  0.00  0.00    +0.209 HD
ENDBRANCH  23  24
ENDBRANCH  16  23
ENDBRANCH  14  16
ENDBRANCH   1  14
TORSDOF 7
ENDMDL
MODEL 5
REMARK VINA RESULT:      -0.1      2.148      6.884
REMARK  Name = *****
REMARK                            x       y       z     vdW  Elec       q    Type
REMARK                         _______ _______ _______ _____ _____    ______ ____
ROOT
ATOM      1  O   LIG    1       25.779 -16.776   3.170  0.00  0.00    -0.461 OA
ENDROOT
BRANCH   1   5
ATOM      2  N   LIG    1       24.071 -20.234   4.555  0.00  0.00    +0.247 N 
ATOM      3  C   LIG    1       25.403 -20.047   3.775  0.00  0.00    +0.070 C 
ATOM      4  C   LIG    1       26.201 -18.875   4.360  0.00  0.00    +0.099 C 
ATOM      5  C   LIG    1       25.441 -17.540   4.361  0.00  0.00    +0.187 C 
ATOM      6  C   LIG    1       23.908 -17.682   4.469  0.00  0.00    +0.099 C 
ATOM      7  C   LIG    1       24.944 -19.725   2.335  0.00  0.00    +0.060 C 
ATOM      8  C   LIG    1       23.527 -19.166   2.462  0.00  0.00    +0.060 C 
ATOM      9  C   LIG    1       23.305 -19.012   3.967  0.00  0.00    +0.070 C 
ATOM     10  C   LIG    1       23.405 -21.571   4.114  0.00  0.00    +0.193 C 
BRANCH   2  12
ATOM     11  C   LIG    1       23.024 -21.017   6.764  0.00  0.00    +0.063 C 
ATOM     12  C   LIG    1       24.176 -20.232   6.124  0.00  0.00    +0.060 C 
ATOM     13  C   LIG    1       25.525 -20.773   6.612  0.00  0.00    +0.063 C 
ENDBRANCH   2  12
ENDBRANCH   1   5
BRANCH   1  14
ATOM     14  C   LIG    1       26.732 -15.798   3.345  0.00  0.00    +0.317 C 
ATOM     15  O   LIG    1       27.699 -15.930   4.099  0.00  0.00    -0.250 OA
BRANCH  14  16
ATOM     16  C   LIG    1       26.473 -14.578   2.470  0.00  0.00    +0.153 C 
BRANCH  16  17
ATOM     17  C   LIG    1       25.479 -13.621   3.118  0.00  0.00    -0.032 A 
ATOM     18  C   LIG    1       25.099 -13.744   4.464  0.00  0.00    +0.004 A 
ATOM     19  C   LIG    1       24.185 -12.855   5.032  0.00  0.00    +0.000 A 
ATOM     20  C   LIG    1       23.633 -11.833   4.264  0.00  0.00    +0.000 A 
ATOM     21  C   LIG    1       23.993 -11.699   2.926  0.00  0.00    +0.000 A 
ATOM     22  C   LIG    1       24.909 -12.588   2.356  0.00  0.00    +0.004 A 
ENDBRANCH  16  17
BRANCH  16  23
ATOM     23  C   LIG    1       27.817 -13.910   2.130  0.00  0.00    +0.175 C 
BRANCH  23  24
ATOM     24  O   LIG    1       28.383 -13.258   3.265  0.00  0.00    -0.394 OA
ATOM     25  H   LIG    1       28.538 -13.936   3.950  0.00  0.00    +0.209 HD
ENDBRANCH  23  24
ENDBRANCH  16  23
ENDBRANCH  14  16
ENDBRANCH   1  14
TORSDOF 7
ENDMDL
MODEL 6
REMARK VINA RESULT:       0.5      0.966      2.261
REMARK  Name = *****
REMARK                            x       y       z     vdW  Elec       q    Type
REMARK                         _______ _______ _______ _____ _____    ______ ____
ROOT
ATOM      1  O   LIG    1       25.363 -16.975   3.078  0.00  0.00    -0.461 OA
ENDROOT
BRANCH   1   5
ATOM      2  N   LIG    1       26.343 -13.146   4.161  0.00  0.00    +0.247 N 
ATOM      3  C   LIG    1       25.715 -14.275   5.026  0.00  0.00    +0.070 C 
ATOM      4  C   LIG    1       26.452 -15.599   4.788  0.00  0.00    +0.099 C 
ATOM      5  C   LIG    1       26.462 -16.053   3.321  0.00  0.00    +0.187 C 
ATOM      6  C   LIG    1       26.406 -14.898   2.298  0.00  0.00    +0.099 C 
ATOM      7  C   LIG    1       24.260 -14.364   4.514  0.00  0.00    +0.060 C 
ATOM      8  C   LIG    1       24.280 -13.796   3.095  0.00  0.00    +0.060 C 
ATOM      9  C   LIG    1       25.761 -13.582   2.784  0.00  0.00    +0.070 C 
ATOM     10  C   LIG    1       25.752 -11.775   4.604  0.00  0.00    +0.193 C 
BRANCH   2  12
ATOM     11  C   LIG    1       28.438 -12.193   3.022  0.00  0.00    +0.063 C 
ATOM     12  C   LIG    1       27.912 -13.037   4.190  0.00  0.00    +0.060 C 
ATOM     13  C   LIG    1       28.426 -12.480   5.523  0.00  0.00    +0.063 C 
ENDBRANCH   2  12
ENDBRANCH   1   5
BRANCH   1  14
ATOM     14  C   LIG    1       25.689 -18.311   3.128  0.00  0.00    +0.317 C 
ATOM     15  O   LIG    1       26.034 -18.956   2.136  0.00  0.00    -0.250 OA
BRANCH  14  16
ATOM     16  C   LIG    1       25.618 -18.869   4.545  0.00  0.00    +0.153 C 
BRANCH  16  17
ATOM     17  C   LIG    1       24.332 -19.654   4.777  0.00  0.00    -0.032 A 
ATOM     18  C   LIG    1       23.098 -19.227   4.260  0.00  0.00    +0.004 A 
ATOM     19  C   LIG    1       21.934 -19.965   4.489  0.00  0.00    +0.000 A 
ATOM     20  C   LIG    1       21.985 -21.136   5.241  0.00  0.00    +0.000 A 
ATOM     21  C   LIG    1       23.198 -21.571   5.766  0.00  0.00    +0.000 A 
ATOM     22  C   LIG    1       24.364 -20.835   5.538  0.00  0.00    +0.004 A 
ENDBRANCH  16  17
BRANCH  16  23
ATOM     23  C   LIG    1       26.886 -19.695   4.823  0.00  0.00    +0.175 C 
BRANCH  23  24
ATOM     24  O   LIG    1       28.061 -18.887   4.774  0.00  0.00    -0.394 OA
ATOM     25  H   LIG    1       27.963 -18.268   4.025  0.00  0.00    +0.209 HD
ENDBRANCH  23  24
ENDBRANCH  16  23
ENDBRANCH  14  16
ENDBRANCH   1  14
TORSDOF 7
ENDMDL
MODEL 7
REMARK VINA RESULT:       0.7      2.691      7.104
REMARK  Name = *****
REMARK                            x       y       z     vdW  Elec       q    Type
REMARK                         _______ _______ _______ _____ _____    ______ ____
ROOT
ATOM      1  O   LIG    1       22.866 -15.709   3.745  0.00  0.00    -0.461 OA
ENDROOT
BRANCH   1   5
ATOM      2  N   LIG    1       23.312 -19.674   4.679  0.00  0.00    +0.247 N 
ATOM      3  C   LIG    1       23.713 -18.927   3.376  0.00  0.00    +0.070 C 
ATOM      4  C   LIG    1       24.416 -17.607   3.715  0.00  0.00    +0.099 C 
ATOM      5  C   LIG    1       23.578 -16.659   4.586  0.00  0.00    +0.187 C 
ATOM      6  C   LIG    1       22.579 -17.373   5.523  0.00  0.00    +0.099 C 
ATOM      7  C   LIG    1       22.361 -18.658   2.676  0.00  0.00    +0.060 C 
ATOM      8  C   LIG    1       21.305 -18.683   3.782  0.00  0.00    +0.060 C 
ATOM      9  C   LIG    1       22.106 -18.774   5.080  0.00  0.00    +0.070 C 
ATOM     10  C   LIG    1       22.835 -21.112   4.317  0.00  0.00    +0.193 C 
BRANCH   2  12
ATOM     11  C   LIG    1       23.922 -20.572   7.006  0.00  0.00    +0.063 C 
ATOM     12  C   LIG    1       24.424 -19.790   5.786  0.00  0.00    +0.060 C 
ATOM     13  C   LIG    1       25.713 -20.419   5.244  0.00  0.00    +0.063 C 
ENDBRANCH   2  12
ENDBRANCH   1   5
BRANCH   1  14
ATOM     14  C   LIG    1       23.495 -14.500   3.556  0.00  0.00    +0.317 C 
ATOM     15  O   LIG    1       23.367 -13.829   2.528  0.00  0.00    -0.250 OA
BRANCH  14  16
ATOM     16  C   LIG    1       24.313 -14.078   4.770  0.00  0.00    +0.153 C 
BRANCH  16  17
ATOM     17  C   LIG    1       25.785 -13.887   4.419  0.00  0.00    -0.032 A 
ATOM     18  C   LIG    1       26.695 -13.319   5.324  0.00  0.00    +0.004 A 
ATOM     19  C   LIG    1       28.038 -13.154   4.976  0.00  0.00    +0.000 A 
ATOM     20  C   LIG    1       28.488 -13.548   3.719  0.00  0.00    +0.000 A 
ATOM     21  C   LIG    1       27.598 -14.107   2.807  0.00  0.00    +0.000 A 
ATOM     22  C   LIG    1       26.254 -14.274   3.153  0.00  0.00    +0.004 A 
ENDBRANCH  16  17
BRANCH  16  23
ATOM     23  C   LIG    1       23.675 -12.825   5.395  0.00  0.00    +0.175 C 
BRANCH  23  24
ATOM     24  O   LIG    1       23.697 -11.719   4.495  0.00  0.00    -0.394 OA
ATOM     25  H   LIG    1       24.396 -11.107   4.795  0.00  0.00    +0.209 HD
ENDBRANCH  23  24
ENDBRANCH  16  23
ENDBRANCH  14  16
ENDBRANCH   1  14
TORSDOF 7
ENDMDL
MODEL 8
REMARK VINA RESULT:       1.2      1.948      3.628
REMARK  Name = *****
REMARK                            x       y       z     vdW  Elec       q    Type
REMARK                         _______ _______ _______ _____ _____    ______ ____
ROOT
ATOM      1  O   LIG    1       23.928 -16.703   3.323  0.00  0.00    -0.461 OA
ENDROOT
BRANCH   1   5
ATOM      2  N   LIG    1       26.212 -13.337   3.821  0.00  0.00    +0.247 N 
ATOM      3  C   LIG    1       24.733 -13.583   4.232  0.00  0.00    +0.070 C 
ATOM      4  C   LIG    1       24.588 -14.952   4.906  0.00  0.00    +0.099 C 
ATOM      5  C   LIG    1       25.058 -16.129   4.036  0.00  0.00    +0.187 C 
ATOM      6  C   LIG    1       26.177 -15.771   3.035  0.00  0.00    +0.099 C 
ATOM      7  C   LIG    1       23.970 -13.556   2.887  0.00  0.00    +0.060 C 
ATOM      8  C   LIG    1       25.002 -13.901   1.814  0.00  0.00    +0.060 C 
ATOM      9  C   LIG    1       26.256 -14.294   2.594  0.00  0.00    +0.070 C 
ATOM     10  C   LIG    1       26.379 -11.854   3.376  0.00  0.00    +0.193 C 
BRANCH   2  12
ATOM     11  C   LIG    1       28.511 -12.715   4.781  0.00  0.00    +0.063 C 
ATOM     12  C   LIG    1       27.299 -13.646   4.916  0.00  0.00    +0.060 C 
ATOM     13  C   LIG    1       26.725 -13.570   6.335  0.00  0.00    +0.063 C 
ENDBRANCH   2  12
ENDBRANCH   1   5
BRANCH   1  14
ATOM     14  C   LIG    1       22.883 -17.125   4.113  0.00  0.00    +0.317 C 
ATOM     15  O   LIG    1       22.369 -16.418   4.983  0.00  0.00    -0.250 OA
BRANCH  14  16
ATOM     16  C   LIG    1       22.418 -18.531   3.750  0.00  0.00    +0.153 C 
BRANCH  16  17
ATOM     17  C   LIG    1       23.101 -19.589   4.609  0.00  0.00    -0.032 A 
ATOM     18  C   LIG    1       23.982 -20.534   4.060  0.00  0.00    +0.004 A 
ATOM     19  C   LIG    1       24.594 -21.494   4.869  0.00  0.00    +0.000 A 
ATOM     20  C   LIG    1       24.331 -21.527   6.236  0.00  0.00    +0.000 A 
ATOM     21  C   LIG    1       23.455 -20.602   6.796  0.00  0.00    +0.000 A 
ATOM     22  C   LIG    1       22.843 -19.640   5.989  0.00  0.00    +0.004 A 
ENDBRANCH  16  17
BRANCH  16  23
ATOM     23  C   LIG    1       20.882 -18.588   3.832  0.00  0.00    +0.175 C 
BRANCH  23  24
ATOM     24  O   LIG    1       20.411 -19.930   3.936  0.00  0.00    -0.394 OA
ATOM     25  H   LIG    1       20.107 -20.066   4.854  0.00  0.00    +0.209 HD
ENDBRANCH  23  24
ENDBRANCH  16  23
ENDBRANCH  14  16
ENDBRANCH   1  14
TORSDOF 7
ENDMDL
MODEL 9
REMARK VINA RESULT:       1.3      2.381      7.401
REMARK  Name = *****
REMARK                            x       y       z     vdW  Elec       q    Type
REMARK                         _______ _______ _______ _____ _____    ______ ____
ROOT
ATOM      1  O   LIG    1       24.500 -17.213   3.457  0.00  0.00    -0.461 OA
ENDROOT
BRANCH   1   5
ATOM      2  N   LIG    1       22.723 -20.669   4.757  0.00  0.00    +0.247 N 
ATOM      3  C   LIG    1       23.250 -20.316   3.337  0.00  0.00    +0.070 C 
ATOM      4  C   LIG    1       24.632 -19.659   3.431  0.00  0.00    +0.099 C 
ATOM      5  C   LIG    1       24.663 -18.389   4.296  0.00  0.00    +0.187 C 
ATOM      6  C   LIG    1       23.616 -18.368   5.430  0.00  0.00    +0.099 C 
ATOM      7  C   LIG    1       22.206 -19.311   2.799  0.00  0.00    +0.060 C 
ATOM      8  C   LIG    1       21.542 -18.697   4.030  0.00  0.00    +0.060 C 
ATOM      9  C   LIG    1       22.352 -19.227   5.213  0.00  0.00    +0.070 C 
ATOM     10  C   LIG    1       21.449 -21.555   4.623  0.00  0.00    +0.193 C 
BRANCH   2  12
ATOM     11  C   LIG    1       25.108 -21.572   5.052  0.00  0.00    +0.063 C 
ATOM     12  C   LIG    1       23.734 -21.405   5.712  0.00  0.00    +0.060 C 
ATOM     13  C   LIG    1       23.875 -20.692   7.062  0.00  0.00    +0.063 C 
ENDBRANCH   2  12
ENDBRANCH   1   5
BRANCH   1  14
ATOM     14  C   LIG    1       25.568 -16.346   3.438  0.00  0.00    +0.317 C 
ATOM     15  O   LIG    1       26.658 -16.633   2.937  0.00  0.00    -0.250 OA
BRANCH  14  16
ATOM     16  C   LIG    1       25.227 -14.996   4.058  0.00  0.00    +0.153 C 
BRANCH  16  17
ATOM     17  C   LIG    1       26.464 -14.118   4.211  0.00  0.00    -0.032 A 
ATOM     18  C   LIG    1       26.866 -13.613   5.457  0.00  0.00    +0.004 A 
ATOM     19  C   LIG    1       28.003 -12.809   5.569  0.00  0.00    +0.000 A 
ATOM     20  C   LIG    1       28.750 -12.494   4.437  0.00  0.00    +0.000 A 
ATOM     21  C   LIG    1       28.363 -12.981   3.192  0.00  0.00    +0.000 A 
ATOM     22  C   LIG    1       27.226 -13.786   3.078  0.00  0.00    +0.004 A 
ENDBRANCH  16  17
BRANCH  16  23
ATOM     23  C   LIG    1       24.114 -14.331   3.231  0.00  0.00    +0.175 C 
BRANCH  23  24
ATOM     24  O   LIG    1       23.867 -12.993   3.660  0.00  0.00    -0.394 OA
ATOM     25  H   LIG    1       23.344 -13.039   4.484  0.00  0.00    +0.209 HD
ENDBRANCH  23  24
ENDBRANCH  16  23
ENDBRANCH  14  16
ENDBRANCH   1  14
TORSDOF 7
ENDMDL
