MODEL 1
REMARK VINA RESULT:       3.2      0.000      0.000
REMARK  Name = *****
REMARK                            x       y       z     vdW  Elec       q    Type
REMARK                         _______ _______ _______ _____ _____    ______ ____
ROOT
ATOM      1  C   LIG    1       26.448 -17.469   4.017  0.00  0.00    +0.323 C 
ATOM      2  C   LIG    1       27.423 -18.233   4.864  0.00  0.00    +0.087 A 
ATOM      3  C   LIG    1       27.589 -19.618   4.760  0.00  0.00    +0.046 A 
ATOM      4  C   LIG    1       28.638 -20.222   5.481  0.00  0.00    +0.024 A 
ATOM      5  C   LIG    1       29.475 -19.474   6.312  0.00  0.00    +0.002 A 
ATOM      6  C   LIG    1       29.277 -18.106   6.441  0.00  0.00    +0.001 A 
ATOM      7  N   LIG    1       26.723 -20.449   4.019  0.00  0.00    -0.310 N 
ATOM      8  H   LIG    1       27.025 -21.416   4.005  0.00  0.00    +0.152 HD
ATOM      9  C   LIG    1       25.315 -20.327   4.101  0.00  0.00    +0.083 A 
ATOM     10  C   LIG    1       24.654 -19.084   4.061  0.00  0.00    +0.199 A 
ATOM     11  C   LIG    1       23.261 -19.049   4.227  0.00  0.00    +0.077 A 
ATOM     12  C   LIG    1       22.533 -20.216   4.436  0.00  0.00    +0.045 A 
ATOM     13  C   LIG    1       23.176 -21.446   4.463  0.00  0.00    +0.022 A 
ATOM     14 CL   LIG    1       20.826 -20.139   4.640  0.00  0.00    -0.083 Cl
ATOM     15  C   LIG    1       24.559 -21.500   4.293  0.00  0.00    +0.029 A 
ATOM     16  C   LIG    1       28.259 -17.487   5.718  0.00  0.00    +0.018 A 
ATOM     17  N   LIG    1       25.244 -17.864   3.710  0.00  0.00    -0.040 NA
ENDROOT
BRANCH   1  22
ATOM     18  C   LIG    1       26.714 -12.510   3.883  0.00  0.00    +0.105 C 
ATOM     19  N   LIG    1       27.430 -13.356   2.929  0.00  0.00    -0.298 NA
ATOM     20  C   LIG    1       28.396 -14.246   3.612  0.00  0.00    +0.127 C 
ATOM     21  C   LIG    1       27.773 -15.421   4.399  0.00  0.00    +0.241 C 
ATOM     22  N   LIG    1       26.862 -16.213   3.542  0.00  0.00    -0.218 N 
ATOM     23  C   LIG    1       25.842 -15.360   2.891  0.00  0.00    +0.241 C 
ATOM     24  C   LIG    1       26.500 -14.185   2.133  0.00  0.00    +0.127 C 
ENDBRANCH   1  22
TORSDOF 1
ENDMDL
