MODEL 1
REMARK VINA RESULT:       5.9      0.000      0.000
REMARK  Name = *****
REMARK                            x       y       z     vdW  Elec       q    Type
REMARK                         _______ _______ _______ _____ _____    ______ ____
ROOT
ATOM      1  C   LIG    1       26.883 -18.960   3.498  0.00  0.00    +0.059 C 
ENDROOT
BRANCH   1   6
ATOM      2  C   LIG    1       27.489 -14.629   4.367  0.00  0.00    +0.121 C 
ATOM      3  O   LIG    1       26.268 -15.245   3.910  0.00  0.00    -0.454 OA
ATOM      4  C   LIG    1       26.195 -16.463   3.336  0.00  0.00    +0.340 C 
ATOM      5  O   LIG    1       25.298 -16.704   2.537  0.00  0.00    -0.245 OA
ATOM      6  C   LIG    1       27.174 -17.479   3.782  0.00  0.00    +0.081 C 
ATOM      7  C   LIG    1       28.276 -17.069   4.437  0.00  0.00    +0.108 C 
ATOM      8  C   LIG    1       28.576 -15.645   4.781  0.00  0.00    +0.122 C 
BRANCH   7   9
ATOM      9  O   LIG    1       29.198 -17.997   4.900  0.00  0.00    -0.510 OA
ATOM     10  H   LIG    1       28.742 -18.826   5.128  0.00  0.00    +0.292 HD
ENDBRANCH   7   9
BRANCH   2  11
ATOM     11  C   LIG    1       27.076 -13.736   5.567  0.00  0.00    +0.048 C 
BRANCH  11  13
ATOM     12  C   LIG    1       28.825 -12.091   4.817  0.00  0.00    +0.004 C 
ATOM     13  C   LIG    1       28.145 -12.732   6.015  0.00  0.00    +0.001 C 
ENDBRANCH  11  13
ENDBRANCH   2  11
BRANCH   2  14
ATOM     14  C   LIG    1       28.023 -13.728   3.213  0.00  0.00    +0.053 C 
BRANCH  14  15
ATOM     15  C   LIG    1       26.954 -13.282   2.201  0.00  0.00    +0.039 C 
BRANCH  15  16
ATOM     16  C   LIG    1       25.764 -12.642   2.874  0.00  0.00    -0.047 A 
ATOM     17  C   LIG    1       25.759 -12.429   4.259  0.00  0.00    +0.003 A 
ATOM     18  C   LIG    1       24.654 -11.846   4.882  0.00  0.00    +0.000 A 
ATOM     19  C   LIG    1       23.547 -11.466   4.124  0.00  0.00    +0.000 A 
ATOM     20  C   LIG    1       23.545 -11.668   2.745  0.00  0.00    +0.000 A 
ATOM     21  C   LIG    1       24.649 -12.252   2.121  0.00  0.00    +0.003 A 
ENDBRANCH  15  16
ENDBRANCH  14  15
ENDBRANCH   2  14
ENDBRANCH   1   6
BRANCH   1  22
ATOM     22  C   LIG    1       26.369 -19.716   4.750  0.00  0.00    -0.038 A 
ATOM     23  C   LIG    1       25.073 -20.274   4.794  0.00  0.00    +0.028 A 
ATOM     24  C   LIG    1       24.608 -20.946   5.935  0.00  0.00    +0.048 A 
ATOM     25  C   LIG    1       25.414 -21.061   7.061  0.00  0.00    +0.024 A 
ATOM     26  C   LIG    1       26.683 -20.496   7.053  0.00  0.00    +0.002 A 
ATOM     27  C   LIG    1       27.148 -19.830   5.916  0.00  0.00    +0.004 A 
BRANCH  24  28
ATOM     28  N   LIG    1       23.328 -21.565   5.922  0.00  0.00    -0.215 N 
ATOM     29  H   LIG    1       23.323 -22.581   6.010  0.00  0.00    +0.174 HD
BRANCH  28  30
ATOM     30  S   LIG    1       22.247 -21.100   4.687  0.00  0.00    +0.090 S 
ATOM     31  O   LIG    1       20.913 -21.487   5.066  0.00  0.00    -0.148 OA
ATOM     32  O   LIG    1       22.821 -21.572   3.433  0.00  0.00    -0.148 OA
BRANCH  30  33
ATOM     33  C   LIG    1       22.318 -19.298   4.650  0.00  0.00    +0.197 A 
ATOM     34  N   LIG    1       22.055 -18.682   5.835  0.00  0.00    -0.235 NA
ATOM     35  C   LIG    1       22.241 -17.338   5.860  0.00  0.00    +0.125 A 
ATOM     36  C   LIG    1       22.641 -16.580   4.762  0.00  0.00    +0.073 A 
ATOM     37  C   LIG    1       22.862 -17.254   3.554  0.00  0.00    +0.017 A 
ATOM     38  C   LIG    1       22.707 -18.641   3.488  0.00  0.00    +0.050 A 
BRANCH  36  39
ATOM     39  C   LIG    1       22.825 -15.096   4.908  0.00  0.00    +0.419 C 
ATOM     40  F   LIG    1       22.846 -14.451   3.709  0.00  0.00    -0.166 F 
ATOM     41  F   LIG    1       23.997 -14.777   5.523  0.00  0.00    -0.166 F 
ATOM     42  F   LIG    1       21.846 -14.494   5.638  0.00  0.00    -0.166 F 
ENDBRANCH  36  39
ENDBRANCH  30  33
ENDBRANCH  28  30
ENDBRANCH  24  28
ENDBRANCH   1  22
BRANCH   1  43
ATOM     43  C   LIG    1       26.001 -19.227   2.241  0.00  0.00    +0.010 C 
ATOM     44  C   LIG    1       25.348 -20.597   2.160  0.00  0.00    +0.005 C 
ENDBRANCH   1  43
TORSDOF 13
ENDMDL
MODEL 2
REMARK VINA RESULT:       7.9      0.624      1.741
REMARK  Name = *****
REMARK                            x       y       z     vdW  Elec       q    Type
REMARK                         _______ _______ _______ _____ _____    ______ ____
ROOT
ATOM      1  C   LIG    1       26.858 -18.974   3.427  0.00  0.00    +0.059 C 
ENDROOT
BRANCH   1   6
ATOM      2  C   LIG    1       27.705 -14.628   3.954  0.00  0.00    +0.121 C 
ATOM      3  O   LIG    1       28.647 -15.708   4.119  0.00  0.00    -0.454 OA
ATOM      4  C   LIG    1       28.304 -17.001   4.292  0.00  0.00    +0.340 C 
ATOM      5  O   LIG    1       29.048 -17.747   4.917  0.00  0.00    -0.245 OA
ATOM      6  C   LIG    1       27.067 -17.465   3.625  0.00  0.00    +0.081 C 
ATOM      7  C   LIG    1       26.180 -16.547   3.201  0.00  0.00    +0.108 C 
ATOM      8  C   LIG    1       26.365 -15.069   3.325  0.00  0.00    +0.122 C 
BRANCH   7   9
ATOM      9  O   LIG    1       25.025 -16.946   2.542  0.00  0.00    -0.510 OA
ATOM     10  H   LIG    1       25.038 -16.611   1.628  0.00  0.00    +0.292 HD
ENDBRANCH   7   9
BRANCH   2  11
ATOM     11  C   LIG    1       28.425 -13.588   3.056  0.00  0.00    +0.048 C 
BRANCH  11  13
ATOM     12  C   LIG    1       28.926 -12.299   5.158  0.00  0.00    +0.004 C 
ATOM     13  C   LIG    1       28.575 -12.196   3.684  0.00  0.00    +0.001 C 
ENDBRANCH  11  13
ENDBRANCH   2  11
BRANCH   2  14
ATOM     14  C   LIG    1       27.448 -14.007   5.360  0.00  0.00    +0.053 C 
BRANCH  14  15
ATOM     15  C   LIG    1       25.974 -13.679   5.657  0.00  0.00    +0.039 C 
BRANCH  15  16
ATOM     16  C   LIG    1       25.318 -12.929   4.522  0.00  0.00    -0.047 A 
ATOM     17  C   LIG    1       25.840 -13.003   3.224  0.00  0.00    +0.003 A 
ATOM     18  C   LIG    1       25.237 -12.302   2.178  0.00  0.00    +0.000 A 
ATOM     19  C   LIG    1       24.105 -11.526   2.421  0.00  0.00    +0.000 A 
ATOM     20  C   LIG    1       23.575 -11.451   3.708  0.00  0.00    +0.000 A 
ATOM     21  C   LIG    1       24.177 -12.150   4.755  0.00  0.00    +0.003 A 
ENDBRANCH  15  16
ENDBRANCH  14  15
ENDBRANCH   2  14
ENDBRANCH   1   6
BRANCH   1  22
ATOM     22  C   LIG    1       26.321 -19.672   4.703  0.00  0.00    -0.038 A 
ATOM     23  C   LIG    1       25.047 -20.278   4.731  0.00  0.00    +0.028 A 
ATOM     24  C   LIG    1       24.561 -20.899   5.893  0.00  0.00    +0.048 A 
ATOM     25  C   LIG    1       25.323 -20.912   7.055  0.00  0.00    +0.024 A 
ATOM     26  C   LIG    1       26.568 -20.297   7.060  0.00  0.00    +0.002 A 
ATOM     27  C   LIG    1       27.055 -19.683   5.904  0.00  0.00    +0.004 A 
BRANCH  24  28
ATOM     28  N   LIG    1       23.307 -21.568   5.869  0.00  0.00    -0.215 N 
ATOM     29  H   LIG    1       23.343 -22.586   5.931  0.00  0.00    +0.174 HD
BRANCH  28  30
ATOM     30  S   LIG    1       22.202 -21.117   4.649  0.00  0.00    +0.090 S 
ATOM     31  O   LIG    1       20.884 -21.548   5.032  0.00  0.00    -0.148 OA
ATOM     32  O   LIG    1       22.779 -21.554   3.384  0.00  0.00    -0.148 OA
BRANCH  30  33
ATOM     33  C   LIG    1       22.222 -19.314   4.637  0.00  0.00    +0.197 A 
ATOM     34  N   LIG    1       22.162 -18.724   5.863  0.00  0.00    -0.235 NA
ATOM     35  C   LIG    1       22.317 -17.376   5.882  0.00  0.00    +0.125 A 
ATOM     36  C   LIG    1       22.493 -16.590   4.746  0.00  0.00    +0.073 A 
ATOM     37  C   LIG    1       22.509 -17.238   3.504  0.00  0.00    +0.017 A 
ATOM     38  C   LIG    1       22.378 -18.627   3.438  0.00  0.00    +0.050 A 
BRANCH  36  39
ATOM     39  C   LIG    1       22.664 -15.104   4.887  0.00  0.00    +0.419 C 
ATOM     40  F   LIG    1       22.417 -14.436   3.727  0.00  0.00    -0.166 F 
ATOM     41  F   LIG    1       23.930 -14.760   5.253  0.00  0.00    -0.166 F 
ATOM     42  F   LIG    1       21.843 -14.546   5.820  0.00  0.00    -0.166 F 
ENDBRANCH  36  39
ENDBRANCH  30  33
ENDBRANCH  28  30
ENDBRANCH  24  28
ENDBRANCH   1  22
BRANCH   1  43
ATOM     43  C   LIG    1       26.049 -19.364   2.153  0.00  0.00    +0.010 C 
ATOM     44  C   LIG    1       24.881 -20.313   2.366  0.00  0.00    +0.005 C 
ENDBRANCH   1  43
TORSDOF 13
ENDMDL
