MODEL 1
REMARK VINA RESULT:      -8.5      0.000      0.000
REMARK  Name = *****
REMARK                            x       y       z     vdW  Elec       q    Type
REMARK                         _______ _______ _______ _____ _____    ______ ____
ROOT
ATOM      1  C   UNK A  1       30.718 -20.637   8.694  0.00  0.00    +0.114 C 
ATOM      2  C   UNK A  1       29.757 -20.700   7.755  0.00  0.00    +0.003 C 
ENDROOT
BRANCH   1   4
ATOM      3  C   UNK A  0       31.848 -18.424   8.733  0.00  0.00    +0.221 C 
ATOM      4  N   UNK A  1       31.260 -19.528   9.334  0.00  0.00    -0.280 N 
ATOM      5  H   UNK A  1       31.497 -19.675  10.302  0.00  0.00    +0.155 HD
ATOM      6  O   UNK A  0       31.971 -18.247   7.552  0.00  0.00    -0.275 OA
BRANCH   3   9
ATOM      7  C   UNK A  0       30.281 -16.781  10.957  0.00  0.00    +0.011 C 
ATOM      8  C   UNK A  0       31.768 -16.625  10.728  0.00  0.00    -0.023 C 
ATOM      9  C   UNK A  0       32.517 -17.471   9.684  0.00  0.00    +0.082 C 
ATOM     10  C   UNK A  0       32.238 -16.000   9.438  0.00  0.00    +0.020 C 
ATOM     11  C   UNK A  0       32.507 -16.228  11.985  0.00  0.00    +0.011 C 
ENDBRANCH   3   9
ENDBRANCH   1   4
BRANCH   1  12
ATOM     12  C   UNK A  1       31.228 -21.958   9.210  0.00  0.00    +0.351 C 
ATOM     13  O   UNK A  1       30.782 -22.533  10.187  0.00  0.00    -0.244 OA
BRANCH  12  14
ATOM     14  O   UNK A  1       32.271 -22.458   8.514  0.00  0.00    -0.476 OA
ATOM     15  H   UNK A  1       32.478 -23.323   8.921  0.00  0.00    +0.295 HD
ENDBRANCH  12  14
ENDBRANCH   1  12
BRANCH   2  16
ATOM     16  C   UNK A  1       28.900 -19.662   7.098  0.00  0.00    +0.029 C 
BRANCH  16  17
ATOM     17  C   UNK A  1       27.551 -20.233   6.664  0.00  0.00    +0.005 C 
BRANCH  17  18
ATOM     18  C   UNK A  1       26.639 -20.574   7.855  0.00  0.00    +0.011 C 
BRANCH  18  19
ATOM     19  C   UNK A  1       25.164 -20.758   7.466  0.00  0.00    +0.069 C 
BRANCH  19  20
ATOM     20  S   UNK A  1       24.951 -20.773   5.637  0.00  0.00    -0.159 S 
BRANCH  20  21
ATOM     21  C   UNK A  1       24.768 -22.582   5.388  0.00  0.00    +0.099 C 
BRANCH  21  22
ATOM     22  C   UNK A  1       24.646 -23.403   6.696  0.00  0.00    +0.170 C 
BRANCH  22  23
ATOM     23  N   UNK A  1       25.838 -24.150   7.173  0.00  0.00    -0.318 NA
ATOM     24  H   UNK A  1       26.677 -23.579   7.060  0.00  0.00    +0.119 HD
ATOM     25  H   UNK A  1       25.989 -24.951   6.550  0.00  0.00    +0.119 HD
ENDBRANCH  22  23
BRANCH  22  26
ATOM     26  C   UNK A  1       23.509 -24.430   6.533  0.00  0.00    +0.323 C 
ATOM     27  O   UNK A  1       23.645 -25.610   6.246  0.00  0.00    -0.249 OA
BRANCH  26  28
ATOM     28  O   UNK A  1       22.291 -23.860   6.740  0.00  0.00    -0.479 OA
ATOM     29  H   UNK A  1       22.055 -23.337   5.945  0.00  0.00    +0.295 HD
ENDBRANCH  26  28
ENDBRANCH  22  26
ENDBRANCH  21  22
ENDBRANCH  20  21
ENDBRANCH  19  20
ENDBRANCH  18  19
ENDBRANCH  17  18
ENDBRANCH  16  17
ENDBRANCH   2  16
TORSDOF 14
ENDMDL
MODEL 2
REMARK VINA RESULT:      -8.4      2.480      9.572
REMARK  Name = *****
REMARK                            x       y       z     vdW  Elec       q    Type
REMARK                         _______ _______ _______ _____ _____    ______ ____
ROOT
ATOM      1  C   UNK A  1       23.838 -21.596   6.130  0.00  0.00    +0.114 C 
ATOM      2  C   UNK A  1       24.452 -20.930   7.124  0.00  0.00    +0.003 C 
ENDROOT
BRANCH   1   4
ATOM      3  C   UNK A  0       23.337 -24.030   6.161  0.00  0.00    +0.221 C 
ATOM      4  N   UNK A  1       24.012 -22.908   5.703  0.00  0.00    -0.280 N 
ATOM      5  H   UNK A  1       24.887 -23.086   5.235  0.00  0.00    +0.155 HD
ATOM      6  O   UNK A  0       22.479 -24.042   7.002  0.00  0.00    -0.275 OA
BRANCH   3   9
ATOM      7  C   UNK A  0       26.034 -25.347   7.207  0.00  0.00    +0.011 C 
ATOM      8  C   UNK A  0       25.203 -25.963   6.104  0.00  0.00    -0.023 C 
ATOM      9  C   UNK A  0       23.871 -25.339   5.651  0.00  0.00    +0.082 C 
ATOM     10  C   UNK A  0       25.111 -25.243   4.781  0.00  0.00    +0.020 C 
ATOM     11  C   UNK A  0       25.337 -27.468   6.051  0.00  0.00    +0.011 C 
ENDBRANCH   3   9
ENDBRANCH   1   4
BRANCH   1  12
ATOM     12  C   UNK A  1       22.730 -20.859   5.423  0.00  0.00    +0.351 C 
ATOM     13  O   UNK A  1       22.691 -19.650   5.278  0.00  0.00    -0.244 OA
BRANCH  12  14
ATOM     14  O   UNK A  1       21.733 -21.654   4.978  0.00  0.00    -0.476 OA
ATOM     15  H   UNK A  1       22.074 -22.569   5.032  0.00  0.00    +0.295 HD
ENDBRANCH  12  14
ENDBRANCH   1  12
BRANCH   2  16
ATOM     16  C   UNK A  1       25.472 -21.330   8.145  0.00  0.00    +0.029 C 
BRANCH  16  17
ATOM     17  C   UNK A  1       26.844 -21.564   7.515  0.00  0.00    +0.005 C 
BRANCH  17  18
ATOM     18  C   UNK A  1       27.792 -20.366   7.694  0.00  0.00    +0.011 C 
BRANCH  18  19
ATOM     19  C   UNK A  1       29.109 -20.503   6.915  0.00  0.00    +0.069 C 
BRANCH  19  20
ATOM     20  S   UNK A  1       29.755 -18.859   6.397  0.00  0.00    -0.159 S 
BRANCH  20  21
ATOM     21  C   UNK A  1       30.260 -18.221   8.043  0.00  0.00    +0.099 C 
BRANCH  21  22
ATOM     22  C   UNK A  1       31.713 -18.571   8.449  0.00  0.00    +0.170 C 
BRANCH  22  23
ATOM     23  N   UNK A  1       31.965 -19.875   9.114  0.00  0.00    -0.318 NA
ATOM     24  H   UNK A  1       32.934 -20.163   8.962  0.00  0.00    +0.119 HD
ATOM     25  H   UNK A  1       31.410 -20.594   8.639  0.00  0.00    +0.119 HD
ENDBRANCH  22  23
BRANCH  22  26
ATOM     26  C   UNK A  1       32.240 -17.476   9.398  0.00  0.00    +0.323 C 
ATOM     27  O   UNK A  1       32.400 -17.590  10.604  0.00  0.00    -0.249 OA
BRANCH  26  28
ATOM     28  O   UNK A  1       32.508 -16.324   8.727  0.00  0.00    -0.479 OA
ATOM     29  H   UNK A  1       31.684 -16.023   8.286  0.00  0.00    +0.295 HD
ENDBRANCH  26  28
ENDBRANCH  22  26
ENDBRANCH  21  22
ENDBRANCH  20  21
ENDBRANCH  19  20
ENDBRANCH  18  19
ENDBRANCH  17  18
ENDBRANCH  16  17
ENDBRANCH   2  16
TORSDOF 14
ENDMDL
MODEL 3
REMARK VINA RESULT:      -8.4      2.868      8.895
REMARK  Name = *****
REMARK                            x       y       z     vdW  Elec       q    Type
REMARK                         _______ _______ _______ _____ _____    ______ ____
ROOT
ATOM      1  C   UNK A  1       24.655 -23.513   6.438  0.00  0.00    +0.114 C 
ATOM      2  C   UNK A  1       25.781 -23.376   7.159  0.00  0.00    +0.003 C 
ENDROOT
BRANCH   1   4
ATOM      3  C   UNK A  0       23.615 -21.825   4.940  0.00  0.00    +0.221 C 
ATOM      4  N   UNK A  1       23.692 -22.566   6.110  0.00  0.00    -0.280 N 
ATOM      5  H   UNK A  1       23.185 -22.191   6.897  0.00  0.00    +0.155 HD
ATOM      6  O   UNK A  0       24.372 -21.896   4.010  0.00  0.00    -0.275 OA
BRANCH   3   9
ATOM      7  C   UNK A  0       24.158 -18.871   3.900  0.00  0.00    +0.011 C 
ATOM      8  C   UNK A  0       22.836 -19.290   4.502  0.00  0.00    -0.023 C 
ATOM      9  C   UNK A  0       22.575 -20.739   4.948  0.00  0.00    +0.082 C 
ATOM     10  C   UNK A  0       22.789 -19.638   5.969  0.00  0.00    +0.020 C 
ATOM     11  C   UNK A  0       21.674 -18.495   3.954  0.00  0.00    +0.011 C 
ENDBRANCH   3   9
ENDBRANCH   1   4
BRANCH   1  12
ATOM     12  C   UNK A  1       24.433 -24.863   5.804  0.00  0.00    +0.351 C 
ATOM     13  O   UNK A  1       23.878 -25.798   6.353  0.00  0.00    -0.244 OA
BRANCH  12  14
ATOM     14  O   UNK A  1       24.941 -24.978   4.558  0.00  0.00    -0.476 OA
ATOM     15  H   UNK A  1       24.293 -24.552   3.962  0.00  0.00    +0.295 HD
ENDBRANCH  12  14
ENDBRANCH   1  12
BRANCH   2  16
ATOM     16  C   UNK A  1       26.439 -22.201   7.816  0.00  0.00    +0.029 C 
BRANCH  16  17
ATOM     17  C   UNK A  1       27.020 -21.230   6.789  0.00  0.00    +0.005 C 
BRANCH  17  18
ATOM     18  C   UNK A  1       27.932 -20.168   7.427  0.00  0.00    +0.011 C 
BRANCH  18  19
ATOM     19  C   UNK A  1       29.372 -20.653   7.655  0.00  0.00    +0.069 C 
BRANCH  19  20
ATOM     20  S   UNK A  1       30.597 -19.445   6.998  0.00  0.00    -0.159 S 
BRANCH  20  21
ATOM     21  C   UNK A  1       31.374 -18.938   8.582  0.00  0.00    +0.099 C 
BRANCH  21  22
ATOM     22  C   UNK A  1       31.140 -17.457   8.968  0.00  0.00    +0.170 C 
BRANCH  22  23
ATOM     23  N   UNK A  1       32.276 -16.508   8.849  0.00  0.00    -0.318 NA
ATOM     24  H   UNK A  1       31.952 -15.553   9.010  0.00  0.00    +0.119 HD
ATOM     25  H   UNK A  1       32.597 -16.507   7.875  0.00  0.00    +0.119 HD
ENDBRANCH  22  23
BRANCH  22  26
ATOM     26  C   UNK A  1       30.658 -17.396  10.432  0.00  0.00    +0.323 C 
ATOM     27  O   UNK A  1       30.377 -16.382  11.052  0.00  0.00    -0.249 OA
BRANCH  26  28
ATOM     28  O   UNK A  1       30.588 -18.638  10.983  0.00  0.00    -0.479 OA
ATOM     29  H   UNK A  1       31.480 -18.881  11.315  0.00  0.00    +0.295 HD
ENDBRANCH  26  28
ENDBRANCH  22  26
ENDBRANCH  21  22
ENDBRANCH  20  21
ENDBRANCH  19  20
ENDBRANCH  18  19
ENDBRANCH  17  18
ENDBRANCH  16  17
ENDBRANCH   2  16
TORSDOF 14
ENDMDL
MODEL 4
REMARK VINA RESULT:      -8.3      2.546      8.427
REMARK  Name = *****
REMARK                            x       y       z     vdW  Elec       q    Type
REMARK                         _______ _______ _______ _____ _____    ______ ____
ROOT
ATOM      1  C   UNK A  1       24.562 -23.627   6.488  0.00  0.00    +0.114 C 
ATOM      2  C   UNK A  1       25.692 -23.496   7.206  0.00  0.00    +0.003 C 
ENDROOT
BRANCH   1   4
ATOM      3  C   UNK A  0       23.561 -21.905   5.002  0.00  0.00    +0.221 C 
ATOM      4  N   UNK A  1       23.608 -22.672   6.157  0.00  0.00    -0.280 N 
ATOM      5  H   UNK A  1       23.080 -22.315   6.938  0.00  0.00    +0.155 HD
ATOM      6  O   UNK A  0       24.342 -21.955   4.091  0.00  0.00    -0.275 OA
BRANCH   3   9
ATOM      7  C   UNK A  0       24.089 -18.967   3.909  0.00  0.00    +0.011 C 
ATOM      8  C   UNK A  0       22.775 -19.377   4.535  0.00  0.00    -0.023 C 
ATOM      9  C   UNK A  0       22.520 -20.820   5.007  0.00  0.00    +0.082 C 
ATOM     10  C   UNK A  0       22.747 -19.703   6.008  0.00  0.00    +0.020 C 
ATOM     11  C   UNK A  0       21.605 -18.591   3.991  0.00  0.00    +0.011 C 
ENDBRANCH   3   9
ENDBRANCH   1   4
BRANCH   1  12
ATOM     12  C   UNK A  1       24.326 -24.978   5.863  0.00  0.00    +0.351 C 
ATOM     13  O   UNK A  1       23.805 -25.919   6.435  0.00  0.00    -0.244 OA
BRANCH  12  14
ATOM     14  O   UNK A  1       24.778 -25.087   4.595  0.00  0.00    -0.476 OA
ATOM     15  H   UNK A  1       24.851 -26.046   4.416  0.00  0.00    +0.295 HD
ENDBRANCH  12  14
ENDBRANCH   1  12
BRANCH   2  16
ATOM     16  C   UNK A  1       26.362 -22.323   7.853  0.00  0.00    +0.029 C 
BRANCH  16  17
ATOM     17  C   UNK A  1       26.601 -21.187   6.860  0.00  0.00    +0.005 C 
BRANCH  17  18
ATOM     18  C   UNK A  1       27.897 -20.410   7.147  0.00  0.00    +0.011 C 
BRANCH  18  19
ATOM     19  C   UNK A  1       28.483 -19.715   5.908  0.00  0.00    +0.069 C 
BRANCH  19  20
ATOM     20  S   UNK A  1       29.744 -18.459   6.380  0.00  0.00    -0.159 S 
BRANCH  20  21
ATOM     21  C   UNK A  1       31.011 -19.582   7.091  0.00  0.00    +0.099 C 
BRANCH  21  22
ATOM     22  C   UNK A  1       31.027 -19.636   8.638  0.00  0.00    +0.170 C 
BRANCH  22  23
ATOM     23  N   UNK A  1       32.132 -18.951   9.357  0.00  0.00    -0.318 NA
ATOM     24  H   UNK A  1       31.991 -17.939   9.330  0.00  0.00    +0.119 HD
ATOM     25  H   UNK A  1       33.001 -19.100   8.833  0.00  0.00    +0.119 HD
ENDBRANCH  22  23
BRANCH  22  26
ATOM     26  C   UNK A  1       31.052 -21.112   9.083  0.00  0.00    +0.323 C 
ATOM     27  O   UNK A  1       30.088 -21.860   9.136  0.00  0.00    -0.249 OA
BRANCH  26  28
ATOM     28  O   UNK A  1       32.306 -21.504   9.433  0.00  0.00    -0.479 OA
ATOM     29  H   UNK A  1       32.788 -20.725   9.786  0.00  0.00    +0.295 HD
ENDBRANCH  26  28
ENDBRANCH  22  26
ENDBRANCH  21  22
ENDBRANCH  20  21
ENDBRANCH  19  20
ENDBRANCH  18  19
ENDBRANCH  17  18
ENDBRANCH  16  17
ENDBRANCH   2  16
TORSDOF 14
ENDMDL
MODEL 5
REMARK VINA RESULT:      -8.3      2.457      9.227
REMARK  Name = *****
REMARK                            x       y       z     vdW  Elec       q    Type
REMARK                         _______ _______ _______ _____ _____    ______ ____
ROOT
ATOM      1  C   UNK A  1       24.750 -22.447   5.448  0.00  0.00    +0.114 C 
ATOM      2  C   UNK A  1       25.398 -21.853   6.466  0.00  0.00    +0.003 C 
ENDROOT
BRANCH   1   4
ATOM      3  C   UNK A  0       23.922 -24.764   5.798  0.00  0.00    +0.221 C 
ATOM      4  N   UNK A  1       24.655 -23.797   5.126  0.00  0.00    -0.280 N 
ATOM      5  H   UNK A  1       25.395 -24.142   4.537  0.00  0.00    +0.155 HD
ATOM      6  O   UNK A  0       23.239 -24.583   6.769  0.00  0.00    -0.275 OA
BRANCH   3   9
ATOM      7  C   UNK A  0       25.972 -26.746   7.203  0.00  0.00    +0.011 C 
ATOM      8  C   UNK A  0       25.193 -27.127   5.965  0.00  0.00    -0.023 C 
ATOM      9  C   UNK A  0       24.164 -26.174   5.333  0.00  0.00    +0.082 C 
ATOM     10  C   UNK A  0       25.506 -26.421   4.669  0.00  0.00    +0.020 C 
ATOM     11  C   UNK A  0       24.929 -28.613   5.883  0.00  0.00    +0.011 C 
ENDBRANCH   3   9
ENDBRANCH   1   4
BRANCH   1  12
ATOM     12  C   UNK A  1       23.922 -21.544   4.570  0.00  0.00    +0.351 C 
ATOM     13  O   UNK A  1       24.366 -20.888   3.645  0.00  0.00    -0.244 OA
BRANCH  12  14
ATOM     14  O   UNK A  1       22.618 -21.482   4.915  0.00  0.00    -0.476 OA
ATOM     15  H   UNK A  1       22.172 -20.989   4.198  0.00  0.00    +0.295 HD
ENDBRANCH  12  14
ENDBRANCH   1  12
BRANCH   2  16
ATOM     16  C   UNK A  1       26.187 -22.382   7.624  0.00  0.00    +0.029 C 
BRANCH  16  17
ATOM     17  C   UNK A  1       26.948 -21.272   8.345  0.00  0.00    +0.005 C 
BRANCH  17  18
ATOM     18  C   UNK A  1       27.354 -20.123   7.406  0.00  0.00    +0.011 C 
BRANCH  18  19
ATOM     19  C   UNK A  1       28.596 -20.434   6.556  0.00  0.00    +0.069 C 
BRANCH  19  20
ATOM     20  S   UNK A  1       29.605 -18.921   6.268  0.00  0.00    -0.159 S 
BRANCH  20  21
ATOM     21  C   UNK A  1       31.133 -19.426   7.151  0.00  0.00    +0.099 C 
BRANCH  21  22
ATOM     22  C   UNK A  1       30.974 -19.558   8.686  0.00  0.00    +0.170 C 
BRANCH  22  23
ATOM     23  N   UNK A  1       31.910 -18.806   9.560  0.00  0.00    -0.318 NA
ATOM     24  H   UNK A  1       32.812 -18.695   9.092  0.00  0.00    +0.119 HD
ATOM     25  H   UNK A  1       32.119 -19.381  10.382  0.00  0.00    +0.119 HD
ENDBRANCH  22  23
BRANCH  22  26
ATOM     26  C   UNK A  1       31.100 -21.045   9.071  0.00  0.00    +0.323 C 
ATOM     27  O   UNK A  1       30.188 -21.858   9.098  0.00  0.00    -0.249 OA
BRANCH  26  28
ATOM     28  O   UNK A  1       32.380 -21.366   9.401  0.00  0.00    -0.479 OA
ATOM     29  H   UNK A  1       32.822 -20.561   9.747  0.00  0.00    +0.295 HD
ENDBRANCH  26  28
ENDBRANCH  22  26
ENDBRANCH  21  22
ENDBRANCH  20  21
ENDBRANCH  19  20
ENDBRANCH  18  19
ENDBRANCH  17  18
ENDBRANCH  16  17
ENDBRANCH   2  16
TORSDOF 14
ENDMDL
MODEL 6
REMARK VINA RESULT:      -8.2      2.782      9.614
REMARK  Name = *****
REMARK                            x       y       z     vdW  Elec       q    Type
REMARK                         _______ _______ _______ _____ _____    ______ ____
ROOT
ATOM      1  C   UNK A  1       24.816 -22.274   5.691  0.00  0.00    +0.114 C 
ATOM      2  C   UNK A  1       25.594 -21.677   6.611  0.00  0.00    +0.003 C 
ENDROOT
BRANCH   1   4
ATOM      3  C   UNK A  0       23.930 -24.583   5.934  0.00  0.00    +0.221 C 
ATOM      4  N   UNK A  1       24.729 -23.617   5.341  0.00  0.00    -0.280 N 
ATOM      5  H   UNK A  1       25.511 -23.965   4.809  0.00  0.00    +0.155 HD
ATOM      6  O   UNK A  0       23.171 -24.405   6.848  0.00  0.00    -0.275 OA
BRANCH   3   9
ATOM      7  C   UNK A  0       26.076 -26.505   7.277  0.00  0.00    +0.011 C 
ATOM      8  C   UNK A  0       25.264 -26.913   6.069  0.00  0.00    -0.023 C 
ATOM      9  C   UNK A  0       24.189 -25.989   5.469  0.00  0.00    +0.082 C 
ATOM     10  C   UNK A  0       25.513 -26.207   4.759  0.00  0.00    +0.020 C 
ATOM     11  C   UNK A  0       25.033 -28.405   6.005  0.00  0.00    +0.011 C 
ENDBRANCH   3   9
ENDBRANCH   1   4
BRANCH   1  12
ATOM     12  C   UNK A  1       23.818 -21.388   4.990  0.00  0.00    +0.351 C 
ATOM     13  O   UNK A  1       23.104 -20.577   5.553  0.00  0.00    -0.244 OA
BRANCH  12  14
ATOM     14  O   UNK A  1       23.741 -21.589   3.657  0.00  0.00    -0.476 OA
ATOM     15  H   UNK A  1       23.343 -20.776   3.285  0.00  0.00    +0.295 HD
ENDBRANCH  12  14
ENDBRANCH   1  12
BRANCH   2  16
ATOM     16  C   UNK A  1       26.584 -22.198   7.607  0.00  0.00    +0.029 C 
BRANCH  16  17
ATOM     17  C   UNK A  1       28.014 -21.800   7.248  0.00  0.00    +0.005 C 
BRANCH  17  18
ATOM     18  C   UNK A  1       28.143 -20.309   6.889  0.00  0.00    +0.011 C 
BRANCH  18  19
ATOM     19  C   UNK A  1       29.064 -19.527   7.838  0.00  0.00    +0.069 C 
BRANCH  19  20
ATOM     20  S   UNK A  1       30.734 -19.285   7.101  0.00  0.00    -0.159 S 
BRANCH  20  21
ATOM     21  C   UNK A  1       31.626 -18.714   8.600  0.00  0.00    +0.099 C 
BRANCH  21  22
ATOM     22  C   UNK A  1       31.297 -17.263   9.030  0.00  0.00    +0.170 C 
BRANCH  22  23
ATOM     23  N   UNK A  1       32.390 -16.257   9.014  0.00  0.00    -0.318 NA
ATOM     24  H   UNK A  1       32.625 -16.013   8.050  0.00  0.00    +0.119 HD
ATOM     25  H   UNK A  1       33.241 -16.696   9.380  0.00  0.00    +0.119 HD
ENDBRANCH  22  23
BRANCH  22  26
ATOM     26  C   UNK A  1       30.733 -17.286  10.465  0.00  0.00    +0.323 C 
ATOM     27  O   UNK A  1       30.381 -16.312  11.112  0.00  0.00    -0.249 OA
BRANCH  26  28
ATOM     28  O   UNK A  1       30.678 -18.554  10.956  0.00  0.00    -0.479 OA
ATOM     29  H   UNK A  1       29.740 -18.771  11.148  0.00  0.00    +0.295 HD
ENDBRANCH  26  28
ENDBRANCH  22  26
ENDBRANCH  21  22
ENDBRANCH  20  21
ENDBRANCH  19  20
ENDBRANCH  18  19
ENDBRANCH  17  18
ENDBRANCH  16  17
ENDBRANCH   2  16
TORSDOF 14
ENDMDL
MODEL 7
REMARK VINA RESULT:      -7.5      4.019      6.369
REMARK  Name = *****
REMARK                            x       y       z     vdW  Elec       q    Type
REMARK                         _______ _______ _______ _____ _____    ______ ____
ROOT
ATOM      1  C   UNK A  1       25.014 -21.243   5.514  0.00  0.00    +0.114 C 
ATOM      2  C   UNK A  1       23.887 -21.907   5.828  0.00  0.00    +0.003 C 
ENDROOT
BRANCH   1   4
ATOM      3  C   UNK A  0       26.513 -20.688   7.417  0.00  0.00    +0.221 C 
ATOM      4  N   UNK A  1       26.241 -21.224   6.167  0.00  0.00    -0.280 N 
ATOM      5  H   UNK A  1       27.040 -21.352   5.565  0.00  0.00    +0.155 HD
ATOM      6  O   UNK A  0       25.717 -20.162   8.146  0.00  0.00    -0.275 OA
BRANCH   3   9
ATOM      7  C   UNK A  0       28.683 -19.069   5.752  0.00  0.00    +0.011 C 
ATOM      8  C   UNK A  0       29.044 -19.912   6.954  0.00  0.00    -0.023 C 
ATOM      9  C   UNK A  0       27.971 -20.643   7.781  0.00  0.00    +0.082 C 
ATOM     10  C   UNK A  0       28.898 -21.410   6.857  0.00  0.00    +0.020 C 
ATOM     11  C   UNK A  0       30.266 -19.393   7.677  0.00  0.00    +0.011 C 
ENDBRANCH   3   9
ENDBRANCH   1   4
BRANCH   1  12
ATOM     12  C   UNK A  1       24.992 -20.475   4.218  0.00  0.00    +0.351 C 
ATOM     13  O   UNK A  1       24.015 -20.367   3.499  0.00  0.00    -0.244 OA
BRANCH  12  14
ATOM     14  O   UNK A  1       26.179 -19.927   3.880  0.00  0.00    -0.476 OA
ATOM     15  H   UNK A  1       26.039 -19.489   3.017  0.00  0.00    +0.295 HD
ENDBRANCH  12  14
ENDBRANCH   1  12
BRANCH   2  16
ATOM     16  C   UNK A  1       23.542 -22.879   6.915  0.00  0.00    +0.029 C 
BRANCH  16  17
ATOM     17  C   UNK A  1       23.977 -24.300   6.563  0.00  0.00    +0.005 C 
BRANCH  17  18
ATOM     18  C   UNK A  1       25.452 -24.572   6.907  0.00  0.00    +0.011 C 
BRANCH  18  19
ATOM     19  C   UNK A  1       25.868 -26.038   6.711  0.00  0.00    +0.069 C 
BRANCH  19  20
ATOM     20  S   UNK A  1       24.955 -26.811   5.311  0.00  0.00    -0.159 S 
BRANCH  20  21
ATOM     21  C   UNK A  1       25.647 -28.507   5.423  0.00  0.00    +0.099 C 
BRANCH  21  22
ATOM     22  C   UNK A  1       24.614 -29.600   5.795  0.00  0.00    +0.170 C 
BRANCH  22  23
ATOM     23  N   UNK A  1       23.196 -29.393   5.403  0.00  0.00    -0.318 NA
ATOM     24  H   UNK A  1       22.974 -29.961   4.583  0.00  0.00    +0.119 HD
ATOM     25  H   UNK A  1       23.086 -28.426   5.080  0.00  0.00    +0.119 HD
ENDBRANCH  22  23
BRANCH  22  26
ATOM     26  C   UNK A  1       24.631 -29.797   7.324  0.00  0.00    +0.323 C 
ATOM     27  O   UNK A  1       23.670 -30.088   8.019  0.00  0.00    -0.249 OA
BRANCH  26  28
ATOM     28  O   UNK A  1       25.874 -29.595   7.837  0.00  0.00    -0.479 OA
ATOM     29  H   UNK A  1       26.516 -29.572   7.095  0.00  0.00    +0.295 HD
ENDBRANCH  26  28
ENDBRANCH  22  26
ENDBRANCH  21  22
ENDBRANCH  20  21
ENDBRANCH  19  20
ENDBRANCH  18  19
ENDBRANCH  17  18
ENDBRANCH  16  17
ENDBRANCH   2  16
TORSDOF 14
ENDMDL
MODEL 8
REMARK VINA RESULT:      -7.2      4.323      7.072
REMARK  Name = *****
REMARK                            x       y       z     vdW  Elec       q    Type
REMARK                         _______ _______ _______ _____ _____    ______ ____
ROOT
ATOM      1  C   UNK A  1       27.239 -20.836   6.575  0.00  0.00    +0.114 C 
ATOM      2  C   UNK A  1       27.142 -21.952   7.318  0.00  0.00    +0.003 C 
ENDROOT
BRANCH   1   4
ATOM      3  C   UNK A  0       25.300 -20.465   5.065  0.00  0.00    +0.221 C 
ATOM      4  N   UNK A  1       26.235 -20.060   6.007  0.00  0.00    -0.280 N 
ATOM      5  H   UNK A  1       26.383 -19.065   6.073  0.00  0.00    +0.155 HD
ATOM      6  O   UNK A  0       25.203 -21.566   4.597  0.00  0.00    -0.275 OA
BRANCH   3   9
ATOM      7  C   UNK A  0       22.122 -20.468   5.121  0.00  0.00    +0.011 C 
ATOM      8  C   UNK A  0       22.922 -19.368   4.460  0.00  0.00    -0.023 C 
ATOM      9  C   UNK A  0       24.460 -19.356   4.493  0.00  0.00    +0.082 C 
ATOM     10  C   UNK A  0       23.712 -19.696   3.218  0.00  0.00    +0.020 C 
ATOM     11  C   UNK A  0       22.201 -18.040   4.476  0.00  0.00    +0.011 C 
ENDBRANCH   3   9
ENDBRANCH   1   4
BRANCH   1  12
ATOM     12  C   UNK A  1       28.627 -20.276   6.397  0.00  0.00    +0.351 C 
ATOM     13  O   UNK A  1       28.879 -19.232   5.822  0.00  0.00    -0.244 OA
BRANCH  12  14
ATOM     14  O   UNK A  1       29.606 -21.054   6.907  0.00  0.00    -0.476 OA
ATOM     15  H   UNK A  1       30.447 -20.597   6.705  0.00  0.00    +0.295 HD
ENDBRANCH  12  14
ENDBRANCH   1  12
BRANCH   2  16
ATOM     16  C   UNK A  1       25.976 -22.730   7.847  0.00  0.00    +0.029 C 
BRANCH  16  17
ATOM     17  C   UNK A  1       25.906 -24.130   7.240  0.00  0.00    +0.005 C 
BRANCH  17  18
ATOM     18  C   UNK A  1       24.585 -24.389   6.495  0.00  0.00    +0.011 C 
BRANCH  18  19
ATOM     19  C   UNK A  1       24.754 -25.232   5.221  0.00  0.00    +0.069 C 
BRANCH  19  20
ATOM     20  S   UNK A  1       25.974 -26.588   5.474  0.00  0.00    -0.159 S 
BRANCH  20  21
ATOM     21  C   UNK A  1       24.883 -28.021   5.118  0.00  0.00    +0.099 C 
BRANCH  21  22
ATOM     22  C   UNK A  1       24.622 -28.946   6.332  0.00  0.00    +0.170 C 
BRANCH  22  23
ATOM     23  N   UNK A  1       25.542 -28.862   7.495  0.00  0.00    -0.318 NA
ATOM     24  H   UNK A  1       25.299 -29.576   8.185  0.00  0.00    +0.119 HD
ATOM     25  H   UNK A  1       25.374 -27.974   7.978  0.00  0.00    +0.119 HD
ENDBRANCH  22  23
BRANCH  22  26
ATOM     26  C   UNK A  1       24.641 -30.411   5.852  0.00  0.00    +0.323 C 
ATOM     27  O   UNK A  1       25.636 -31.055   5.555  0.00  0.00    -0.249 OA
BRANCH  26  28
ATOM     28  O   UNK A  1       23.384 -30.926   5.779  0.00  0.00    -0.479 OA
ATOM     29  H   UNK A  1       23.423 -31.876   6.025  0.00  0.00    +0.295 HD
ENDBRANCH  26  28
ENDBRANCH  22  26
ENDBRANCH  21  22
ENDBRANCH  20  21
ENDBRANCH  19  20
ENDBRANCH  18  19
ENDBRANCH  17  18
ENDBRANCH  16  17
ENDBRANCH   2  16
TORSDOF 14
ENDMDL
MODEL 9
REMARK VINA RESULT:      -7.1      3.917      9.899
REMARK  Name = *****
REMARK                            x       y       z     vdW  Elec       q    Type
REMARK                         _______ _______ _______ _____ _____    ______ ____
ROOT
ATOM      1  C   UNK A  1       26.104 -26.333   6.168  0.00  0.00    +0.114 C 
ATOM      2  C   UNK A  1       25.667 -25.061   6.202  0.00  0.00    +0.003 C 
ENDROOT
BRANCH   1   4
ATOM      3  C   UNK A  0       25.214 -28.388   7.245  0.00  0.00    +0.221 C 
ATOM      4  N   UNK A  1       26.078 -27.306   7.161  0.00  0.00    -0.280 N 
ATOM      5  H   UNK A  1       26.530 -27.041   8.022  0.00  0.00    +0.155 HD
ATOM      6  O   UNK A  0       24.350 -28.663   6.458  0.00  0.00    -0.275 OA
BRANCH   3   9
ATOM      7  C   UNK A  0       26.158 -31.418   7.407  0.00  0.00    +0.011 C 
ATOM      8  C   UNK A  0       25.697 -30.646   8.622  0.00  0.00    -0.023 C 
ATOM      9  C   UNK A  0       25.297 -29.162   8.532  0.00  0.00    +0.082 C 
ATOM     10  C   UNK A  0       24.246 -30.241   8.713  0.00  0.00    +0.020 C 
ATOM     11  C   UNK A  0       26.349 -31.130   9.896  0.00  0.00    +0.011 C 
ENDBRANCH   3   9
ENDBRANCH   1   4
BRANCH   1  12
ATOM     12  C   UNK A  1       26.615 -26.823   4.837  0.00  0.00    +0.351 C 
ATOM     13  O   UNK A  1       25.964 -26.824   3.808  0.00  0.00    -0.244 OA
BRANCH  12  14
ATOM     14  O   UNK A  1       27.874 -27.310   4.875  0.00  0.00    -0.476 OA
ATOM     15  H   UNK A  1       28.443 -26.618   4.483  0.00  0.00    +0.295 HD
ENDBRANCH  12  14
ENDBRANCH   1  12
BRANCH   2  16
ATOM     16  C   UNK A  1       24.968 -24.248   7.248  0.00  0.00    +0.029 C 
BRANCH  16  17
ATOM     17  C   UNK A  1       25.072 -22.751   6.965  0.00  0.00    +0.005 C 
BRANCH  17  18
ATOM     18  C   UNK A  1       26.505 -22.214   7.127  0.00  0.00    +0.011 C 
BRANCH  18  19
ATOM     19  C   UNK A  1       26.634 -20.710   6.839  0.00  0.00    +0.069 C 
BRANCH  19  20
ATOM     20  S   UNK A  1       28.371 -20.252   6.436  0.00  0.00    -0.159 S 
BRANCH  20  21
ATOM     21  C   UNK A  1       29.238 -21.364   7.613  0.00  0.00    +0.099 C 
BRANCH  21  22
ATOM     22  C   UNK A  1       30.464 -20.728   8.313  0.00  0.00    +0.170 C 
BRANCH  22  23
ATOM     23  N   UNK A  1       31.531 -20.135   7.468  0.00  0.00    -0.318 NA
ATOM     24  H   UNK A  1       31.145 -19.851   6.566  0.00  0.00    +0.119 HD
ATOM     25  H   UNK A  1       32.206 -20.870   7.235  0.00  0.00    +0.119 HD
ENDBRANCH  22  23
BRANCH  22  26
ATOM     26  C   UNK A  1       31.136 -21.795   9.200  0.00  0.00    +0.323 C 
ATOM     27  O   UNK A  1       30.785 -22.117  10.324  0.00  0.00    -0.249 OA
BRANCH  26  28
ATOM     28  O   UNK A  1       32.209 -22.353   8.578  0.00  0.00    -0.479 OA
ATOM     29  H   UNK A  1       32.346 -23.254   8.942  0.00  0.00    +0.295 HD
ENDBRANCH  26  28
ENDBRANCH  22  26
ENDBRANCH  21  22
ENDBRANCH  20  21
ENDBRANCH  19  20
ENDBRANCH  18  19
ENDBRANCH  17  18
ENDBRANCH  16  17
ENDBRANCH   2  16
TORSDOF 14
ENDMDL
