MODEL 1
REMARK VINA RESULT:      -3.7      0.000      0.000
REMARK  Name = *****
REMARK                            x       y       z     vdW  Elec       q    Type
REMARK                         _______ _______ _______ _____ _____    ______ ____
ROOT
ATOM      1  C   LIG    1       25.580 -14.309   3.605  0.00  0.00    +0.135 C 
ATOM      2  C   LIG    1       24.111 -14.391   4.045  0.00  0.00    +0.049 C 
ATOM      3  C   LIG    1       26.162 -15.712   3.379  0.00  0.00    +0.049 C 
ENDROOT
BRANCH   1   4
ATOM      4  O   LIG    1       25.710 -13.502   2.415  0.00  0.00    -0.370 OA
ATOM      5  C   LIG    1       24.611 -12.671   2.065  0.00  0.00    +0.195 C 
ENDBRANCH   1   4
BRANCH   1   6
ATOM      6  C   LIG    1       26.410 -13.563   4.673  0.00  0.00    +0.489 C 
BRANCH   6   8
ATOM      7  C   LIG    1       28.816 -12.978   3.863  0.00  0.00    -0.237 C 
ATOM      8  N   LIG    1       27.739 -13.249   4.235  0.00  0.00    -0.310 NA
ENDBRANCH   6   8
ENDBRANCH   1   6
TORSDOF 3
ENDMDL
MODEL 2
REMARK VINA RESULT:      -3.5      1.676      3.154
REMARK  Name = *****
REMARK                            x       y       z     vdW  Elec       q    Type
REMARK                         _______ _______ _______ _____ _____    ______ ____
ROOT
ATOM      1  C   LIG    1       25.822 -14.247   3.586  0.00  0.00    +0.135 C 
ATOM      2  C   LIG    1       26.384 -15.666   3.414  0.00  0.00    +0.049 C 
ATOM      3  C   LIG    1       24.422 -14.285   4.215  0.00  0.00    +0.049 C 
ENDROOT
BRANCH   1   4
ATOM      4  O   LIG    1       26.719 -13.439   4.377  0.00  0.00    -0.370 OA
ATOM      5  C   LIG    1       28.069 -13.345   3.946  0.00  0.00    +0.195 C 
ENDBRANCH   1   4
BRANCH   1   6
ATOM      6  C   LIG    1       25.762 -13.534   2.216  0.00  0.00    +0.489 C 
BRANCH   6   8
ATOM      7  C   LIG    1       24.203 -11.447   2.196  0.00  0.00    -0.237 C 
ATOM      8  N   LIG    1       24.900 -12.388   2.216  0.00  0.00    -0.310 NA
ENDBRANCH   6   8
ENDBRANCH   1   6
TORSDOF 3
ENDMDL
MODEL 3
REMARK VINA RESULT:      -3.5      0.756      2.031
REMARK  Name = *****
REMARK                            x       y       z     vdW  Elec       q    Type
REMARK                         _______ _______ _______ _____ _____    ______ ____
ROOT
ATOM      1  C   LIG    1       25.530 -14.092   3.472  0.00  0.00    +0.135 C 
ATOM      2  C   LIG    1       25.283 -12.923   2.506  0.00  0.00    +0.049 C 
ATOM      3  C   LIG    1       24.205 -14.627   4.034  0.00  0.00    +0.049 C 
ENDROOT
BRANCH   1   4
ATOM      4  O   LIG    1       26.272 -15.143   2.818  0.00  0.00    -0.370 OA
ATOM      5  C   LIG    1       26.175 -16.451   3.366  0.00  0.00    +0.195 C 
ENDBRANCH   1   4
BRANCH   1   6
ATOM      6  C   LIG    1       26.444 -13.633   4.631  0.00  0.00    +0.489 C 
BRANCH   6   8
ATOM      7  C   LIG    1       28.831 -12.968   3.827  0.00  0.00    -0.237 C 
ATOM      8  N   LIG    1       27.762 -13.273   4.199  0.00  0.00    -0.310 NA
ENDBRANCH   6   8
ENDBRANCH   1   6
TORSDOF 3
ENDMDL
MODEL 4
REMARK VINA RESULT:      -3.4      6.579      7.621
REMARK  Name = *****
REMARK                            x       y       z     vdW  Elec       q    Type
REMARK                         _______ _______ _______ _____ _____    ______ ____
ROOT
ATOM      1  C   LIG    1       22.901 -20.262   5.021  0.00  0.00    +0.135 C 
ATOM      2  C   LIG    1       21.747 -21.260   4.845  0.00  0.00    +0.049 C 
ATOM      3  C   LIG    1       22.434 -18.828   4.734  0.00  0.00    +0.049 C 
ENDROOT
BRANCH   1   4
ATOM      4  O   LIG    1       23.461 -20.362   6.348  0.00  0.00    -0.370 OA
ATOM      5  C   LIG    1       23.240 -21.571   7.062  0.00  0.00    +0.195 C 
ENDBRANCH   1   4
BRANCH   1   6
ATOM      6  C   LIG    1       24.067 -20.632   4.077  0.00  0.00    +0.489 C 
BRANCH   6   8
ATOM      7  C   LIG    1       26.402 -19.997   5.042  0.00  0.00    -0.237 C 
ATOM      8  N   LIG    1       25.352 -20.272   4.602  0.00  0.00    -0.310 NA
ENDBRANCH   6   8
ENDBRANCH   1   6
TORSDOF 3
ENDMDL
MODEL 5
REMARK VINA RESULT:      -3.4      6.567      7.482
REMARK  Name = *****
REMARK                            x       y       z     vdW  Elec       q    Type
REMARK                         _______ _______ _______ _____ _____    ______ ____
ROOT
ATOM      1  C   LIG    1       22.889 -20.737   5.534  0.00  0.00    +0.135 C 
ATOM      2  C   LIG    1       23.216 -21.306   6.922  0.00  0.00    +0.049 C 
ATOM      3  C   LIG    1       21.685 -21.461   4.915  0.00  0.00    +0.049 C 
ENDROOT
BRANCH   1   4
ATOM      4  O   LIG    1       22.649 -19.316   5.610  0.00  0.00    -0.370 OA
ATOM      5  C   LIG    1       22.258 -18.653   4.416  0.00  0.00    +0.195 C 
ENDBRANCH   1   4
BRANCH   1   6
ATOM      6  C   LIG    1       24.117 -20.876   4.606  0.00  0.00    +0.489 C 
BRANCH   6   8
ATOM      7  C   LIG    1       26.378 -20.342   5.784  0.00  0.00    -0.237 C 
ATOM      8  N   LIG    1       25.355 -20.575   5.262  0.00  0.00    -0.310 NA
ENDBRANCH   6   8
ENDBRANCH   1   6
TORSDOF 3
ENDMDL
MODEL 6
REMARK VINA RESULT:      -3.3      1.934      3.043
REMARK  Name = *****
REMARK                            x       y       z     vdW  Elec       q    Type
REMARK                         _______ _______ _______ _____ _____    ______ ____
ROOT
ATOM      1  C   LIG    1       25.973 -14.308   3.576  0.00  0.00    +0.135 C 
ATOM      2  C   LIG    1       25.967 -13.559   2.235  0.00  0.00    +0.049 C 
ATOM      3  C   LIG    1       26.327 -15.788   3.375  0.00  0.00    +0.049 C 
ENDROOT
BRANCH   1   4
ATOM      4  O   LIG    1       26.888 -13.683   4.502  0.00  0.00    -0.370 OA
ATOM      5  C   LIG    1       28.159 -13.291   4.002  0.00  0.00    +0.195 C 
ENDBRANCH   1   4
BRANCH   1   6
ATOM      6  C   LIG    1       24.590 -14.186   4.254  0.00  0.00    +0.489 C 
BRANCH   6   8
ATOM      7  C   LIG    1       23.819 -11.718   4.568  0.00  0.00    -0.237 C 
ATOM      8  N   LIG    1       24.160 -12.828   4.415  0.00  0.00    -0.310 NA
ENDBRANCH   6   8
ENDBRANCH   1   6
TORSDOF 3
ENDMDL
MODEL 7
REMARK VINA RESULT:      -3.3      1.456      1.851
REMARK  Name = *****
REMARK                            x       y       z     vdW  Elec       q    Type
REMARK                         _______ _______ _______ _____ _____    ______ ____
ROOT
ATOM      1  C   LIG    1       25.038 -13.691   3.806  0.00  0.00    +0.135 C 
ATOM      2  C   LIG    1       23.804 -14.576   4.034  0.00  0.00    +0.049 C 
ATOM      3  C   LIG    1       25.049 -13.125   2.379  0.00  0.00    +0.049 C 
ENDROOT
BRANCH   1   4
ATOM      4  O   LIG    1       25.086 -12.626   4.780  0.00  0.00    -0.370 OA
ATOM      5  C   LIG    1       23.955 -11.770   4.870  0.00  0.00    +0.195 C 
ENDBRANCH   1   4
BRANCH   1   6
ATOM      6  C   LIG    1       26.325 -14.506   4.057  0.00  0.00    +0.489 C 
BRANCH   6   8
ATOM      7  C   LIG    1       28.509 -13.106   3.821  0.00  0.00    -0.237 C 
ATOM      8  N   LIG    1       27.520 -13.725   3.926  0.00  0.00    -0.310 NA
ENDBRANCH   6   8
ENDBRANCH   1   6
TORSDOF 3
ENDMDL
MODEL 8
REMARK VINA RESULT:      -3.3      1.685      2.730
REMARK  Name = *****
REMARK                            x       y       z     vdW  Elec       q    Type
REMARK                         _______ _______ _______ _____ _____    ______ ____
ROOT
ATOM      1  C   LIG    1       25.873 -14.025   3.783  0.00  0.00    +0.135 C 
ATOM      2  C   LIG    1       26.379 -13.436   5.108  0.00  0.00    +0.049 C 
ATOM      3  C   LIG    1       24.470 -14.625   3.951  0.00  0.00    +0.049 C 
ENDROOT
BRANCH   1   4
ATOM      4  O   LIG    1       25.881 -13.020   2.746  0.00  0.00    -0.370 OA
ATOM      5  C   LIG    1       24.623 -12.540   2.291  0.00  0.00    +0.195 C 
ENDBRANCH   1   4
BRANCH   1   6
ATOM      6  C   LIG    1       26.852 -15.110   3.281  0.00  0.00    +0.489 C 
BRANCH   6   8
ATOM      7  C   LIG    1       25.830 -17.506   3.282  0.00  0.00    -0.237 C 
ATOM      8  N   LIG    1       26.279 -16.424   3.276  0.00  0.00    -0.310 NA
ENDBRANCH   6   8
ENDBRANCH   1   6
TORSDOF 3
ENDMDL
MODEL 9
REMARK VINA RESULT:      -3.3      1.838      3.234
REMARK  Name = *****
REMARK                            x       y       z     vdW  Elec       q    Type
REMARK                         _______ _______ _______ _____ _____    ______ ____
ROOT
ATOM      1  C   LIG    1       27.182 -13.973   3.745  0.00  0.00    +0.135 C 
ATOM      2  C   LIG    1       26.219 -13.557   4.866  0.00  0.00    +0.049 C 
ATOM      3  C   LIG    1       28.479 -13.152   3.805  0.00  0.00    +0.049 C 
ENDROOT
BRANCH   1   4
ATOM      4  O   LIG    1       27.466 -15.387   3.818  0.00  0.00    -0.370 OA
ATOM      5  C   LIG    1       26.450 -16.281   3.386  0.00  0.00    +0.195 C 
ENDBRANCH   1   4
BRANCH   1   6
ATOM      6  C   LIG    1       26.505 -13.782   2.369  0.00  0.00    +0.489 C 
BRANCH   6   8
ATOM      7  C   LIG    1       24.428 -12.212   2.440  0.00  0.00    -0.237 C 
ATOM      8  N   LIG    1       25.366 -12.913   2.419  0.00  0.00    -0.310 NA
ENDBRANCH   6   8
ENDBRANCH   1   6
TORSDOF 3
ENDMDL
