MODEL 1
REMARK VINA RESULT:      -3.8      0.000      0.000
REMARK  Name = *****
REMARK                            x       y       z     vdW  Elec       q    Type
REMARK                         _______ _______ _______ _____ _____    ______ ____
ROOT
ATOM      1  C   LIG    1       25.854 -15.177   3.317  0.00  0.00    +0.253 C 
ATOM      2  N   LIG    1       24.512 -15.440   3.533  0.00  0.00    -0.281 N 
ATOM      3  H   LIG    1       23.865 -14.685   3.355  0.00  0.00    +0.155 HD
ATOM      4  O   LIG    1       26.762 -15.998   3.371  0.00  0.00    -0.270 OA
ENDROOT
BRANCH   1   7
ATOM      5  C   LIG    1       28.539 -13.418   3.941  0.00  0.00    +0.090 C 
ATOM      6  C   LIG    1       27.275 -13.089   3.251  0.00  0.00    +0.146 A 
ATOM      7  C   LIG    1       26.123 -13.793   2.964  0.00  0.00    +0.098 A 
ATOM      8  C   LIG    1       25.327 -12.839   2.290  0.00  0.00    +0.170 A 
ATOM      9  N   LIG    1       25.946 -11.667   2.142  0.00  0.00    -0.086 NA
ATOM     10  O   LIG    1       27.175 -11.825   2.754  0.00  0.00    -0.359 OA
ENDBRANCH   1   7
BRANCH   2  11
ATOM     11  C   LIG    1       23.914 -16.672   3.869  0.00  0.00    +0.034 A 
ATOM     12  C   LIG    1       24.679 -17.826   3.658  0.00  0.00    +0.024 A 
ATOM     13  C   LIG    1       24.173 -19.090   3.977  0.00  0.00    +0.014 A 
ATOM     14  C   LIG    1       22.886 -19.227   4.511  0.00  0.00    +0.055 A 
ATOM     15  C   LIG    1       22.119 -18.071   4.713  0.00  0.00    +0.014 A 
ATOM     16  C   LIG    1       22.628 -16.806   4.394  0.00  0.00    +0.024 A 
BRANCH  14  17
ATOM     17  C   LIG    1       22.355 -20.596   4.861  0.00  0.00    +0.417 C 
ATOM     18  F   LIG    1       22.873 -21.571   4.063  0.00  0.00    -0.166 F 
ATOM     19  F   LIG    1       21.003 -20.679   4.723  0.00  0.00    -0.166 F 
ATOM     20  F   LIG    1       22.624 -20.978   6.140  0.00  0.00    -0.166 F 
ENDBRANCH  14  17
ENDBRANCH   2  11
TORSDOF 3
ENDMDL
MODEL 2
REMARK VINA RESULT:      -3.8      1.217      2.166
REMARK  Name = *****
REMARK                            x       y       z     vdW  Elec       q    Type
REMARK                         _______ _______ _______ _____ _____    ______ ____
ROOT
ATOM      1  C   LIG    1       25.173 -14.841   3.896  0.00  0.00    +0.253 C 
ATOM      2  N   LIG    1       25.423 -16.151   3.527  0.00  0.00    -0.281 N 
ATOM      3  H   LIG    1       26.319 -16.343   3.101  0.00  0.00    +0.155 HD
ATOM      4  O   LIG    1       24.197 -14.448   4.523  0.00  0.00    -0.270 OA
ENDROOT
BRANCH   1   7
ATOM      5  C   LIG    1       24.938 -12.221   1.954  0.00  0.00    +0.090 C 
ATOM      6  C   LIG    1       26.078 -12.823   2.674  0.00  0.00    +0.146 A 
ATOM      7  C   LIG    1       26.225 -13.918   3.501  0.00  0.00    +0.098 A 
ATOM      8  C   LIG    1       27.603 -13.897   3.816  0.00  0.00    +0.170 A 
ATOM      9  N   LIG    1       28.239 -12.863   3.266  0.00  0.00    -0.086 NA
ATOM     10  O   LIG    1       27.274 -12.187   2.541  0.00  0.00    -0.359 OA
ENDBRANCH   1   7
BRANCH   2  11
ATOM     11  C   LIG    1       24.623 -17.287   3.770  0.00  0.00    +0.034 A 
ATOM     12  C   LIG    1       23.283 -17.058   4.108  0.00  0.00    +0.024 A 
ATOM     13  C   LIG    1       22.413 -18.124   4.352  0.00  0.00    +0.014 A 
ATOM     14  C   LIG    1       22.865 -19.446   4.265  0.00  0.00    +0.055 A 
ATOM     15  C   LIG    1       24.208 -19.673   3.936  0.00  0.00    +0.014 A 
ATOM     16  C   LIG    1       25.079 -18.603   3.692  0.00  0.00    +0.024 A 
BRANCH  14  17
ATOM     17  C   LIG    1       21.912 -20.589   4.520  0.00  0.00    +0.417 C 
ATOM     18  F   LIG    1       22.137 -21.193   5.720  0.00  0.00    -0.166 F 
ATOM     19  F   LIG    1       22.019 -21.571   3.583  0.00  0.00    -0.166 F 
ATOM     20  F   LIG    1       20.602 -20.219   4.526  0.00  0.00    -0.166 F 
ENDBRANCH  14  17
ENDBRANCH   2  11
TORSDOF 3
ENDMDL
MODEL 3
REMARK VINA RESULT:      -3.5      4.983      7.537
REMARK  Name = *****
REMARK                            x       y       z     vdW  Elec       q    Type
REMARK                         _______ _______ _______ _____ _____    ______ ____
ROOT
ATOM      1  C   LIG    1       24.323 -18.282   3.825  0.00  0.00    +0.253 C 
ATOM      2  N   LIG    1       24.223 -16.913   4.007  0.00  0.00    -0.281 N 
ATOM      3  H   LIG    1       23.332 -16.558   4.325  0.00  0.00    +0.155 HD
ATOM      4  O   LIG    1       25.348 -18.895   3.556  0.00  0.00    -0.270 OA
ENDROOT
BRANCH   1   7
ATOM      5  C   LIG    1       23.857 -21.274   5.058  0.00  0.00    +0.090 C 
ATOM      6  C   LIG    1       22.919 -20.253   4.550  0.00  0.00    +0.146 A 
ATOM      7  C   LIG    1       23.066 -18.985   4.025  0.00  0.00    +0.098 A 
ATOM      8  C   LIG    1       21.736 -18.601   3.742  0.00  0.00    +0.170 A 
ATOM      9  N   LIG    1       20.848 -19.530   4.094  0.00  0.00    -0.086 NA
ATOM     10  O   LIG    1       21.597 -20.576   4.601  0.00  0.00    -0.359 OA
ENDBRANCH   1   7
BRANCH   2  11
ATOM     11  C   LIG    1       25.247 -15.949   3.907  0.00  0.00    +0.034 A 
ATOM     12  C   LIG    1       24.884 -14.614   4.130  0.00  0.00    +0.024 A 
ATOM     13  C   LIG    1       25.835 -13.592   4.067  0.00  0.00    +0.014 A 
ATOM     14  C   LIG    1       27.174 -13.883   3.776  0.00  0.00    +0.055 A 
ATOM     15  C   LIG    1       27.533 -15.217   3.545  0.00  0.00    +0.014 A 
ATOM     16  C   LIG    1       26.578 -16.240   3.609  0.00  0.00    +0.024 A 
BRANCH  14  17
ATOM     17  C   LIG    1       28.194 -12.771   3.722  0.00  0.00    +0.417 C 
ATOM     18  F   LIG    1       28.347 -12.151   4.926  0.00  0.00    -0.166 F 
ATOM     19  F   LIG    1       27.848 -11.793   2.840  0.00  0.00    -0.166 F 
ATOM     20  F   LIG    1       29.437 -13.185   3.353  0.00  0.00    -0.166 F 
ENDBRANCH  14  17
ENDBRANCH   2  11
TORSDOF 3
ENDMDL
MODEL 4
REMARK VINA RESULT:      -3.3      4.897      7.458
REMARK  Name = *****
REMARK                            x       y       z     vdW  Elec       q    Type
REMARK                         _______ _______ _______ _____ _____    ______ ____
ROOT
ATOM      1  C   LIG    1       24.069 -18.895   4.035  0.00  0.00    +0.253 C 
ATOM      2  N   LIG    1       23.653 -17.635   4.431  0.00  0.00    -0.281 N 
ATOM      3  H   LIG    1       22.965 -17.593   5.170  0.00  0.00    +0.155 HD
ATOM      4  O   LIG    1       24.971 -19.133   3.242  0.00  0.00    -0.270 OA
ENDROOT
BRANCH   1   7
ATOM      5  C   LIG    1       24.896 -20.510   6.755  0.00  0.00    +0.090 C 
ATOM      6  C   LIG    1       23.741 -20.629   5.842  0.00  0.00    +0.146 A 
ATOM      7  C   LIG    1       23.351 -19.974   4.692  0.00  0.00    +0.098 A 
ATOM      8  C   LIG    1       22.142 -20.624   4.350  0.00  0.00    +0.170 A 
ATOM      9  N   LIG    1       21.801 -21.566   5.229  0.00  0.00    -0.086 NA
ATOM     10  O   LIG    1       22.814 -21.572   6.169  0.00  0.00    -0.359 OA
ENDBRANCH   1   7
BRANCH   2  11
ATOM     11  C   LIG    1       24.149 -16.385   4.007  0.00  0.00    +0.034 A 
ATOM     12  C   LIG    1       23.362 -15.262   4.292  0.00  0.00    +0.024 A 
ATOM     13  C   LIG    1       23.781 -13.980   3.922  0.00  0.00    +0.014 A 
ATOM     14  C   LIG    1       24.998 -13.795   3.254  0.00  0.00    +0.055 A 
ATOM     15  C   LIG    1       25.779 -14.921   2.962  0.00  0.00    +0.014 A 
ATOM     16  C   LIG    1       25.357 -16.204   3.333  0.00  0.00    +0.024 A 
BRANCH  14  17
ATOM     17  C   LIG    1       25.445 -12.405   2.870  0.00  0.00    +0.417 C 
ATOM     18  F   LIG    1       26.763 -12.360   2.528  0.00  0.00    -0.166 F 
ATOM     19  F   LIG    1       25.294 -11.512   3.888  0.00  0.00    -0.166 F 
ATOM     20  F   LIG    1       24.765 -11.884   1.812  0.00  0.00    -0.166 F 
ENDBRANCH  14  17
ENDBRANCH   2  11
TORSDOF 3
ENDMDL
MODEL 5
REMARK VINA RESULT:      -3.2      4.851      7.431
REMARK  Name = *****
REMARK                            x       y       z     vdW  Elec       q    Type
REMARK                         _______ _______ _______ _____ _____    ______ ____
ROOT
ATOM      1  C   LIG    1       24.021 -19.082   4.099  0.00  0.00    +0.253 C 
ATOM      2  N   LIG    1       23.654 -17.770   4.346  0.00  0.00    -0.281 N 
ATOM      3  H   LIG    1       22.824 -17.625   4.903  0.00  0.00    +0.155 HD
ATOM      4  O   LIG    1       25.051 -19.445   3.545  0.00  0.00    -0.270 OA
ENDROOT
BRANCH   1   7
ATOM      5  C   LIG    1       24.185 -20.820   6.864  0.00  0.00    +0.090 C 
ATOM      6  C   LIG    1       23.180 -20.767   5.783  0.00  0.00    +0.146 A 
ATOM      7  C   LIG    1       23.067 -20.054   4.607  0.00  0.00    +0.098 A 
ATOM      8  C   LIG    1       21.847 -20.523   4.066  0.00  0.00    +0.170 A 
ATOM      9  N   LIG    1       21.247 -21.415   4.854  0.00  0.00    -0.086 NA
ATOM     10  O   LIG    1       22.092 -21.571   5.937  0.00  0.00    -0.359 OA
ENDBRANCH   1   7
BRANCH   2  11
ATOM     11  C   LIG    1       24.357 -16.596   4.007  0.00  0.00    +0.034 A 
ATOM     12  C   LIG    1       25.690 -16.750   3.602  0.00  0.00    +0.024 A 
ATOM     13  C   LIG    1       26.460 -15.643   3.233  0.00  0.00    +0.014 A 
ATOM     14  C   LIG    1       25.913 -14.354   3.264  0.00  0.00    +0.055 A 
ATOM     15  C   LIG    1       24.583 -14.201   3.678  0.00  0.00    +0.014 A 
ATOM     16  C   LIG    1       23.814 -15.312   4.047  0.00  0.00    +0.024 A 
BRANCH  14  17
ATOM     17  C   LIG    1       26.752 -13.168   2.853  0.00  0.00    +0.417 C 
ATOM     18  F   LIG    1       27.815 -13.529   2.080  0.00  0.00    -0.166 F 
ATOM     19  F   LIG    1       27.275 -12.507   3.922  0.00  0.00    -0.166 F 
ATOM     20  F   LIG    1       26.068 -12.236   2.135  0.00  0.00    -0.166 F 
ENDBRANCH  14  17
ENDBRANCH   2  11
TORSDOF 3
ENDMDL
MODEL 6
REMARK VINA RESULT:      -3.1      4.883      7.536
REMARK  Name = *****
REMARK                            x       y       z     vdW  Elec       q    Type
REMARK                         _______ _______ _______ _____ _____    ______ ____
ROOT
ATOM      1  C   LIG    1       22.736 -18.109   4.555  0.00  0.00    +0.253 C 
ATOM      2  N   LIG    1       24.042 -18.064   4.099  0.00  0.00    -0.281 N 
ATOM      3  H   LIG    1       24.464 -18.942   3.832  0.00  0.00    +0.155 HD
ATOM      4  O   LIG    1       22.034 -17.140   4.813  0.00  0.00    -0.270 OA
ENDROOT
BRANCH   1   7
ATOM      5  C   LIG    1       23.758 -20.499   6.538  0.00  0.00    +0.090 C 
ATOM      6  C   LIG    1       22.680 -20.439   5.530  0.00  0.00    +0.146 A 
ATOM      7  C   LIG    1       22.213 -19.460   4.677  0.00  0.00    +0.098 A 
ATOM      8  C   LIG    1       21.164 -20.112   3.989  0.00  0.00    +0.170 A 
ATOM      9  N   LIG    1       20.978 -21.364   4.406  0.00  0.00    -0.086 NA
ATOM     10  O   LIG    1       21.939 -21.571   5.378  0.00  0.00    -0.359 OA
ENDBRANCH   1   7
BRANCH   2  11
ATOM     11  C   LIG    1       24.835 -16.923   3.854  0.00  0.00    +0.034 A 
ATOM     12  C   LIG    1       24.245 -15.677   4.102  0.00  0.00    +0.024 A 
ATOM     13  C   LIG    1       24.960 -14.493   3.902  0.00  0.00    +0.014 A 
ATOM     14  C   LIG    1       26.283 -14.529   3.444  0.00  0.00    +0.055 A 
ATOM     15  C   LIG    1       26.868 -15.777   3.187  0.00  0.00    +0.014 A 
ATOM     16  C   LIG    1       26.150 -16.962   3.389  0.00  0.00    +0.024 A 
BRANCH  14  17
ATOM     17  C   LIG    1       27.048 -13.244   3.242  0.00  0.00    +0.417 C 
ATOM     18  F   LIG    1       27.235 -12.564   4.408  0.00  0.00    -0.166 F 
ATOM     19  F   LIG    1       26.403 -12.382   2.408  0.00  0.00    -0.166 F 
ATOM     20  F   LIG    1       28.288 -13.421   2.709  0.00  0.00    -0.166 F 
ENDBRANCH  14  17
ENDBRANCH   2  11
TORSDOF 3
ENDMDL
MODEL 7
REMARK VINA RESULT:      -2.7      4.645      5.912
REMARK  Name = *****
REMARK                            x       y       z     vdW  Elec       q    Type
REMARK                         _______ _______ _______ _____ _____    ______ ____
ROOT
ATOM      1  C   LIG    1       25.884 -20.706   6.162  0.00  0.00    +0.253 C 
ATOM      2  N   LIG    1       25.435 -19.741   5.277  0.00  0.00    -0.281 N 
ATOM      3  H   LIG    1       26.139 -19.186   4.810  0.00  0.00    +0.155 HD
ATOM      4  O   LIG    1       25.186 -21.540   6.726  0.00  0.00    -0.270 OA
ENDROOT
BRANCH   1   7
ATOM      5  C   LIG    1       28.049 -18.545   5.007  0.00  0.00    +0.090 C 
ATOM      6  C   LIG    1       28.202 -19.752   5.845  0.00  0.00    +0.146 A 
ATOM      7  C   LIG    1       27.325 -20.687   6.355  0.00  0.00    +0.098 A 
ATOM      8  C   LIG    1       28.175 -21.572   7.057  0.00  0.00    +0.170 A 
ATOM      9  N   LIG    1       29.453 -21.195   7.015  0.00  0.00    -0.086 NA
ATOM     10  O   LIG    1       29.469 -20.047   6.244  0.00  0.00    -0.359 OA
ENDBRANCH   1   7
BRANCH   2  11
ATOM     11  C   LIG    1       24.111 -19.499   4.856  0.00  0.00    +0.034 A 
ATOM     12  C   LIG    1       23.923 -18.486   3.907  0.00  0.00    +0.024 A 
ATOM     13  C   LIG    1       22.647 -18.186   3.421  0.00  0.00    +0.014 A 
ATOM     14  C   LIG    1       21.528 -18.895   3.876  0.00  0.00    +0.055 A 
ATOM     15  C   LIG    1       21.717 -19.902   4.832  0.00  0.00    +0.014 A 
ATOM     16  C   LIG    1       22.997 -20.200   5.318  0.00  0.00    +0.024 A 
BRANCH  14  17
ATOM     17  C   LIG    1       20.157 -18.569   3.335  0.00  0.00    +0.417 C 
ATOM     18  F   LIG    1       19.355 -19.669   3.262  0.00  0.00    -0.166 F 
ATOM     19  F   LIG    1       20.205 -18.060   2.073  0.00  0.00    -0.166 F 
ATOM     20  F   LIG    1       19.475 -17.658   4.081  0.00  0.00    -0.166 F 
ENDBRANCH  14  17
ENDBRANCH   2  11
TORSDOF 3
ENDMDL
MODEL 8
REMARK VINA RESULT:      -2.6      4.926      7.461
REMARK  Name = *****
REMARK                            x       y       z     vdW  Elec       q    Type
REMARK                         _______ _______ _______ _____ _____    ______ ____
ROOT
ATOM      1  C   LIG    1       24.562 -18.740   3.994  0.00  0.00    +0.253 C 
ATOM      2  N   LIG    1       24.171 -17.414   4.070  0.00  0.00    -0.281 N 
ATOM      3  H   LIG    1       23.219 -17.234   4.355  0.00  0.00    +0.155 HD
ATOM      4  O   LIG    1       25.700 -19.139   3.780  0.00  0.00    -0.270 OA
ENDROOT
BRANCH   1   7
ATOM      5  C   LIG    1       21.348 -18.146   4.025  0.00  0.00    +0.090 C 
ATOM      6  C   LIG    1       22.131 -19.379   4.244  0.00  0.00    +0.146 A 
ATOM      7  C   LIG    1       23.479 -19.677   4.240  0.00  0.00    +0.098 A 
ATOM      8  C   LIG    1       23.500 -21.058   4.541  0.00  0.00    +0.170 A 
ATOM      9  N   LIG    1       22.277 -21.571   4.681  0.00  0.00    -0.086 NA
ATOM     10  O   LIG    1       21.413 -20.508   4.497  0.00  0.00    -0.359 OA
ENDBRANCH   1   7
BRANCH   2  11
ATOM     11  C   LIG    1       24.971 -16.264   3.904  0.00  0.00    +0.034 A 
ATOM     12  C   LIG    1       26.316 -16.471   3.572  0.00  0.00    +0.024 A 
ATOM     13  C   LIG    1       27.180 -15.390   3.374  0.00  0.00    +0.014 A 
ATOM     14  C   LIG    1       26.716 -14.075   3.506  0.00  0.00    +0.055 A 
ATOM     15  C   LIG    1       25.373 -13.871   3.847  0.00  0.00    +0.014 A 
ATOM     16  C   LIG    1       24.509 -14.956   4.045  0.00  0.00    +0.024 A 
BRANCH  14  17
ATOM     17  C   LIG    1       27.657 -12.916   3.278  0.00  0.00    +0.417 C 
ATOM     18  F   LIG    1       27.997 -12.290   4.439  0.00  0.00    -0.166 F 
ATOM     19  F   LIG    1       27.112 -11.956   2.482  0.00  0.00    -0.166 F 
ATOM     20  F   LIG    1       28.830 -13.271   2.687  0.00  0.00    -0.166 F 
ENDBRANCH  14  17
ENDBRANCH   2  11
TORSDOF 3
ENDMDL
MODEL 9
REMARK VINA RESULT:      -2.1      1.145      1.868
REMARK  Name = *****
REMARK                            x       y       z     vdW  Elec       q    Type
REMARK                         _______ _______ _______ _____ _____    ______ ____
ROOT
ATOM      1  C   LIG    1       26.434 -15.913   3.620  0.00  0.00    +0.253 C 
ATOM      2  N   LIG    1       25.067 -16.036   3.801  0.00  0.00    -0.281 N 
ATOM      3  H   LIG    1       24.520 -15.188   3.740  0.00  0.00    +0.155 HD
ATOM      4  O   LIG    1       27.232 -16.839   3.547  0.00  0.00    -0.270 OA
ENDROOT
BRANCH   1   7
ATOM      5  C   LIG    1       26.876 -13.676   5.963  0.00  0.00    +0.090 C 
ATOM      6  C   LIG    1       27.047 -13.624   4.496  0.00  0.00    +0.146 A 
ATOM      7  C   LIG    1       26.876 -14.536   3.474  0.00  0.00    +0.098 A 
ATOM      8  C   LIG    1       27.214 -13.790   2.322  0.00  0.00    +0.170 A 
ATOM      9  N   LIG    1       27.594 -12.545   2.611  0.00  0.00    -0.086 NA
ATOM     10  O   LIG    1       27.484 -12.441   3.986  0.00  0.00    -0.359 OA
ENDBRANCH   1   7
BRANCH   2  11
ATOM     11  C   LIG    1       24.316 -17.220   3.955  0.00  0.00    +0.034 A 
ATOM     12  C   LIG    1       22.987 -17.076   4.374  0.00  0.00    +0.024 A 
ATOM     13  C   LIG    1       22.162 -18.193   4.540  0.00  0.00    +0.014 A 
ATOM     14  C   LIG    1       22.652 -19.481   4.291  0.00  0.00    +0.055 A 
ATOM     15  C   LIG    1       23.984 -19.623   3.880  0.00  0.00    +0.014 A 
ATOM     16  C   LIG    1       24.808 -18.502   3.715  0.00  0.00    +0.024 A 
BRANCH  14  17
ATOM     17  C   LIG    1       21.749 -20.679   4.463  0.00  0.00    +0.417 C 
ATOM     18  F   LIG    1       20.436 -20.327   4.560  0.00  0.00    -0.166 F 
ATOM     19  F   LIG    1       22.030 -21.383   5.594  0.00  0.00    -0.166 F 
ATOM     20  F   LIG    1       21.822 -21.572   3.438  0.00  0.00    -0.166 F 
ENDBRANCH  14  17
ENDBRANCH   2  11
TORSDOF 3
ENDMDL
