MODEL 1
REMARK VINA RESULT:      -9.8      0.000      0.000
REMARK  Name = *****
REMARK                            x       y       z     vdW  Elec       q    Type
REMARK                         _______ _______ _______ _____ _____    ______ ____
ROOT
ATOM      1  C   LIG    1       29.785 -20.985   8.086  0.00  0.00    +0.124 A 
ATOM      2  C   LIG    1       29.881 -20.047   7.059  0.00  0.00    +0.067 A 
ATOM      3 CL   LIG    1       31.293 -19.111   6.724  0.00  0.00    -0.082 Cl
ATOM      4  C   LIG    1       28.774 -19.823   6.237  0.00  0.00    +0.022 A 
ATOM      5  C   LIG    1       27.583 -20.532   6.432  0.00  0.00    +0.010 A 
ATOM      6  C   LIG    1       27.473 -21.501   7.443  0.00  0.00    +0.009 A 
ATOM      7  C   LIG    1       28.592 -21.707   8.273  0.00  0.00    +0.038 A 
ENDROOT
BRANCH   6   8
ATOM      8  C   LIG    1       26.189 -22.287   7.662  0.00  0.00    +0.187 C 
ATOM      9  C   LIG    1       24.972 -21.681   7.022  0.00  0.00    +0.019 A 
ATOM     10  C   LIG    1       24.469 -22.560   6.062  0.00  0.00    +0.045 A 
ATOM     11  C   LIG    1       23.352 -22.284   5.298  0.00  0.00    +0.013 A 
ATOM     12  C   LIG    1       22.707 -21.069   5.529  0.00  0.00    +0.001 A 
ATOM     13  C   LIG    1       23.187 -20.176   6.506  0.00  0.00    +0.001 A 
ATOM     14  C   LIG    1       25.308 -23.762   6.073  0.00  0.00    +0.247 C 
ATOM     15  O   LIG    1       25.209 -24.713   5.327  0.00  0.00    -0.270 OA
ATOM     16  C   LIG    1       24.327 -20.478   7.262  0.00  0.00    +0.009 A 
ATOM     17  N   LIG    1       26.229 -23.596   7.083  0.00  0.00    -0.276 N 
ATOM     18  H   LIG    1       26.996 -24.242   7.209  0.00  0.00    +0.152 HD
BRANCH   8  19
ATOM     19  O   LIG    1       25.955 -22.500   9.035  0.00  0.00    -0.364 OA
ATOM     20  H   LIG    1       25.280 -21.839   9.262  0.00  0.00    +0.213 HD
ENDBRANCH   8  19
ENDBRANCH   6   8
BRANCH   1  21
ATOM     21  S   LIG    1       31.140 -21.313   9.168  0.00  0.00    +0.057 S 
ATOM     22  O   LIG    1       31.912 -20.102   9.333  0.00  0.00    -0.153 OA
ATOM     23  O   LIG    1       30.678 -22.079  10.300  0.00  0.00    -0.153 OA
BRANCH  21  24
ATOM     24  N   LIG    1       32.131 -22.317   8.259  0.00  0.00    -0.203 NA
ATOM     25  H   LIG    1       33.002 -21.835   8.034  0.00  0.00    +0.144 HD
ATOM     26  H   LIG    1       32.265 -23.205   8.746  0.00  0.00    +0.144 HD
ENDBRANCH  21  24
ENDBRANCH   1  21
TORSDOF 4
ENDMDL
MODEL 2
REMARK VINA RESULT:      -9.6      4.251      6.328
REMARK  Name = *****
REMARK                            x       y       z     vdW  Elec       q    Type
REMARK                         _______ _______ _______ _____ _____    ______ ____
ROOT
ATOM      1  C   LIG    1       25.309 -22.930   7.056  0.00  0.00    +0.124 A 
ATOM      2  C   LIG    1       23.932 -22.714   7.022  0.00  0.00    +0.067 A 
ATOM      3 CL   LIG    1       23.176 -21.199   7.359  0.00  0.00    -0.082 Cl
ATOM      4  C   LIG    1       23.085 -23.779   6.706  0.00  0.00    +0.022 A 
ATOM      5  C   LIG    1       23.604 -25.046   6.420  0.00  0.00    +0.010 A 
ATOM      6  C   LIG    1       24.990 -25.280   6.421  0.00  0.00    +0.009 A 
ATOM      7  C   LIG    1       25.832 -24.202   6.755  0.00  0.00    +0.038 A 
ENDROOT
BRANCH   6   8
ATOM      8  C   LIG    1       25.571 -26.650   6.103  0.00  0.00    +0.187 C 
ATOM      9  C   LIG    1       25.744 -27.544   7.298  0.00  0.00    +0.019 A 
ATOM     10  C   LIG    1       24.938 -28.674   7.150  0.00  0.00    +0.045 A 
ATOM     11  C   LIG    1       24.876 -29.685   8.089  0.00  0.00    +0.013 A 
ATOM     12  C   LIG    1       25.679 -29.551   9.222  0.00  0.00    +0.001 A 
ATOM     13  C   LIG    1       26.513 -28.429   9.382  0.00  0.00    +0.001 A 
ATOM     14  C   LIG    1       24.254 -28.569   5.857  0.00  0.00    +0.247 C 
ATOM     15  O   LIG    1       23.425 -29.337   5.420  0.00  0.00    -0.270 OA
ATOM     16  C   LIG    1       26.551 -27.414   8.417  0.00  0.00    +0.009 A 
ATOM     17  N   LIG    1       24.728 -27.429   5.247  0.00  0.00    -0.276 N 
ATOM     18  H   LIG    1       24.316 -27.077   4.394  0.00  0.00    +0.152 HD
BRANCH   8  19
ATOM     19  O   LIG    1       26.791 -26.532   5.409  0.00  0.00    -0.364 OA
ATOM     20  H   LIG    1       26.830 -27.338   4.867  0.00  0.00    +0.213 HD
ENDBRANCH   8  19
ENDBRANCH   6   8
BRANCH   1  21
ATOM     21  S   LIG    1       26.439 -21.635   7.455  0.00  0.00    +0.057 S 
ATOM     22  O   LIG    1       27.775 -22.184   7.526  0.00  0.00    -0.153 OA
ATOM     23  O   LIG    1       26.139 -20.470   6.657  0.00  0.00    -0.153 OA
BRANCH  21  24
ATOM     24  N   LIG    1       26.059 -21.261   9.046  0.00  0.00    -0.203 NA
ATOM     25  H   LIG    1       26.785 -20.667   9.447  0.00  0.00    +0.144 HD
ATOM     26  H   LIG    1       25.121 -20.856   9.092  0.00  0.00    +0.144 HD
ENDBRANCH  21  24
ENDBRANCH   1  21
TORSDOF 4
ENDMDL
MODEL 3
REMARK VINA RESULT:      -9.4      3.572      6.795
REMARK  Name = *****
REMARK                            x       y       z     vdW  Elec       q    Type
REMARK                         _______ _______ _______ _____ _____    ______ ____
ROOT
ATOM      1  C   LIG    1       25.731 -20.593   6.272  0.00  0.00    +0.124 A 
ATOM      2  C   LIG    1       25.119 -20.799   7.507  0.00  0.00    +0.067 A 
ATOM      3 CL   LIG    1       23.432 -21.099   7.720  0.00  0.00    -0.082 Cl
ATOM      4  C   LIG    1       25.898 -20.758   8.667  0.00  0.00    +0.022 A 
ATOM      5  C   LIG    1       27.275 -20.519   8.596  0.00  0.00    +0.010 A 
ATOM      6  C   LIG    1       27.917 -20.336   7.359  0.00  0.00    +0.009 A 
ATOM      7  C   LIG    1       27.118 -20.366   6.200  0.00  0.00    +0.038 A 
ENDROOT
BRANCH   6   8
ATOM      8  C   LIG    1       29.414 -20.084   7.265  0.00  0.00    +0.187 C 
ATOM      9  C   LIG    1       29.927 -19.026   8.199  0.00  0.00    +0.019 A 
ATOM     10  C   LIG    1       30.832 -19.598   9.094  0.00  0.00    +0.045 A 
ATOM     11  C   LIG    1       31.475 -18.877  10.082  0.00  0.00    +0.013 A 
ATOM     12  C   LIG    1       31.199 -17.511  10.154  0.00  0.00    +0.001 A 
ATOM     13  C   LIG    1       30.304 -16.911   9.249  0.00  0.00    +0.001 A 
ATOM     14  C   LIG    1       30.961 -21.017   8.752  0.00  0.00    +0.247 C 
ATOM     15  O   LIG    1       31.613 -21.844   9.355  0.00  0.00    -0.270 OA
ATOM     16  C   LIG    1       29.660 -17.667   8.262  0.00  0.00    +0.009 A 
ATOM     17  N   LIG    1       30.197 -21.228   7.626  0.00  0.00    -0.276 N 
ATOM     18  H   LIG    1       30.030 -22.157   7.269  0.00  0.00    +0.152 HD
BRANCH   8  19
ATOM     19  O   LIG    1       29.793 -19.784   5.942  0.00  0.00    -0.364 OA
ATOM     20  H   LIG    1       29.160 -20.284   5.399  0.00  0.00    +0.213 HD
ENDBRANCH   8  19
ENDBRANCH   6   8
BRANCH   1  21
ATOM     21  S   LIG    1       24.810 -20.623   4.767  0.00  0.00    +0.057 S 
ATOM     22  O   LIG    1       24.586 -21.999   4.382  0.00  0.00    -0.153 OA
ATOM     23  O   LIG    1       23.727 -19.672   4.846  0.00  0.00    -0.153 OA
BRANCH  21  24
ATOM     24  N   LIG    1       25.900 -20.045   3.630  0.00  0.00    -0.203 NA
ATOM     25  H   LIG    1       25.434 -19.388   3.003  0.00  0.00    +0.144 HD
ATOM     26  H   LIG    1       26.718 -19.656   4.101  0.00  0.00    +0.144 HD
ENDBRANCH  21  24
ENDBRANCH   1  21
TORSDOF 4
ENDMDL
MODEL 4
REMARK VINA RESULT:      -8.8      3.052      6.501
REMARK  Name = *****
REMARK                            x       y       z     vdW  Elec       q    Type
REMARK                         _______ _______ _______ _____ _____    ______ ____
ROOT
ATOM      1  C   LIG    1       26.666 -20.655   7.101  0.00  0.00    +0.124 A 
ATOM      2  C   LIG    1       26.260 -20.287   5.819  0.00  0.00    +0.067 A 
ATOM      3 CL   LIG    1       24.680 -20.567   5.180  0.00  0.00    -0.082 Cl
ATOM      4  C   LIG    1       27.174 -19.657   4.971  0.00  0.00    +0.022 A 
ATOM      5  C   LIG    1       28.479 -19.390   5.398  0.00  0.00    +0.010 A 
ATOM      6  C   LIG    1       28.902 -19.727   6.695  0.00  0.00    +0.009 A 
ATOM      7  C   LIG    1       27.975 -20.374   7.534  0.00  0.00    +0.038 A 
ENDROOT
BRANCH   6   8
ATOM      8  C   LIG    1       30.315 -19.435   7.178  0.00  0.00    +0.187 C 
ATOM      9  C   LIG    1       30.387 -18.558   8.395  0.00  0.00    +0.019 A 
ATOM     10  C   LIG    1       30.974 -19.270   9.444  0.00  0.00    +0.045 A 
ATOM     11  C   LIG    1       31.177 -18.732  10.699  0.00  0.00    +0.013 A 
ATOM     12  C   LIG    1       30.783 -17.408  10.897  0.00  0.00    +0.001 A 
ATOM     13  C   LIG    1       30.207 -16.667   9.848  0.00  0.00    +0.001 A 
ATOM     14  C   LIG    1       31.328 -20.599   8.937  0.00  0.00    +0.247 C 
ATOM     15  O   LIG    1       31.798 -21.511   9.584  0.00  0.00    -0.270 OA
ATOM     16  C   LIG    1       30.006 -17.239   8.585  0.00  0.00    +0.009 A 
ATOM     17  N   LIG    1       31.016 -20.612   7.596  0.00  0.00    -0.276 N 
ATOM     18  H   LIG    1       31.059 -21.462   7.053  0.00  0.00    +0.152 HD
BRANCH   8  19
ATOM     19  O   LIG    1       31.099 -18.889   6.143  0.00  0.00    -0.364 OA
ATOM     20  H   LIG    1       30.446 -18.573   5.497  0.00  0.00    +0.213 HD
ENDBRANCH   8  19
ENDBRANCH   6   8
BRANCH   1  21
ATOM     21  S   LIG    1       25.568 -21.461   8.223  0.00  0.00    +0.057 S 
ATOM     22  O   LIG    1       25.450 -22.852   7.845  0.00  0.00    -0.153 OA
ATOM     23  O   LIG    1       25.885 -21.066   9.574  0.00  0.00    -0.153 OA
BRANCH  21  24
ATOM     24  N   LIG    1       24.072 -20.800   7.848  0.00  0.00    -0.203 NA
ATOM     25  H   LIG    1       23.741 -21.172   6.957  0.00  0.00    +0.144 HD
ATOM     26  H   LIG    1       23.424 -20.949   8.624  0.00  0.00    +0.144 HD
ENDBRANCH  21  24
ENDBRANCH   1  21
TORSDOF 4
ENDMDL
MODEL 5
REMARK VINA RESULT:      -8.4      2.586      3.403
REMARK  Name = *****
REMARK                            x       y       z     vdW  Elec       q    Type
REMARK                         _______ _______ _______ _____ _____    ______ ____
ROOT
ATOM      1  C   LIG    1       29.310 -20.039   7.123  0.00  0.00    +0.124 A 
ATOM      2  C   LIG    1       29.618 -20.977   8.107  0.00  0.00    +0.067 A 
ATOM      3 CL   LIG    1       31.085 -20.987   9.018  0.00  0.00    -0.082 Cl
ATOM      4  C   LIG    1       28.700 -21.992   8.389  0.00  0.00    +0.022 A 
ATOM      5  C   LIG    1       27.484 -22.069   7.702  0.00  0.00    +0.010 A 
ATOM      6  C   LIG    1       27.141 -21.118   6.725  0.00  0.00    +0.009 A 
ATOM      7  C   LIG    1       28.081 -20.109   6.441  0.00  0.00    +0.038 A 
ENDROOT
BRANCH   6   8
ATOM      8  C   LIG    1       25.819 -21.182   5.975  0.00  0.00    +0.187 C 
ATOM      9  C   LIG    1       25.106 -22.500   6.083  0.00  0.00    +0.019 A 
ATOM     10  C   LIG    1       23.881 -22.312   6.725  0.00  0.00    +0.045 A 
ATOM     11  C   LIG    1       22.994 -23.341   6.975  0.00  0.00    +0.013 A 
ATOM     12  C   LIG    1       23.360 -24.615   6.540  0.00  0.00    +0.001 A 
ATOM     13  C   LIG    1       24.583 -24.824   5.875  0.00  0.00    +0.001 A 
ATOM     14  C   LIG    1       23.745 -20.882   7.017  0.00  0.00    +0.247 C 
ATOM     15  O   LIG    1       22.837 -20.357   7.626  0.00  0.00    -0.270 OA
ATOM     16  C   LIG    1       25.466 -23.763   5.640  0.00  0.00    +0.009 A 
ATOM     17  N   LIG    1       24.847 -20.257   6.477  0.00  0.00    -0.276 N 
ATOM     18  H   LIG    1       25.040 -19.282   6.654  0.00  0.00    +0.152 HD
BRANCH   8  19
ATOM     19  O   LIG    1       25.990 -20.835   4.621  0.00  0.00    -0.364 OA
ATOM     20  H   LIG    1       25.916 -21.684   4.152  0.00  0.00    +0.213 HD
ENDBRANCH   8  19
ENDBRANCH   6   8
BRANCH   1  21
ATOM     21  S   LIG    1       30.424 -18.735   6.708  0.00  0.00    +0.057 S 
ATOM     22  O   LIG    1       30.296 -17.680   7.688  0.00  0.00    -0.153 OA
ATOM     23  O   LIG    1       31.708 -19.292   6.356  0.00  0.00    -0.153 OA
BRANCH  21  24
ATOM     24  N   LIG    1       29.762 -18.086   5.309  0.00  0.00    -0.203 NA
ATOM     25  H   LIG    1       30.418 -18.188   4.534  0.00  0.00    +0.144 HD
ATOM     26  H   LIG    1       28.846 -18.504   5.133  0.00  0.00    +0.144 HD
ENDBRANCH  21  24
ENDBRANCH   1  21
TORSDOF 4
ENDMDL
MODEL 6
REMARK VINA RESULT:      -7.8      3.079      6.511
REMARK  Name = *****
REMARK                            x       y       z     vdW  Elec       q    Type
REMARK                         _______ _______ _______ _____ _____    ______ ____
ROOT
ATOM      1  C   LIG    1       25.765 -22.303   6.950  0.00  0.00    +0.124 A 
ATOM      2  C   LIG    1       25.008 -21.493   7.795  0.00  0.00    +0.067 A 
ATOM      3 CL   LIG    1       23.309 -21.669   8.049  0.00  0.00    -0.082 Cl
ATOM      4  C   LIG    1       25.639 -20.457   8.488  0.00  0.00    +0.022 A 
ATOM      5  C   LIG    1       27.013 -20.233   8.346  0.00  0.00    +0.010 A 
ATOM      6  C   LIG    1       27.800 -21.055   7.521  0.00  0.00    +0.009 A 
ATOM      7  C   LIG    1       27.149 -22.086   6.817  0.00  0.00    +0.038 A 
ENDROOT
BRANCH   6   8
ATOM      8  C   LIG    1       29.297 -20.831   7.362  0.00  0.00    +0.187 C 
ATOM      9  C   LIG    1       29.821 -19.613   8.067  0.00  0.00    +0.019 A 
ATOM     10  C   LIG    1       30.737 -20.003   9.046  0.00  0.00    +0.045 A 
ATOM     11  C   LIG    1       31.391 -19.106   9.867  0.00  0.00    +0.013 A 
ATOM     12  C   LIG    1       31.117 -17.751   9.677  0.00  0.00    +0.001 A 
ATOM     13  C   LIG    1       30.212 -17.335   8.683  0.00  0.00    +0.001 A 
ATOM     14  C   LIG    1       30.861 -21.462   8.984  0.00  0.00    +0.247 C 
ATOM     15  O   LIG    1       31.518 -22.158   9.729  0.00  0.00    -0.270 OA
ATOM     16  C   LIG    1       29.556 -18.267   7.868  0.00  0.00    +0.009 A 
ATOM     17  N   LIG    1       30.082 -21.885   7.930  0.00  0.00    -0.276 N 
ATOM     18  H   LIG    1       29.910 -22.866   7.762  0.00  0.00    +0.152 HD
BRANCH   8  19
ATOM     19  O   LIG    1       29.660 -20.794   6.002  0.00  0.00    -0.364 OA
ATOM     20  H   LIG    1       30.265 -21.549   5.901  0.00  0.00    +0.213 HD
ENDBRANCH   8  19
ENDBRANCH   6   8
BRANCH   1  21
ATOM     21  S   LIG    1       25.034 -23.625   6.037  0.00  0.00    +0.057 S 
ATOM     22  O   LIG    1       24.053 -24.284   6.871  0.00  0.00    -0.153 OA
ATOM     23  O   LIG    1       24.715 -23.172   4.705  0.00  0.00    -0.153 OA
BRANCH  21  24
ATOM     24  N   LIG    1       26.280 -24.740   5.900  0.00  0.00    -0.203 NA
ATOM     25  H   LIG    1       26.392 -25.247   6.778  0.00  0.00    +0.144 HD
ATOM     26  H   LIG    1       26.116 -25.345   5.092  0.00  0.00    +0.144 HD
ENDBRANCH  21  24
ENDBRANCH   1  21
TORSDOF 4
ENDMDL
MODEL 7
REMARK VINA RESULT:      -7.4      2.360      3.426
REMARK  Name = *****
REMARK                            x       y       z     vdW  Elec       q    Type
REMARK                         _______ _______ _______ _____ _____    ______ ____
ROOT
ATOM      1  C   LIG    1       27.656 -20.230   6.594  0.00  0.00    +0.124 A 
ATOM      2  C   LIG    1       28.063 -19.336   5.604  0.00  0.00    +0.067 A 
ATOM      3 CL   LIG    1       29.551 -18.460   5.638  0.00  0.00    -0.082 Cl
ATOM      4  C   LIG    1       27.228 -19.110   4.507  0.00  0.00    +0.022 A 
ATOM      5  C   LIG    1       26.002 -19.773   4.393  0.00  0.00    +0.010 A 
ATOM      6  C   LIG    1       25.583 -20.698   5.364  0.00  0.00    +0.009 A 
ATOM      7  C   LIG    1       26.427 -20.906   6.472  0.00  0.00    +0.038 A 
ENDROOT
BRANCH   6   8
ATOM      8  C   LIG    1       24.256 -21.434   5.250  0.00  0.00    +0.187 C 
ATOM      9  C   LIG    1       24.362 -22.928   5.365  0.00  0.00    +0.019 A 
ATOM     10  C   LIG    1       23.653 -23.356   6.489  0.00  0.00    +0.045 A 
ATOM     11  C   LIG    1       23.564 -24.682   6.865  0.00  0.00    +0.013 A 
ATOM     12  C   LIG    1       24.210 -25.618   6.056  0.00  0.00    +0.001 A 
ATOM     13  C   LIG    1       24.914 -25.209   4.908  0.00  0.00    +0.001 A 
ATOM     14  C   LIG    1       23.044 -22.175   7.110  0.00  0.00    +0.247 C 
ATOM     15  O   LIG    1       22.409 -22.155   8.142  0.00  0.00    -0.270 OA
ATOM     16  C   LIG    1       24.994 -23.856   4.553  0.00  0.00    +0.009 A 
ATOM     17  N   LIG    1       23.341 -21.101   6.301  0.00  0.00    -0.276 N 
ATOM     18  H   LIG    1       23.132 -20.155   6.583  0.00  0.00    +0.152 HD
BRANCH   8  19
ATOM     19  O   LIG    1       23.588 -21.088   4.059  0.00  0.00    -0.364 OA
ATOM     20  H   LIG    1       24.221 -21.323   3.360  0.00  0.00    +0.213 HD
ENDBRANCH   8  19
ENDBRANCH   6   8
BRANCH   1  21
ATOM     21  S   LIG    1       28.654 -20.559   8.011  0.00  0.00    +0.057 S 
ATOM     22  O   LIG    1       28.948 -19.310   8.677  0.00  0.00    -0.153 OA
ATOM     23  O   LIG    1       28.118 -21.692   8.726  0.00  0.00    -0.153 OA
BRANCH  21  24
ATOM     24  N   LIG    1       30.123 -21.034   7.353  0.00  0.00    -0.203 NA
ATOM     25  H   LIG    1       30.773 -20.248   7.351  0.00  0.00    +0.144 HD
ATOM     26  H   LIG    1       30.473 -21.858   7.845  0.00  0.00    +0.144 HD
ENDBRANCH  21  24
ENDBRANCH   1  21
TORSDOF 4
ENDMDL
MODEL 8
REMARK VINA RESULT:      -7.4      2.206      2.390
REMARK  Name = *****
REMARK                            x       y       z     vdW  Elec       q    Type
REMARK                         _______ _______ _______ _____ _____    ______ ____
ROOT
ATOM      1  C   LIG    1       29.702 -19.041   8.588  0.00  0.00    +0.124 A 
ATOM      2  C   LIG    1       30.457 -19.282   7.442  0.00  0.00    +0.067 A 
ATOM      3 CL   LIG    1       32.053 -18.676   7.183  0.00  0.00    -0.082 Cl
ATOM      4  C   LIG    1       29.908 -20.055   6.416  0.00  0.00    +0.022 A 
ATOM      5  C   LIG    1       28.620 -20.589   6.533  0.00  0.00    +0.010 A 
ATOM      6  C   LIG    1       27.851 -20.381   7.691  0.00  0.00    +0.009 A 
ATOM      7  C   LIG    1       28.411 -19.589   8.711  0.00  0.00    +0.038 A 
ENDROOT
BRANCH   6   8
ATOM      8  C   LIG    1       26.453 -20.962   7.838  0.00  0.00    +0.187 C 
ATOM      9  C   LIG    1       25.663 -21.013   6.561  0.00  0.00    +0.019 A 
ATOM     10  C   LIG    1       25.376 -22.342   6.247  0.00  0.00    +0.045 A 
ATOM     11  C   LIG    1       24.663 -22.716   5.125  0.00  0.00    +0.013 A 
ATOM     12  C   LIG    1       24.205 -21.693   4.292  0.00  0.00    +0.001 A 
ATOM     13  C   LIG    1       24.468 -20.345   4.600  0.00  0.00    +0.001 A 
ATOM     14  C   LIG    1       25.931 -23.182   7.313  0.00  0.00    +0.247 C 
ATOM     15  O   LIG    1       25.930 -24.394   7.344  0.00  0.00    -0.270 OA
ATOM     16  C   LIG    1       25.200 -19.995   5.742  0.00  0.00    +0.009 A 
ATOM     17  N   LIG    1       26.458 -22.331   8.259  0.00  0.00    -0.276 N 
ATOM     18  H   LIG    1       27.005 -22.678   9.033  0.00  0.00    +0.152 HD
BRANCH   8  19
ATOM     19  O   LIG    1       25.723 -20.277   8.829  0.00  0.00    -0.364 OA
ATOM     20  H   LIG    1       25.462 -19.447   8.395  0.00  0.00    +0.213 HD
ENDBRANCH   8  19
ENDBRANCH   6   8
BRANCH   1  21
ATOM     21  S   LIG    1       30.328 -18.068   9.921  0.00  0.00    +0.057 S 
ATOM     22  O   LIG    1       29.321 -17.988  10.956  0.00  0.00    -0.153 OA
ATOM     23  O   LIG    1       31.684 -18.464  10.211  0.00  0.00    -0.153 OA
BRANCH  21  24
ATOM     24  N   LIG    1       30.387 -16.519   9.279  0.00  0.00    -0.203 NA
ATOM     25  H   LIG    1       30.724 -15.863   9.983  0.00  0.00    +0.144 HD
ATOM     26  H   LIG    1       30.938 -16.521   8.419  0.00  0.00    +0.144 HD
ENDBRANCH  21  24
ENDBRANCH   1  21
TORSDOF 4
ENDMDL
MODEL 9
REMARK VINA RESULT:      -6.9      4.281      5.929
REMARK  Name = *****
REMARK                            x       y       z     vdW  Elec       q    Type
REMARK                         _______ _______ _______ _____ _____    ______ ____
ROOT
ATOM      1  C   LIG    1       25.122 -22.983   6.174  0.00  0.00    +0.124 A 
ATOM      2  C   LIG    1       25.812 -22.416   7.244  0.00  0.00    +0.067 A 
ATOM      3 CL   LIG    1       26.311 -23.284   8.651  0.00  0.00    -0.082 Cl
ATOM      4  C   LIG    1       26.127 -21.055   7.205  0.00  0.00    +0.022 A 
ATOM      5  C   LIG    1       25.762 -20.267   6.108  0.00  0.00    +0.010 A 
ATOM      6  C   LIG    1       25.090 -20.824   5.007  0.00  0.00    +0.009 A 
ATOM      7  C   LIG    1       24.767 -22.193   5.065  0.00  0.00    +0.038 A 
ENDROOT
BRANCH   6   8
ATOM      8  C   LIG    1       24.694 -19.983   3.802  0.00  0.00    +0.187 C 
ATOM      9  C   LIG    1       23.695 -18.902   4.100  0.00  0.00    +0.019 A 
ATOM     10  C   LIG    1       24.270 -17.656   3.845  0.00  0.00    +0.045 A 
ATOM     11  C   LIG    1       23.599 -16.463   4.026  0.00  0.00    +0.013 A 
ATOM     12  C   LIG    1       22.278 -16.537   4.471  0.00  0.00    +0.001 A 
ATOM     13  C   LIG    1       21.672 -17.784   4.716  0.00  0.00    +0.001 A 
ATOM     14  C   LIG    1       25.630 -17.886   3.347  0.00  0.00    +0.247 C 
ATOM     15  O   LIG    1       26.451 -17.033   3.083  0.00  0.00    -0.270 OA
ATOM     16  C   LIG    1       22.379 -18.979   4.530  0.00  0.00    +0.009 A 
ATOM     17  N   LIG    1       25.793 -19.250   3.248  0.00  0.00    -0.276 N 
ATOM     18  H   LIG    1       26.693 -19.659   3.040  0.00  0.00    +0.152 HD
BRANCH   8  19
ATOM     19  O   LIG    1       24.228 -20.795   2.750  0.00  0.00    -0.364 OA
ATOM     20  H   LIG    1       24.012 -20.163   2.045  0.00  0.00    +0.213 HD
ENDBRANCH   8  19
ENDBRANCH   6   8
BRANCH   1  21
ATOM     21  S   LIG    1       24.684 -24.692   6.158  0.00  0.00    +0.057 S 
ATOM     22  O   LIG    1       25.760 -25.457   6.748  0.00  0.00    -0.153 OA
ATOM     23  O   LIG    1       23.317 -24.844   6.595  0.00  0.00    -0.153 OA
BRANCH  21  24
ATOM     24  N   LIG    1       24.734 -25.093   4.529  0.00  0.00    -0.203 NA
ATOM     25  H   LIG    1       23.786 -25.146   4.155  0.00  0.00    +0.144 HD
ATOM     26  H   LIG    1       25.339 -24.439   4.030  0.00  0.00    +0.144 HD
ENDBRANCH  21  24
ENDBRANCH   1  21
TORSDOF 4
ENDMDL
