MODEL 1
REMARK VINA RESULT:      -5.8      0.000      0.000
REMARK  Name = *****
REMARK                            x       y       z     vdW  Elec       q    Type
REMARK                         _______ _______ _______ _____ _____    ______ ____
ROOT
ATOM      1  C   LIG    1       22.337 -19.234   4.446  0.00  0.00    +0.008 C 
ATOM      2  C   LIG    1       23.020 -20.315   4.857  0.00  0.00    +0.012 C 
ENDROOT
BRANCH   1   6
ATOM      3  C   LIG    1       23.861 -15.260   4.106  0.00  0.00    +0.065 A 
ATOM      4  C   LIG    1       24.586 -16.335   3.580  0.00  0.00    +0.016 A 
ATOM      5  C   LIG    1       24.087 -17.638   3.696  0.00  0.00    +0.009 A 
ATOM      6  C   LIG    1       22.862 -17.872   4.331  0.00  0.00    -0.025 A 
ATOM      7  C   LIG    1       22.133 -16.793   4.841  0.00  0.00    +0.009 A 
ATOM      8  C   LIG    1       22.634 -15.492   4.735  0.00  0.00    +0.016 A 
BRANCH   3  11
ATOM      9  N   LIG    1       25.334 -13.514   4.856  0.00  0.00    -0.099 NA
ATOM     10  H   LIG    1       25.626 -12.557   4.651  0.00  0.00    +0.363 HD
ATOM     11  C   LIG    1       24.401 -13.872   4.037  0.00  0.00    +0.308 C 
BRANCH  11  12
ATOM     12  N   LIG    1       23.912 -12.982   3.124  0.00  0.00    -0.247 N 
ATOM     13  H   LIG    1       22.945 -13.121   2.850  0.00  0.00    +0.288 HD
ATOM     14  H   LIG    1       24.108 -12.008   3.319  0.00  0.00    +0.288 HD
ENDBRANCH  11  12
ENDBRANCH   3  11
ENDBRANCH   1   6
BRANCH   2  15
ATOM     15  C   LIG    1       24.429 -20.357   5.270  0.00  0.00    +0.017 A 
ATOM     16  C   LIG    1       25.476 -20.287   4.340  0.00  0.00    +0.125 A 
ATOM     17  C   LIG    1       26.810 -20.301   4.758  0.00  0.00    +0.061 A 
ATOM     18  C   LIG    1       27.110 -20.371   6.123  0.00  0.00    +0.068 A 
ATOM     19  C   LIG    1       26.072 -20.429   7.061  0.00  0.00    +0.017 A 
ATOM     20  C   LIG    1       24.739 -20.423   6.633  0.00  0.00    +0.012 A 
BRANCH  18  21
ATOM     21  C   LIG    1       28.536 -20.396   6.565  0.00  0.00    +0.308 C 
ATOM     22  N   LIG    1       29.127 -21.456   7.004  0.00  0.00    -0.099 NA
ATOM     23  H   LIG    1       28.488 -22.254   7.057  0.00  0.00    +0.363 HD
BRANCH  21  24
ATOM     24  N   LIG    1       29.294 -19.261   6.512  0.00  0.00    -0.247 N 
ATOM     25  H   LIG    1       29.127 -18.767   5.640  0.00  0.00    +0.288 HD
ATOM     26  H   LIG    1       29.233 -18.649   7.317  0.00  0.00    +0.288 HD
ENDBRANCH  21  24
ENDBRANCH  18  21
BRANCH  16  27
ATOM     27  O   LIG    1       25.180 -20.178   3.006  0.00  0.00    -0.506 OA
ATOM     28  H   LIG    1       25.960 -20.430   2.487  0.00  0.00    +0.292 HD
ENDBRANCH  16  27
ENDBRANCH   2  15
TORSDOF 7
ENDMDL
MODEL 2
REMARK VINA RESULT:      -5.7      1.143      1.676
REMARK  Name = *****
REMARK                            x       y       z     vdW  Elec       q    Type
REMARK                         _______ _______ _______ _____ _____    ______ ____
ROOT
ATOM      1  C   LIG    1       22.347 -18.591   4.226  0.00  0.00    +0.008 C 
ATOM      2  C   LIG    1       22.917 -19.753   4.584  0.00  0.00    +0.012 C 
ENDROOT
BRANCH   1   6
ATOM      3  C   LIG    1       24.196 -14.743   4.291  0.00  0.00    +0.065 A 
ATOM      4  C   LIG    1       24.821 -15.809   3.635  0.00  0.00    +0.016 A 
ATOM      5  C   LIG    1       24.216 -17.071   3.618  0.00  0.00    +0.009 A 
ATOM      6  C   LIG    1       22.983 -17.272   4.249  0.00  0.00    -0.025 A 
ATOM      7  C   LIG    1       22.353 -16.200   4.889  0.00  0.00    +0.009 A 
ATOM      8  C   LIG    1       22.961 -14.941   4.916  0.00  0.00    +0.016 A 
BRANCH   3  11
ATOM      9  N   LIG    1       24.268 -12.387   3.817  0.00  0.00    -0.099 NA
ATOM     10  H   LIG    1       24.815 -11.542   3.992  0.00  0.00    +0.363 HD
ATOM     11  C   LIG    1       24.849 -13.405   4.362  0.00  0.00    +0.308 C 
BRANCH  11  12
ATOM     12  N   LIG    1       26.054 -13.253   4.986  0.00  0.00    -0.247 N 
ATOM     13  H   LIG    1       26.535 -12.377   4.807  0.00  0.00    +0.288 HD
ATOM     14  H   LIG    1       26.065 -13.488   5.971  0.00  0.00    +0.288 HD
ENDBRANCH  11  12
ENDBRANCH   3  11
ENDBRANCH   1   6
BRANCH   2  15
ATOM     15  C   LIG    1       24.291 -19.942   5.069  0.00  0.00    +0.017 A 
ATOM     16  C   LIG    1       24.564 -20.570   6.293  0.00  0.00    +0.125 A 
ATOM     17  C   LIG    1       25.880 -20.765   6.722  0.00  0.00    +0.061 A 
ATOM     18  C   LIG    1       26.944 -20.342   5.916  0.00  0.00    +0.068 A 
ATOM     19  C   LIG    1       26.682 -19.724   4.688  0.00  0.00    +0.017 A 
ATOM     20  C   LIG    1       25.361 -19.525   4.269  0.00  0.00    +0.012 A 
BRANCH  18  21
ATOM     21  C   LIG    1       28.348 -20.541   6.383  0.00  0.00    +0.308 C 
ATOM     22  N   LIG    1       28.735 -21.572   7.057  0.00  0.00    -0.099 NA
ATOM     23  H   LIG    1       27.956 -22.201   7.272  0.00  0.00    +0.363 HD
BRANCH  21  24
ATOM     24  N   LIG    1       29.308 -19.612   6.098  0.00  0.00    -0.247 N 
ATOM     25  H   LIG    1       29.683 -19.769   5.166  0.00  0.00    +0.288 HD
ATOM     26  H   LIG    1       29.047 -18.645   6.247  0.00  0.00    +0.288 HD
ENDBRANCH  21  24
ENDBRANCH  18  21
BRANCH  16  27
ATOM     27  O   LIG    1       23.523 -21.020   7.062  0.00  0.00    -0.506 OA
ATOM     28  H   LIG    1       22.849 -21.412   6.485  0.00  0.00    +0.292 HD
ENDBRANCH  16  27
ENDBRANCH   2  15
TORSDOF 7
ENDMDL
MODEL 3
REMARK VINA RESULT:      -5.0      1.415      6.233
REMARK  Name = *****
REMARK                            x       y       z     vdW  Elec       q    Type
REMARK                         _______ _______ _______ _____ _____    ______ ____
ROOT
ATOM      1  C   LIG    1       23.322 -19.857   4.621  0.00  0.00    +0.008 C 
ATOM      2  C   LIG    1       22.785 -18.727   4.132  0.00  0.00    +0.012 C 
ENDROOT
BRANCH   1   6
ATOM      3  C   LIG    1       27.280 -20.307   6.157  0.00  0.00    +0.065 A 
ATOM      4  C   LIG    1       26.179 -20.614   6.963  0.00  0.00    +0.016 A 
ATOM      5  C   LIG    1       24.881 -20.462   6.459  0.00  0.00    +0.009 A 
ATOM      6  C   LIG    1       24.679 -20.010   5.151  0.00  0.00    -0.025 A 
ATOM      7  C   LIG    1       25.784 -19.720   4.343  0.00  0.00    +0.009 A 
ATOM      8  C   LIG    1       27.081 -19.861   4.847  0.00  0.00    +0.016 A 
BRANCH   3  11
ATOM      9  N   LIG    1       29.115 -21.570   7.062  0.00  0.00    -0.099 NA
ATOM     10  H   LIG    1       30.090 -21.485   7.358  0.00  0.00    +0.363 HD
ATOM     11  C   LIG    1       28.668 -20.415   6.693  0.00  0.00    +0.308 C 
BRANCH  11  12
ATOM     12  N   LIG    1       29.457 -19.307   6.803  0.00  0.00    -0.247 N 
ATOM     13  H   LIG    1       28.980 -18.452   7.069  0.00  0.00    +0.288 HD
ATOM     14  H   LIG    1       30.313 -19.434   7.330  0.00  0.00    +0.288 HD
ENDBRANCH  11  12
ENDBRANCH   3  11
ENDBRANCH   1   6
BRANCH   2  15
ATOM     15  C   LIG    1       23.442 -17.417   4.029  0.00  0.00    +0.017 A 
ATOM     16  C   LIG    1       22.869 -16.258   4.572  0.00  0.00    +0.125 A 
ATOM     17  C   LIG    1       23.524 -15.025   4.486  0.00  0.00    +0.061 A 
ATOM     18  C   LIG    1       24.776 -14.945   3.865  0.00  0.00    +0.068 A 
ATOM     19  C   LIG    1       25.361 -16.099   3.330  0.00  0.00    +0.017 A 
ATOM     20  C   LIG    1       24.695 -17.328   3.413  0.00  0.00    +0.012 A 
BRANCH  18  21
ATOM     21  C   LIG    1       25.467 -13.626   3.766  0.00  0.00    +0.308 C 
ATOM     22  N   LIG    1       26.475 -13.293   4.502  0.00  0.00    -0.099 NA
ATOM     23  H   LIG    1       26.703 -14.019   5.186  0.00  0.00    +0.363 HD
BRANCH  21  24
ATOM     24  N   LIG    1       25.049 -12.694   2.859  0.00  0.00    -0.247 N 
ATOM     25  H   LIG    1       24.312 -12.120   3.260  0.00  0.00    +0.288 HD
ATOM     26  H   LIG    1       25.777 -12.137   2.428  0.00  0.00    +0.288 HD
ENDBRANCH  21  24
ENDBRANCH  18  21
BRANCH  16  27
ATOM     27  O   LIG    1       21.662 -16.345   5.215  0.00  0.00    -0.506 OA
ATOM     28  H   LIG    1       21.492 -17.271   5.446  0.00  0.00    +0.292 HD
ENDBRANCH  16  27
ENDBRANCH   2  15
TORSDOF 7
ENDMDL
MODEL 4
REMARK VINA RESULT:      -4.5      2.936      6.249
REMARK  Name = *****
REMARK                            x       y       z     vdW  Elec       q    Type
REMARK                         _______ _______ _______ _____ _____    ______ ____
ROOT
ATOM      1  C   LIG    1       22.418 -15.374   4.108  0.00  0.00    +0.008 C 
ATOM      2  C   LIG    1       22.963 -14.147   4.088  0.00  0.00    +0.012 C 
ENDROOT
BRANCH   1   6
ATOM      3  C   LIG    1       24.547 -19.074   4.161  0.00  0.00    +0.065 A 
ATOM      4  C   LIG    1       23.208 -19.032   4.563  0.00  0.00    +0.016 A 
ATOM      5  C   LIG    1       22.512 -17.817   4.549  0.00  0.00    +0.009 A 
ATOM      6  C   LIG    1       23.147 -16.643   4.129  0.00  0.00    -0.025 A 
ATOM      7  C   LIG    1       24.482 -16.693   3.713  0.00  0.00    +0.009 A 
ATOM      8  C   LIG    1       25.182 -17.903   3.736  0.00  0.00    +0.016 A 
BRANCH   3  11
ATOM      9  N   LIG    1       26.571 -20.317   4.534  0.00  0.00    -0.099 NA
ATOM     10  H   LIG    1       26.942 -21.269   4.574  0.00  0.00    +0.363 HD
ATOM     11  C   LIG    1       25.319 -20.349   4.217  0.00  0.00    +0.308 C 
BRANCH  11  12
ATOM     12  N   LIG    1       24.714 -21.539   3.929  0.00  0.00    -0.247 N 
ATOM     13  H   LIG    1       23.944 -21.492   3.269  0.00  0.00    +0.288 HD
ATOM     14  H   LIG    1       25.342 -22.304   3.715  0.00  0.00    +0.288 HD
ENDBRANCH  11  12
ENDBRANCH   3  11
ENDBRANCH   1   6
BRANCH   2  15
ATOM     15  C   LIG    1       24.397 -13.824   4.086  0.00  0.00    +0.017 A 
ATOM     16  C   LIG    1       25.036 -13.297   2.955  0.00  0.00    +0.125 A 
ATOM     17  C   LIG    1       26.395 -12.972   2.983  0.00  0.00    +0.061 A 
ATOM     18  C   LIG    1       27.130 -13.160   4.159  0.00  0.00    +0.068 A 
ATOM     19  C   LIG    1       26.500 -13.676   5.298  0.00  0.00    +0.017 A 
ATOM     20  C   LIG    1       25.139 -14.006   5.259  0.00  0.00    +0.012 A 
BRANCH  18  21
ATOM     21  C   LIG    1       28.584 -12.822   4.183  0.00  0.00    +0.308 C 
ATOM     22  N   LIG    1       29.440 -13.299   3.343  0.00  0.00    -0.099 NA
ATOM     23  H   LIG    1       29.010 -13.968   2.699  0.00  0.00    +0.363 HD
BRANCH  21  24
ATOM     24  N   LIG    1       29.077 -11.962   5.123  0.00  0.00    -0.247 N 
ATOM     25  H   LIG    1       28.559 -12.058   5.993  0.00  0.00    +0.288 HD
ATOM     26  H   LIG    1       30.079 -11.991   5.269  0.00  0.00    +0.288 HD
ENDBRANCH  21  24
ENDBRANCH  18  21
BRANCH  16  27
ATOM     27  O   LIG    1       24.306 -13.076   1.816  0.00  0.00    -0.506 OA
ATOM     28  H   LIG    1       24.836 -12.548   1.198  0.00  0.00    +0.292 HD
ENDBRANCH  16  27
ENDBRANCH   2  15
TORSDOF 7
ENDMDL
MODEL 5
REMARK VINA RESULT:      -3.8      2.872      4.139
REMARK  Name = *****
REMARK                            x       y       z     vdW  Elec       q    Type
REMARK                         _______ _______ _______ _____ _____    ______ ____
ROOT
ATOM      1  C   LIG    1       28.585 -17.303   4.392  0.00  0.00    +0.008 C 
ATOM      2  C   LIG    1       28.393 -18.592   4.718  0.00  0.00    +0.012 C 
ENDROOT
BRANCH   1   6
ATOM      3  C   LIG    1       25.540 -14.352   3.890  0.00  0.00    +0.065 A 
ATOM      4  C   LIG    1       25.399 -15.611   3.297  0.00  0.00    +0.016 A 
ATOM      5  C   LIG    1       26.400 -16.576   3.459  0.00  0.00    +0.009 A 
ATOM      6  C   LIG    1       27.541 -16.291   4.217  0.00  0.00    -0.025 A 
ATOM      7  C   LIG    1       27.671 -15.037   4.822  0.00  0.00    +0.009 A 
ATOM      8  C   LIG    1       26.677 -14.067   4.653  0.00  0.00    +0.016 A 
BRANCH   3  11
ATOM      9  N   LIG    1       24.229 -12.489   4.658  0.00  0.00    -0.099 NA
ATOM     10  H   LIG    1       23.542 -11.799   4.347  0.00  0.00    +0.363 HD
ATOM     11  C   LIG    1       24.508 -13.295   3.687  0.00  0.00    +0.308 C 
BRANCH  11  12
ATOM     12  N   LIG    1       23.856 -13.182   2.493  0.00  0.00    -0.247 N 
ATOM     13  H   LIG    1       24.420 -12.861   1.713  0.00  0.00    +0.288 HD
ATOM     14  H   LIG    1       23.282 -13.975   2.235  0.00  0.00    +0.288 HD
ENDBRANCH  11  12
ENDBRANCH   3  11
ENDBRANCH   1   6
BRANCH   2  15
ATOM     15  C   LIG    1       27.104 -19.250   4.967  0.00  0.00    +0.017 A 
ATOM     16  C   LIG    1       26.867 -19.997   6.130  0.00  0.00    +0.125 A 
ATOM     17  C   LIG    1       25.623 -20.593   6.360  0.00  0.00    +0.061 A 
ATOM     18  C   LIG    1       24.593 -20.433   5.427  0.00  0.00    +0.068 A 
ATOM     19  C   LIG    1       24.815 -19.680   4.268  0.00  0.00    +0.017 A 
ATOM     20  C   LIG    1       26.066 -19.093   4.041  0.00  0.00    +0.012 A 
BRANCH  18  21
ATOM     21  C   LIG    1       23.269 -21.080   5.670  0.00  0.00    +0.308 C 
ATOM     22  N   LIG    1       22.365 -21.218   4.760  0.00  0.00    -0.099 NA
ATOM     23  H   LIG    1       22.648 -20.788   3.874  0.00  0.00    +0.363 HD
BRANCH  21  24
ATOM     24  N   LIG    1       22.960 -21.572   6.907  0.00  0.00    -0.247 N 
ATOM     25  H   LIG    1       22.372 -20.912   7.410  0.00  0.00    +0.288 HD
ATOM     26  H   LIG    1       22.584 -22.512   6.929  0.00  0.00    +0.288 HD
ENDBRANCH  21  24
ENDBRANCH  18  21
BRANCH  16  27
ATOM     27  O   LIG    1       27.864 -20.120   7.062  0.00  0.00    -0.506 OA
ATOM     28  H   LIG    1       28.722 -20.128   6.609  0.00  0.00    +0.292 HD
ENDBRANCH  16  27
ENDBRANCH   2  15
TORSDOF 7
ENDMDL
MODEL 6
REMARK VINA RESULT:      -3.7      2.940      4.521
REMARK  Name = *****
REMARK                            x       y       z     vdW  Elec       q    Type
REMARK                         _______ _______ _______ _____ _____    ______ ____
ROOT
ATOM      1  C   LIG    1       27.993 -16.126   3.871  0.00  0.00    +0.008 C 
ATOM      2  C   LIG    1       27.762 -17.444   3.988  0.00  0.00    +0.012 C 
ENDROOT
BRANCH   1   6
ATOM      3  C   LIG    1       25.025 -13.065   3.646  0.00  0.00    +0.065 A 
ATOM      4  C   LIG    1       25.437 -13.726   2.484  0.00  0.00    +0.016 A 
ATOM      5  C   LIG    1       26.413 -14.728   2.559  0.00  0.00    +0.009 A 
ATOM      6  C   LIG    1       26.977 -15.075   3.791  0.00  0.00    -0.025 A 
ATOM      7  C   LIG    1       26.550 -14.422   4.953  0.00  0.00    +0.009 A 
ATOM      8  C   LIG    1       25.582 -13.416   4.879  0.00  0.00    +0.016 A 
BRANCH   3  11
ATOM      9  N   LIG    1       23.677 -11.492   2.426  0.00  0.00    -0.099 NA
ATOM     10  H   LIG    1       22.954 -10.780   2.546  0.00  0.00    +0.363 HD
ATOM     11  C   LIG    1       24.023 -11.963   3.578  0.00  0.00    +0.308 C 
BRANCH  11  12
ATOM     12  N   LIG    1       23.482 -11.447   4.720  0.00  0.00    -0.247 N 
ATOM     13  H   LIG    1       24.106 -11.394   5.518  0.00  0.00    +0.288 HD
ATOM     14  H   LIG    1       22.955 -10.590   4.603  0.00  0.00    +0.288 HD
ENDBRANCH  11  12
ENDBRANCH   3  11
ENDBRANCH   1   6
BRANCH   2  15
ATOM     15  C   LIG    1       26.450 -18.102   4.063  0.00  0.00    +0.017 A 
ATOM     16  C   LIG    1       26.286 -19.360   4.660  0.00  0.00    +0.125 A 
ATOM     17  C   LIG    1       25.023 -19.955   4.745  0.00  0.00    +0.061 A 
ATOM     18  C   LIG    1       23.903 -19.284   4.242  0.00  0.00    +0.068 A 
ATOM     19  C   LIG    1       24.055 -18.022   3.654  0.00  0.00    +0.017 A 
ATOM     20  C   LIG    1       25.324 -17.437   3.565  0.00  0.00    +0.012 A 
BRANCH  18  21
ATOM     21  C   LIG    1       22.558 -19.927   4.325  0.00  0.00    +0.308 C 
ATOM     22  N   LIG    1       22.378 -21.159   4.665  0.00  0.00    -0.099 NA
ATOM     23  H   LIG    1       23.265 -21.645   4.820  0.00  0.00    +0.363 HD
BRANCH  21  24
ATOM     24  N   LIG    1       21.432 -19.208   4.040  0.00  0.00    -0.247 N 
ATOM     25  H   LIG    1       21.542 -18.246   4.347  0.00  0.00    +0.288 HD
ATOM     26  H   LIG    1       21.095 -19.270   3.086  0.00  0.00    +0.288 HD
ENDBRANCH  21  24
ENDBRANCH  18  21
BRANCH  16  27
ATOM     27  O   LIG    1       27.377 -19.998   5.189  0.00  0.00    -0.506 OA
ATOM     28  H   LIG    1       27.475 -19.741   6.119  0.00  0.00    +0.292 HD
ENDBRANCH  16  27
ENDBRANCH   2  15
TORSDOF 7
ENDMDL
MODEL 7
REMARK VINA RESULT:      -3.6      0.395      6.105
REMARK  Name = *****
REMARK                            x       y       z     vdW  Elec       q    Type
REMARK                         _______ _______ _______ _____ _____    ______ ____
ROOT
ATOM      1  C   LIG    1       23.092 -20.490   4.810  0.00  0.00    +0.008 C 
ATOM      2  C   LIG    1       22.401 -19.414   4.400  0.00  0.00    +0.012 C 
ENDROOT
BRANCH   1   6
ATOM      3  C   LIG    1       27.145 -20.526   6.152  0.00  0.00    +0.065 A 
ATOM      4  C   LIG    1       26.105 -20.746   7.062  0.00  0.00    +0.016 A 
ATOM      5  C   LIG    1       24.776 -20.730   6.621  0.00  0.00    +0.009 A 
ATOM      6  C   LIG    1       24.481 -20.500   5.273  0.00  0.00    -0.025 A 
ATOM      7  C   LIG    1       25.525 -20.297   4.364  0.00  0.00    +0.009 A 
ATOM      8  C   LIG    1       26.852 -20.302   4.803  0.00  0.00    +0.016 A 
BRANCH   3  11
ATOM      9  N   LIG    1       29.110 -21.572   7.060  0.00  0.00    -0.099 NA
ATOM     10  H   LIG    1       30.090 -21.394   7.289  0.00  0.00    +0.363 HD
ATOM     11  C   LIG    1       28.563 -20.490   6.613  0.00  0.00    +0.308 C 
BRANCH  11  12
ATOM     12  N   LIG    1       29.276 -19.327   6.572  0.00  0.00    -0.247 N 
ATOM     13  H   LIG    1       28.857 -18.537   7.052  0.00  0.00    +0.288 HD
ATOM     14  H   LIG    1       30.262 -19.414   6.789  0.00  0.00    +0.288 HD
ENDBRANCH  11  12
ENDBRANCH   3  11
ENDBRANCH   1   6
BRANCH   2  15
ATOM     15  C   LIG    1       22.892 -18.030   4.333  0.00  0.00    +0.017 A 
ATOM     16  C   LIG    1       24.097 -17.702   3.696  0.00  0.00    +0.125 A 
ATOM     17  C   LIG    1       24.532 -16.376   3.621  0.00  0.00    +0.061 A 
ATOM     18  C   LIG    1       23.750 -15.355   4.174  0.00  0.00    +0.068 A 
ATOM     19  C   LIG    1       22.540 -15.671   4.802  0.00  0.00    +0.017 A 
ATOM     20  C   LIG    1       22.115 -17.003   4.881  0.00  0.00    +0.012 A 
BRANCH  18  21
ATOM     21  C   LIG    1       24.223 -13.941   4.101  0.00  0.00    +0.308 C 
ATOM     22  N   LIG    1       25.343 -13.537   4.600  0.00  0.00    -0.099 NA
ATOM     23  H   LIG    1       25.835 -14.290   5.089  0.00  0.00    +0.363 HD
BRANCH  21  24
ATOM     24  N   LIG    1       23.465 -12.992   3.476  0.00  0.00    -0.247 N 
ATOM     25  H   LIG    1       22.492 -13.285   3.444  0.00  0.00    +0.288 HD
ATOM     26  H   LIG    1       23.567 -12.045   3.820  0.00  0.00    +0.288 HD
ENDBRANCH  21  24
ENDBRANCH  18  21
BRANCH  16  27
ATOM     27  O   LIG    1       24.842 -18.697   3.120  0.00  0.00    -0.506 OA
ATOM     28  H   LIG    1       25.780 -18.449   3.148  0.00  0.00    +0.292 HD
ENDBRANCH  16  27
ENDBRANCH   2  15
TORSDOF 7
ENDMDL
MODEL 8
REMARK VINA RESULT:      -3.3      3.363      7.161
REMARK  Name = *****
REMARK                            x       y       z     vdW  Elec       q    Type
REMARK                         _______ _______ _______ _____ _____    ______ ____
ROOT
ATOM      1  C   LIG    1       28.400 -17.086   4.542  0.00  0.00    +0.008 C 
ATOM      2  C   LIG    1       28.462 -15.749   4.432  0.00  0.00    +0.012 C 
ENDROOT
BRANCH   1   6
ATOM      3  C   LIG    1       24.926 -19.507   3.994  0.00  0.00    +0.065 A 
ATOM      4  C   LIG    1       25.037 -18.282   3.327  0.00  0.00    +0.016 A 
ATOM      5  C   LIG    1       26.176 -17.488   3.511  0.00  0.00    +0.009 A 
ATOM      6  C   LIG    1       27.207 -17.914   4.354  0.00  0.00    -0.025 A 
ATOM      7  C   LIG    1       27.099 -19.147   5.006  0.00  0.00    +0.009 A 
ATOM      8  C   LIG    1       25.959 -19.938   4.832  0.00  0.00    +0.016 A 
BRANCH   3  11
ATOM      9  N   LIG    1       23.723 -21.370   3.065  0.00  0.00    -0.099 NA
ATOM     10  H   LIG    1       22.828 -21.861   3.112  0.00  0.00    +0.363 HD
ATOM     11  C   LIG    1       23.700 -20.343   3.849  0.00  0.00    +0.308 C 
BRANCH  11  12
ATOM     12  N   LIG    1       22.559 -20.026   4.529  0.00  0.00    -0.247 N 
ATOM     13  H   LIG    1       21.993 -20.813   4.829  0.00  0.00    +0.288 HD
ATOM     14  H   LIG    1       22.670 -19.343   5.269  0.00  0.00    +0.288 HD
ENDBRANCH  11  12
ENDBRANCH   3  11
ENDBRANCH   1   6
BRANCH   2  15
ATOM     15  C   LIG    1       27.353 -14.844   4.100  0.00  0.00    +0.017 A 
ATOM     16  C   LIG    1       26.800 -13.972   5.048  0.00  0.00    +0.125 A 
ATOM     17  C   LIG    1       25.763 -13.100   4.704  0.00  0.00    +0.061 A 
ATOM     18  C   LIG    1       25.277 -13.083   3.391  0.00  0.00    +0.068 A 
ATOM     19  C   LIG    1       25.830 -13.941   2.434  0.00  0.00    +0.017 A 
ATOM     20  C   LIG    1       26.863 -14.817   2.789  0.00  0.00    +0.012 A 
BRANCH  18  21
ATOM     21  C   LIG    1       24.162 -12.157   3.029  0.00  0.00    +0.308 C 
ATOM     22  N   LIG    1       23.805 -11.914   1.813  0.00  0.00    -0.099 NA
ATOM     23  H   LIG    1       24.408 -12.391   1.136  0.00  0.00    +0.363 HD
BRANCH  21  24
ATOM     24  N   LIG    1       23.452 -11.518   4.005  0.00  0.00    -0.247 N 
ATOM     25  H   LIG    1       22.460 -11.532   3.785  0.00  0.00    +0.288 HD
ATOM     26  H   LIG    1       23.637 -11.817   4.956  0.00  0.00    +0.288 HD
ENDBRANCH  21  24
ENDBRANCH  18  21
BRANCH  16  27
ATOM     27  O   LIG    1       27.304 -13.962   6.322  0.00  0.00    -0.506 OA
ATOM     28  H   LIG    1       27.251 -14.857   6.692  0.00  0.00    +0.292 HD
ENDBRANCH  16  27
ENDBRANCH   2  15
TORSDOF 7
ENDMDL
