MODEL 1
REMARK VINA RESULT:      -6.3      0.000      0.000
REMARK  Name = *****
REMARK                            x       y       z     vdW  Elec       q    Type
REMARK                         _______ _______ _______ _____ _____    ______ ____
ROOT
ATOM      1  C   LIG    1       24.709 -32.191   7.851  0.00  0.00    -0.002 C 
ATOM      2  C   LIG    1       24.908 -31.199   9.058  0.00  0.00    -0.026 C 
ATOM      3  C   LIG    1       23.989 -29.963   9.037  0.00  0.00    +0.012 C 
ATOM      4  C   LIG    1       26.420 -30.883   8.983  0.00  0.00    -0.001 C 
ATOM      5  C   LIG    1       27.003 -30.099  10.178  0.00  0.00    +0.000 C 
ATOM      6  C   LIG    1       26.490 -30.537  11.585  0.00  0.00    +0.003 C 
ATOM      7  C   LIG    1       25.037 -31.067  11.605  0.00  0.00    +0.005 C 
ATOM      8  C   LIG    1       26.801 -29.462  12.730  0.00  0.00    -0.008 C 
ATOM      9  C   LIG    1       28.302 -29.587  13.096  0.00  0.00    +0.016 C 
ATOM     10  C   LIG    1       26.581 -28.022  12.277  0.00  0.00    -0.065 C 
ATOM     11  C   LIG    1       26.471 -26.924  13.318  0.00  0.00    +0.062 C 
ATOM     12  C   LIG    1       25.600 -27.299  14.515  0.00  0.00    +0.119 C 
ATOM     13  C   LIG    1       26.001 -28.656  15.081  0.00  0.00    +0.032 C 
ATOM     14  C   LIG    1       26.609 -27.667  10.974  0.00  0.00    -0.027 C 
ATOM     15  C   LIG    1       25.949 -29.747  14.009  0.00  0.00    +0.013 C 
ATOM     16  C   LIG    1       26.876 -28.593   9.852  0.00  0.00    +0.031 C 
ATOM     17  C   LIG    1       27.047 -32.253   8.718  0.00  0.00    +0.004 C 
ATOM     18  C   LIG    1       24.644 -31.926  10.405  0.00  0.00    +0.007 C 
ATOM     19  C   LIG    1       26.087 -32.904   7.714  0.00  0.00    +0.004 C 
ENDROOT
BRANCH   1  20
ATOM     20  C   LIG    1       24.190 -31.586   6.485  0.00  0.00    -0.010 C 
ATOM     21  C   LIG    1       23.266 -32.583   5.758  0.00  0.00    +0.008 C 
BRANCH  20  22
ATOM     22  C   LIG    1       25.320 -31.102   5.541  0.00  0.00    +0.003 C 
BRANCH  22  23
ATOM     23  C   LIG    1       25.641 -29.603   5.591  0.00  0.00    +0.000 C 
BRANCH  23  24
ATOM     24  C   LIG    1       24.373 -28.726   5.586  0.00  0.00    +0.003 C 
BRANCH  24  26
ATOM     25  C   LIG    1       25.871 -27.201   6.941  0.00  0.00    +0.007 C 
ATOM     26  C   LIG    1       24.470 -27.385   6.346  0.00  0.00    -0.017 C 
ATOM     27  C   LIG    1       24.145 -26.190   5.450  0.00  0.00    +0.007 C 
ENDBRANCH  24  26
ENDBRANCH  23  24
ENDBRANCH  22  23
ENDBRANCH  20  22
ENDBRANCH   1  20
BRANCH  12  28
ATOM     28  O   LIG    1       24.218 -27.299  14.151  0.00  0.00    -0.392 OA
ATOM     29  H   LIG    1       23.806 -26.509  14.542  0.00  0.00    +0.210 HD
ENDBRANCH  12  28
TORSDOF 6
ENDMDL
MODEL 2
REMARK VINA RESULT:      -6.1      2.525      7.036
REMARK  Name = *****
REMARK                            x       y       z     vdW  Elec       q    Type
REMARK                         _______ _______ _______ _____ _____    ______ ____
ROOT
ATOM      1  C   LIG    1       27.190 -27.867  13.499  0.00  0.00    -0.002 C 
ATOM      2  C   LIG    1       26.768 -28.519  12.129  0.00  0.00    -0.026 C 
ATOM      3  C   LIG    1       26.342 -27.515  11.041  0.00  0.00    +0.012 C 
ATOM      4  C   LIG    1       25.665 -29.512  12.561  0.00  0.00    -0.001 C 
ATOM      5  C   LIG    1       25.179 -30.493  11.471  0.00  0.00    +0.000 C 
ATOM      6  C   LIG    1       26.296 -31.099  10.565  0.00  0.00    +0.003 C 
ATOM      7  C   LIG    1       27.508 -30.168  10.326  0.00  0.00    +0.005 C 
ATOM      8  C   LIG    1       25.726 -31.774   9.231  0.00  0.00    -0.008 C 
ATOM      9  C   LIG    1       25.118 -33.145   9.620  0.00  0.00    +0.016 C 
ATOM     10  C   LIG    1       24.604 -30.968   8.583  0.00  0.00    -0.065 C 
ATOM     11  C   LIG    1       24.214 -31.260   7.147  0.00  0.00    +0.062 C 
ATOM     12  C   LIG    1       25.406 -31.455   6.213  0.00  0.00    +0.119 C 
ATOM     13  C   LIG    1       26.406 -32.445   6.801  0.00  0.00    +0.032 C 
ATOM     14  C   LIG    1       23.857 -30.088   9.283  0.00  0.00    -0.027 C 
ATOM     15  C   LIG    1       26.870 -32.012   8.193  0.00  0.00    +0.013 C 
ATOM     16  C   LIG    1       24.002 -29.818  10.730  0.00  0.00    +0.031 C 
ATOM     17  C   LIG    1       26.250 -30.155  13.818  0.00  0.00    +0.004 C 
ATOM     18  C   LIG    1       27.942 -29.344  11.537  0.00  0.00    +0.007 C 
ATOM     19  C   LIG    1       26.913 -28.982  14.551  0.00  0.00    +0.004 C 
ENDROOT
BRANCH   1  20
ATOM     20  C   LIG    1       26.537 -26.480  13.883  0.00  0.00    -0.010 C 
ATOM     21  C   LIG    1       27.603 -25.369  13.956  0.00  0.00    +0.008 C 
BRANCH  20  22
ATOM     22  C   LIG    1       25.700 -26.519  15.187  0.00  0.00    +0.003 C 
BRANCH  22  23
ATOM     23  C   LIG    1       24.194 -26.271  15.028  0.00  0.00    +0.000 C 
BRANCH  23  24
ATOM     24  C   LIG    1       23.741 -26.317  13.554  0.00  0.00    +0.003 C 
BRANCH  24  26
ATOM     25  C   LIG    1       22.674 -28.512  14.229  0.00  0.00    +0.007 C 
ATOM     26  C   LIG    1       22.664 -27.369  13.207  0.00  0.00    -0.017 C 
ATOM     27  C   LIG    1       21.263 -26.761  13.147  0.00  0.00    +0.007 C 
ENDBRANCH  24  26
ENDBRANCH  23  24
ENDBRANCH  22  23
ENDBRANCH  20  22
ENDBRANCH   1  20
BRANCH  12  28
ATOM     28  O   LIG    1       26.043 -30.204   5.944  0.00  0.00    -0.392 OA
ATOM     29  H   LIG    1       25.365 -29.588   5.614  0.00  0.00    +0.210 HD
ENDBRANCH  12  28
TORSDOF 6
ENDMDL
MODEL 3
REMARK VINA RESULT:      -5.7      2.969      4.232
REMARK  Name = *****
REMARK                            x       y       z     vdW  Elec       q    Type
REMARK                         _______ _______ _______ _____ _____    ______ ____
ROOT
ATOM      1  C   LIG    1       25.751 -29.693   8.808  0.00  0.00    -0.002 C 
ATOM      2  C   LIG    1       24.773 -30.188   9.939  0.00  0.00    -0.026 C 
ATOM      3  C   LIG    1       23.309 -30.366   9.494  0.00  0.00    +0.012 C 
ATOM      4  C   LIG    1       24.988 -29.134  11.049  0.00  0.00    -0.001 C 
ATOM      5  C   LIG    1       24.333 -29.449  12.411  0.00  0.00    +0.000 C 
ATOM      6  C   LIG    1       24.438 -30.934  12.881  0.00  0.00    +0.003 C 
ATOM      7  C   LIG    1       24.449 -31.973  11.735  0.00  0.00    +0.005 C 
ATOM      8  C   LIG    1       23.425 -31.290  14.068  0.00  0.00    -0.008 C 
ATOM      9  C   LIG    1       24.008 -30.700  15.377  0.00  0.00    +0.016 C 
ATOM     10  C   LIG    1       22.044 -30.667  13.886  0.00  0.00    -0.065 C 
ATOM     11  C   LIG    1       20.879 -31.193  14.702  0.00  0.00    +0.062 C 
ATOM     12  C   LIG    1       20.826 -32.717  14.786  0.00  0.00    +0.119 C 
ATOM     13  C   LIG    1       22.179 -33.291  15.190  0.00  0.00    +0.032 C 
ATOM     14  C   LIG    1       21.845 -29.576  13.116  0.00  0.00    -0.027 C 
ATOM     15  C   LIG    1       23.287 -32.838  14.237  0.00  0.00    +0.013 C 
ATOM     16  C   LIG    1       22.910 -28.846  12.393  0.00  0.00    +0.031 C 
ATOM     17  C   LIG    1       26.507 -28.957  11.068  0.00  0.00    +0.004 C 
ATOM     18  C   LIG    1       25.238 -31.562  10.494  0.00  0.00    +0.007 C 
ATOM     19  C   LIG    1       26.893 -28.972   9.584  0.00  0.00    +0.004 C 
ENDROOT
BRANCH   1  20
ATOM     20  C   LIG    1       25.142 -28.811   7.647  0.00  0.00    -0.010 C 
ATOM     21  C   LIG    1       25.061 -29.610   6.331  0.00  0.00    +0.008 C 
BRANCH  20  22
ATOM     22  C   LIG    1       25.881 -27.467   7.423  0.00  0.00    +0.003 C 
BRANCH  22  23
ATOM     23  C   LIG    1       25.601 -26.759   6.091  0.00  0.00    +0.000 C 
BRANCH  23  24
ATOM     24  C   LIG    1       24.276 -25.971   6.108  0.00  0.00    +0.003 C 
BRANCH  24  26
ATOM     25  C   LIG    1       23.137 -23.798   6.732  0.00  0.00    +0.007 C 
ATOM     26  C   LIG    1       24.401 -24.431   6.139  0.00  0.00    -0.017 C 
ATOM     27  C   LIG    1       25.618 -23.968   6.940  0.00  0.00    +0.007 C 
ENDBRANCH  24  26
ENDBRANCH  23  24
ENDBRANCH  22  23
ENDBRANCH  20  22
ENDBRANCH   1  20
BRANCH  12  28
ATOM     28  O   LIG    1       20.399 -33.274  13.540  0.00  0.00    -0.392 OA
ATOM     29  H   LIG    1       20.965 -34.042  13.348  0.00  0.00    +0.210 HD
ENDBRANCH  12  28
TORSDOF 6
ENDMDL
MODEL 4
REMARK VINA RESULT:      -5.3      1.140      1.544
REMARK  Name = *****
REMARK                            x       y       z     vdW  Elec       q    Type
REMARK                         _______ _______ _______ _____ _____    ______ ____
ROOT
ATOM      1  C   LIG    1       24.769 -31.403   6.990  0.00  0.00    -0.002 C 
ATOM      2  C   LIG    1       24.787 -30.532   8.302  0.00  0.00    -0.026 C 
ATOM      3  C   LIG    1       24.358 -29.065   8.111  0.00  0.00    +0.012 C 
ATOM      4  C   LIG    1       26.236 -30.722   8.806  0.00  0.00    -0.001 C 
ATOM      5  C   LIG    1       26.534 -30.172  10.218  0.00  0.00    +0.000 C 
ATOM      6  C   LIG    1       25.425 -30.425  11.287  0.00  0.00    +0.003 C 
ATOM      7  C   LIG    1       23.985 -30.456  10.725  0.00  0.00    +0.005 C 
ATOM      8  C   LIG    1       25.590 -29.512  12.591  0.00  0.00    -0.008 C 
ATOM      9  C   LIG    1       26.733 -30.116  13.446  0.00  0.00    +0.016 C 
ATOM     10  C   LIG    1       25.998 -28.076  12.272  0.00  0.00    -0.065 C 
ATOM     11  C   LIG    1       25.839 -27.005  13.333  0.00  0.00    +0.062 C 
ATOM     12  C   LIG    1       24.514 -27.082  14.089  0.00  0.00    +0.119 C 
ATOM     13  C   LIG    1       24.248 -28.498  14.588  0.00  0.00    +0.032 C 
ATOM     14  C   LIG    1       26.616 -27.746  11.118  0.00  0.00    -0.027 C 
ATOM     15  C   LIG    1       24.278 -29.510  13.440  0.00  0.00    +0.013 C 
ATOM     16  C   LIG    1       26.995 -28.705  10.057  0.00  0.00    +0.031 C 
ATOM     17  C   LIG    1       26.477 -32.220   8.613  0.00  0.00    +0.004 C 
ATOM     18  C   LIG    1       23.833 -31.139   9.367  0.00  0.00    +0.007 C 
ATOM     19  C   LIG    1       25.816 -32.523   7.263  0.00  0.00    +0.004 C 
ENDROOT
BRANCH   1  20
ATOM     20  C   LIG    1       25.006 -30.659   5.615  0.00  0.00    -0.010 C 
ATOM     21  C   LIG    1       25.583 -31.623   4.559  0.00  0.00    +0.008 C 
BRANCH  20  22
ATOM     22  C   LIG    1       25.885 -29.388   5.730  0.00  0.00    +0.003 C 
BRANCH  22  23
ATOM     23  C   LIG    1       25.385 -28.153   4.970  0.00  0.00    +0.000 C 
BRANCH  23  24
ATOM     24  C   LIG    1       26.191 -26.883   5.309  0.00  0.00    +0.003 C 
BRANCH  24  26
ATOM     25  C   LIG    1       23.916 -25.944   5.898  0.00  0.00    +0.007 C 
ATOM     26  C   LIG    1       25.368 -25.598   5.548  0.00  0.00    -0.017 C 
ATOM     27  C   LIG    1       25.961 -24.733   6.660  0.00  0.00    +0.007 C 
ENDBRANCH  24  26
ENDBRANCH  23  24
ENDBRANCH  22  23
ENDBRANCH  20  22
ENDBRANCH   1  20
BRANCH  12  28
ATOM     28  O   LIG    1       23.437 -26.634  13.262  0.00  0.00    -0.392 OA
ATOM     29  H   LIG    1       22.620 -27.055  13.583  0.00  0.00    +0.210 HD
ENDBRANCH  12  28
TORSDOF 6
ENDMDL
MODEL 5
REMARK VINA RESULT:      -5.0      8.610     12.505
REMARK  Name = *****
REMARK                            x       y       z     vdW  Elec       q    Type
REMARK                         _______ _______ _______ _____ _____    ______ ____
ROOT
ATOM      1  C   LIG    1       30.758 -19.400   7.709  0.00  0.00    -0.002 C 
ATOM      2  C   LIG    1       29.245 -19.639   7.341  0.00  0.00    -0.026 C 
ATOM      3  C   LIG    1       28.380 -18.365   7.306  0.00  0.00    +0.012 C 
ATOM      4  C   LIG    1       28.810 -20.687   8.392  0.00  0.00    -0.001 C 
ATOM      5  C   LIG    1       27.418 -21.317   8.175  0.00  0.00    +0.000 C 
ATOM      6  C   LIG    1       27.064 -21.677   6.698  0.00  0.00    +0.003 C 
ATOM      7  C   LIG    1       27.696 -20.744   5.639  0.00  0.00    +0.005 C 
ATOM      8  C   LIG    1       25.502 -21.944   6.473  0.00  0.00    -0.008 C 
ATOM      9  C   LIG    1       25.182 -23.356   7.029  0.00  0.00    +0.016 C 
ATOM     10  C   LIG    1       24.610 -20.965   7.231  0.00  0.00    -0.065 C 
ATOM     11  C   LIG    1       23.149 -20.841   6.846  0.00  0.00    +0.062 C 
ATOM     12  C   LIG    1       22.912 -20.799   5.338  0.00  0.00    +0.119 C 
ATOM     13  C   LIG    1       23.647 -21.936   4.636  0.00  0.00    +0.032 C 
ATOM     14  C   LIG    1       25.044 -20.295   8.320  0.00  0.00    -0.027 C 
ATOM     15  C   LIG    1       25.144 -21.914   4.952  0.00  0.00    +0.013 C 
ATOM     16  C   LIG    1       26.388 -20.438   8.921  0.00  0.00    +0.031 C 
ATOM     17  C   LIG    1       29.986 -21.665   8.412  0.00  0.00    +0.004 C 
ATOM     18  C   LIG    1       29.125 -20.296   5.940  0.00  0.00    +0.007 C 
ATOM     19  C   LIG    1       31.217 -20.754   8.325  0.00  0.00    +0.004 C 
ENDROOT
BRANCH   1  20
ATOM     20  C   LIG    1       31.102 -18.158   8.624  0.00  0.00    -0.010 C 
ATOM     21  C   LIG    1       32.576 -17.739   8.454  0.00  0.00    +0.008 C 
BRANCH  20  22
ATOM     22  C   LIG    1       30.764 -18.366  10.122  0.00  0.00    +0.003 C 
BRANCH  22  23
ATOM     23  C   LIG    1       30.688 -17.095  10.977  0.00  0.00    +0.000 C 
BRANCH  23  24
ATOM     24  C   LIG    1       31.472 -17.224  12.299  0.00  0.00    +0.003 C 
BRANCH  24  26
ATOM     25  C   LIG    1       33.010 -15.593  11.124  0.00  0.00    +0.007 C 
ATOM     26  C   LIG    1       32.817 -16.468  12.368  0.00  0.00    -0.017 C 
ATOM     27  C   LIG    1       32.924 -15.595  13.618  0.00  0.00    +0.007 C 
ENDBRANCH  24  26
ENDBRANCH  23  24
ENDBRANCH  22  23
ENDBRANCH  20  22
ENDBRANCH   1  20
BRANCH  12  28
ATOM     28  O   LIG    1       23.316 -19.538   4.801  0.00  0.00    -0.392 OA
ATOM     29  H   LIG    1       23.753 -19.703   3.946  0.00  0.00    +0.210 HD
ENDBRANCH  12  28
TORSDOF 6
ENDMDL
MODEL 6
REMARK VINA RESULT:      -5.0      1.987      2.712
REMARK  Name = *****
REMARK                            x       y       z     vdW  Elec       q    Type
REMARK                         _______ _______ _______ _____ _____    ______ ____
ROOT
ATOM      1  C   LIG    1       25.032 -31.251   7.590  0.00  0.00    -0.002 C 
ATOM      2  C   LIG    1       24.575 -31.051   9.085  0.00  0.00    -0.026 C 
ATOM      3  C   LIG    1       23.338 -30.152   9.267  0.00  0.00    +0.012 C 
ATOM      4  C   LIG    1       25.864 -30.522   9.757  0.00  0.00    -0.001 C 
ATOM      5  C   LIG    1       25.828 -30.429  11.297  0.00  0.00    +0.000 C 
ATOM      6  C   LIG    1       25.146 -31.627  12.029  0.00  0.00    +0.003 C 
ATOM      7  C   LIG    1       23.996 -32.294  11.238  0.00  0.00    +0.005 C 
ATOM      8  C   LIG    1       24.780 -31.307  13.553  0.00  0.00    -0.008 C 
ATOM      9  C   LIG    1       26.091 -31.383  14.377  0.00  0.00    +0.016 C 
ATOM     10  C   LIG    1       24.221 -29.901  13.755  0.00  0.00    -0.065 C 
ATOM     11  C   LIG    1       23.492 -29.569  15.042  0.00  0.00    +0.062 C 
ATOM     12  C   LIG    1       22.518 -30.655  15.494  0.00  0.00    +0.119 C 
ATOM     13  C   LIG    1       23.185 -32.025  15.492  0.00  0.00    +0.032 C 
ATOM     14  C   LIG    1       24.463 -28.901  12.880  0.00  0.00    -0.027 C 
ATOM     15  C   LIG    1       23.773 -32.360  14.119  0.00  0.00    +0.013 C 
ATOM     16  C   LIG    1       25.300 -29.024  11.666  0.00  0.00    +0.031 C 
ATOM     17  C   LIG    1       26.953 -31.421   9.171  0.00  0.00    +0.004 C 
ATOM     18  C   LIG    1       24.230 -32.418   9.734  0.00  0.00    +0.007 C 
ATOM     19  C   LIG    1       26.554 -31.564   7.697  0.00  0.00    +0.004 C 
ENDROOT
BRANCH   1  20
ATOM     20  C   LIG    1       24.710 -30.092   6.565  0.00  0.00    -0.010 C 
ATOM     21  C   LIG    1       25.352 -30.376   5.193  0.00  0.00    +0.008 C 
BRANCH  20  22
ATOM     22  C   LIG    1       25.103 -28.680   7.068  0.00  0.00    +0.003 C 
BRANCH  22  23
ATOM     23  C   LIG    1       25.355 -27.625   5.983  0.00  0.00    +0.000 C 
BRANCH  23  24
ATOM     24  C   LIG    1       24.192 -26.621   5.853  0.00  0.00    +0.003 C 
BRANCH  24  26
ATOM     25  C   LIG    1       23.481 -24.331   6.665  0.00  0.00    +0.007 C 
ATOM     26  C   LIG    1       24.571 -25.126   5.937  0.00  0.00    -0.017 C 
ATOM     27  C   LIG    1       25.909 -24.910   6.644  0.00  0.00    +0.007 C 
ENDBRANCH  24  26
ENDBRANCH  23  24
ENDBRANCH  22  23
ENDBRANCH  20  22
ENDBRANCH   1  20
BRANCH  12  28
ATOM     28  O   LIG    1       21.355 -30.665  14.662  0.00  0.00    -0.392 OA
ATOM     29  H   LIG    1       21.110 -29.741  14.481  0.00  0.00    +0.210 HD
ENDBRANCH  12  28
TORSDOF 6
ENDMDL
MODEL 7
REMARK VINA RESULT:      -5.0      2.031      4.167
REMARK  Name = *****
REMARK                            x       y       z     vdW  Elec       q    Type
REMARK                         _______ _______ _______ _____ _____    ______ ____
ROOT
ATOM      1  C   LIG    1       25.527 -30.669   7.783  0.00  0.00    -0.002 C 
ATOM      2  C   LIG    1       26.012 -30.210   9.209  0.00  0.00    -0.026 C 
ATOM      3  C   LIG    1       27.206 -31.004   9.771  0.00  0.00    +0.012 C 
ATOM      4  C   LIG    1       24.716 -30.311  10.047  0.00  0.00    -0.001 C 
ATOM      5  C   LIG    1       24.787 -29.712  11.469  0.00  0.00    +0.000 C 
ATOM      6  C   LIG    1       25.548 -28.354  11.590  0.00  0.00    +0.003 C 
ATOM      7  C   LIG    1       26.709 -28.175  10.584  0.00  0.00    +0.005 C 
ATOM      8  C   LIG    1       25.937 -27.984  13.097  0.00  0.00    -0.008 C 
ATOM      9  C   LIG    1       24.654 -27.475  13.802  0.00  0.00    +0.016 C 
ATOM     10  C   LIG    1       26.429 -29.184  13.903  0.00  0.00    -0.065 C 
ATOM     11  C   LIG    1       27.174 -28.950  15.202  0.00  0.00    +0.062 C 
ATOM     12  C   LIG    1       28.214 -27.835  15.123  0.00  0.00    +0.119 C 
ATOM     13  C   LIG    1       27.617 -26.572  14.512  0.00  0.00    +0.032 C 
ATOM     14  C   LIG    1       26.114 -30.452  13.564  0.00  0.00    -0.027 C 
ATOM     15  C   LIG    1       27.011 -26.849  13.134  0.00  0.00    +0.013 C 
ATOM     16  C   LIG    1       25.253 -30.834  12.424  0.00  0.00    +0.031 C 
ATOM     17  C   LIG    1       23.658 -29.705   9.124  0.00  0.00    +0.004 C 
ATOM     18  C   LIG    1       26.442 -28.719   9.182  0.00  0.00    +0.007 C 
ATOM     19  C   LIG    1       24.026 -30.255   7.740  0.00  0.00    +0.004 C 
ENDROOT
BRANCH   1  20
ATOM     20  C   LIG    1       25.762 -32.179   7.380  0.00  0.00    -0.010 C 
ATOM     21  C   LIG    1       27.018 -32.326   6.499  0.00  0.00    +0.008 C 
BRANCH  20  22
ATOM     22  C   LIG    1       24.539 -32.847   6.700  0.00  0.00    +0.003 C 
BRANCH  22  23
ATOM     23  C   LIG    1       23.738 -33.825   7.569  0.00  0.00    +0.000 C 
BRANCH  23  24
ATOM     24  C   LIG    1       24.067 -33.689   9.069  0.00  0.00    +0.003 C 
BRANCH  24  26
ATOM     25  C   LIG    1       23.359 -33.825  11.496  0.00  0.00    +0.007 C 
ATOM     26  C   LIG    1       22.874 -33.813  10.041  0.00  0.00    -0.017 C 
ATOM     27  C   LIG    1       21.862 -32.681   9.859  0.00  0.00    +0.007 C 
ENDBRANCH  24  26
ENDBRANCH  23  24
ENDBRANCH  22  23
ENDBRANCH  20  22
ENDBRANCH   1  20
BRANCH  12  28
ATOM     28  O   LIG    1       29.353 -28.261  14.372  0.00  0.00    -0.392 OA
ATOM     29  H   LIG    1       29.467 -29.217  14.520  0.00  0.00    +0.210 HD
ENDBRANCH  12  28
TORSDOF 6
ENDMDL
MODEL 8
REMARK VINA RESULT:      -4.7      2.590      7.361
REMARK  Name = *****
REMARK                            x       y       z     vdW  Elec       q    Type
REMARK                         _______ _______ _______ _____ _____    ______ ____
ROOT
ATOM      1  C   LIG    1       25.928 -28.299  11.719  0.00  0.00    -0.002 C 
ATOM      2  C   LIG    1       25.571 -29.268  10.529  0.00  0.00    -0.026 C 
ATOM      3  C   LIG    1       24.093 -29.694  10.464  0.00  0.00    +0.012 C 
ATOM      4  C   LIG    1       26.571 -30.430  10.737  0.00  0.00    -0.001 C 
ATOM      5  C   LIG    1       26.643 -31.466   9.594  0.00  0.00    +0.000 C 
ATOM      6  C   LIG    1       26.604 -30.878   8.149  0.00  0.00    +0.003 C 
ATOM      7  C   LIG    1       25.777 -29.579   8.004  0.00  0.00    +0.005 C 
ATOM      8  C   LIG    1       26.281 -31.978   7.032  0.00  0.00    -0.008 C 
ATOM      9  C   LIG    1       27.571 -32.805   6.800  0.00  0.00    +0.016 C 
ATOM     10  C   LIG    1       25.200 -32.968   7.458  0.00  0.00    -0.065 C 
ATOM     11  C   LIG    1       24.522 -33.825   6.407  0.00  0.00    +0.062 C 
ATOM     12  C   LIG    1       24.147 -33.061   5.139  0.00  0.00    +0.119 C 
ATOM     13  C   LIG    1       25.330 -32.253   4.616  0.00  0.00    +0.032 C 
ATOM     14  C   LIG    1       24.913 -33.200   8.757  0.00  0.00    -0.027 C 
ATOM     15  C   LIG    1       25.873 -31.301   5.684  0.00  0.00    +0.013 C 
ATOM     16  C   LIG    1       25.605 -32.570   9.902  0.00  0.00    +0.031 C 
ATOM     17  C   LIG    1       27.879 -29.707  11.061  0.00  0.00    +0.004 C 
ATOM     18  C   LIG    1       25.901 -28.598   9.168  0.00  0.00    +0.007 C 
ATOM     19  C   LIG    1       27.442 -28.559  11.979  0.00  0.00    +0.004 C 
ENDROOT
BRANCH   1  20
ATOM     20  C   LIG    1       25.052 -28.397  13.031  0.00  0.00    -0.010 C 
ATOM     21  C   LIG    1       24.538 -27.006  13.455  0.00  0.00    +0.008 C 
BRANCH  20  22
ATOM     22  C   LIG    1       25.766 -29.098  14.214  0.00  0.00    +0.003 C 
BRANCH  22  23
ATOM     23  C   LIG    1       25.172 -30.442  14.656  0.00  0.00    +0.000 C 
BRANCH  23  24
ATOM     24  C   LIG    1       25.554 -31.597  13.710  0.00  0.00    +0.003 C 
BRANCH  24  26
ATOM     25  C   LIG    1       24.125 -33.225  15.020  0.00  0.00    +0.007 C 
ATOM     26  C   LIG    1       24.546 -32.764  13.620  0.00  0.00    -0.017 C 
ATOM     27  C   LIG    1       23.300 -32.389  12.818  0.00  0.00    +0.007 C 
ENDBRANCH  24  26
ENDBRANCH  23  24
ENDBRANCH  22  23
ENDBRANCH  20  22
ENDBRANCH   1  20
BRANCH  12  28
ATOM     28  O   LIG    1       23.027 -32.206   5.380  0.00  0.00    -0.392 OA
ATOM     29  H   LIG    1       23.101 -31.867   6.290  0.00  0.00    +0.210 HD
ENDBRANCH  12  28
TORSDOF 6
ENDMDL
MODEL 9
REMARK VINA RESULT:      -4.7      3.807      7.189
REMARK  Name = *****
REMARK                            x       y       z     vdW  Elec       q    Type
REMARK                         _______ _______ _______ _____ _____    ______ ____
ROOT
ATOM      1  C   LIG    1       25.519 -28.595   6.159  0.00  0.00    -0.002 C 
ATOM      2  C   LIG    1       25.396 -27.075   6.554  0.00  0.00    -0.026 C 
ATOM      3  C   LIG    1       25.074 -26.816   8.038  0.00  0.00    +0.012 C 
ATOM      4  C   LIG    1       24.328 -26.560   5.561  0.00  0.00    -0.001 C 
ATOM      5  C   LIG    1       24.126 -25.030   5.526  0.00  0.00    +0.000 C 
ATOM      6  C   LIG    1       25.431 -24.176   5.593  0.00  0.00    +0.003 C 
ATOM      7  C   LIG    1       26.577 -24.816   6.411  0.00  0.00    +0.005 C 
ATOM      8  C   LIG    1       25.159 -22.641   5.953  0.00  0.00    -0.008 C 
ATOM      9  C   LIG    1       24.618 -21.947   4.677  0.00  0.00    +0.016 C 
ATOM     10  C   LIG    1       24.097 -22.455   7.033  0.00  0.00    -0.065 C 
ATOM     11  C   LIG    1       23.985 -21.121   7.744  0.00  0.00    +0.062 C 
ATOM     12  C   LIG    1       25.333 -20.522   8.142  0.00  0.00    +0.119 C 
ATOM     13  C   LIG    1       26.301 -20.521   6.964  0.00  0.00    +0.032 C 
ATOM     14  C   LIG    1       23.166 -23.398   7.292  0.00  0.00    -0.027 C 
ATOM     15  C   LIG    1       26.481 -21.927   6.387  0.00  0.00    +0.013 C 
ATOM     16  C   LIG    1       23.037 -24.681   6.566  0.00  0.00    +0.031 C 
ATOM     17  C   LIG    1       24.746 -27.204   4.238  0.00  0.00    +0.004 C 
ATOM     18  C   LIG    1       26.723 -26.328   6.250  0.00  0.00    +0.007 C 
ATOM     19  C   LIG    1       25.166 -28.623   4.643  0.00  0.00    +0.004 C 
ENDROOT
BRANCH   1  20
ATOM     20  C   LIG    1       24.688 -29.640   7.005  0.00  0.00    -0.010 C 
ATOM     21  C   LIG    1       25.610 -30.456   7.933  0.00  0.00    +0.008 C 
BRANCH  20  22
ATOM     22  C   LIG    1       23.804 -30.583   6.149  0.00  0.00    +0.003 C 
BRANCH  22  23
ATOM     23  C   LIG    1       23.915 -32.080   6.465  0.00  0.00    +0.000 C 
BRANCH  23  24
ATOM     24  C   LIG    1       24.446 -32.898   5.271  0.00  0.00    +0.003 C 
BRANCH  24  26
ATOM     25  C   LIG    1       26.974 -33.011   5.234  0.00  0.00    +0.007 C 
ATOM     26  C   LIG    1       25.733 -32.369   4.602  0.00  0.00    -0.017 C 
ATOM     27  C   LIG    1       25.747 -32.625   3.095  0.00  0.00    +0.007 C 
ENDBRANCH  24  26
ENDBRANCH  23  24
ENDBRANCH  22  23
ENDBRANCH  20  22
ENDBRANCH   1  20
BRANCH  12  28
ATOM     28  O   LIG    1       25.892 -21.234   9.248  0.00  0.00    -0.392 OA
ATOM     29  H   LIG    1       26.673 -21.719   8.926  0.00  0.00    +0.210 HD
ENDBRANCH  12  28
TORSDOF 6
ENDMDL
