MODEL 1
REMARK VINA RESULT:      -5.9      0.000      0.000
REMARK  Name = *****
REMARK                            x       y       z     vdW  Elec       q    Type
REMARK                         _______ _______ _______ _____ _____    ______ ____
ROOT
ATOM      1  C   LIG    1       24.068 -22.122   6.632  0.00  0.00    +0.011 A 
ATOM      2  C   LIG    1       25.448 -22.146   6.895  0.00  0.00    +0.026 A 
ATOM      3 BR   LIG    1       26.505 -20.570   6.989  0.00  0.00    -0.050 Br
ATOM      4  C   LIG    1       26.124 -23.361   7.068  0.00  0.00    +0.016 A 
ATOM      5  C   LIG    1       25.437 -24.570   6.951  0.00  0.00    +0.001 A 
ATOM      6  C   LIG    1       24.087 -24.569   6.637  0.00  0.00    +0.001 A 
ATOM      7  C   LIG    1       23.408 -23.359   6.473  0.00  0.00    +0.010 A 
ENDROOT
BRANCH   1   8
ATOM      8  C   LIG    1       23.255 -20.852   6.487  0.00  0.00    +0.170 C 
BRANCH   8   9
ATOM      9  N   LIG    1       22.771 -20.466   5.056  0.00  0.00    +0.242 N 
ATOM     10  C   LIG    1       21.503 -21.211   4.667  0.00  0.00    +0.192 C 
ATOM     11  C   LIG    1       22.470 -18.964   5.002  0.00  0.00    +0.192 C 
BRANCH   9  13
ATOM     12  C   LIG    1       24.766 -19.520   3.733  0.00  0.00    +0.060 C 
ATOM     13  C   LIG    1       23.894 -20.732   4.027  0.00  0.00    +0.129 C 
ENDBRANCH   9  13
ENDBRANCH   8   9
ENDBRANCH   1   8
TORSDOF 3
ENDMDL
MODEL 2
REMARK VINA RESULT:      -5.8      0.787      1.530
REMARK  Name = *****
REMARK                            x       y       z     vdW  Elec       q    Type
REMARK                         _______ _______ _______ _____ _____    ______ ____
ROOT
ATOM      1  C   LIG    1       23.994 -22.757   6.719  0.00  0.00    +0.011 A 
ATOM      2  C   LIG    1       25.379 -22.827   6.949  0.00  0.00    +0.026 A 
ATOM      3 BR   LIG    1       26.456 -21.285   7.212  0.00  0.00    -0.050 Br
ATOM      4  C   LIG    1       26.043 -24.061   6.960  0.00  0.00    +0.016 A 
ATOM      5  C   LIG    1       25.340 -25.239   6.711  0.00  0.00    +0.001 A 
ATOM      6  C   LIG    1       23.984 -25.187   6.427  0.00  0.00    +0.001 A 
ATOM      7  C   LIG    1       23.317 -23.960   6.424  0.00  0.00    +0.010 A 
ENDROOT
BRANCH   1   8
ATOM      8  C   LIG    1       23.194 -21.471   6.746  0.00  0.00    +0.170 C 
BRANCH   8   9
ATOM      9  N   LIG    1       22.851 -20.808   5.378  0.00  0.00    +0.242 N 
ATOM     10  C   LIG    1       23.944 -21.042   4.345  0.00  0.00    +0.192 C 
ATOM     11  C   LIG    1       21.550 -21.404   4.829  0.00  0.00    +0.192 C 
BRANCH   9  13
ATOM     12  C   LIG    1       22.280 -18.551   4.281  0.00  0.00    +0.060 C 
ATOM     13  C   LIG    1       22.602 -19.295   5.569  0.00  0.00    +0.129 C 
ENDBRANCH   9  13
ENDBRANCH   8   9
ENDBRANCH   1   8
TORSDOF 3
ENDMDL
MODEL 3
REMARK VINA RESULT:      -5.8      1.589      2.283
REMARK  Name = *****
REMARK                            x       y       z     vdW  Elec       q    Type
REMARK                         _______ _______ _______ _____ _____    ______ ____
ROOT
ATOM      1  C   LIG    1       24.522 -21.305   7.015  0.00  0.00    +0.011 A 
ATOM      2  C   LIG    1       24.803 -22.682   6.985  0.00  0.00    +0.026 A 
ATOM      3 BR   LIG    1       23.476 -23.994   6.635  0.00  0.00    -0.050 Br
ATOM      4  C   LIG    1       26.094 -23.156   7.252  0.00  0.00    +0.016 A 
ATOM      5  C   LIG    1       27.115 -22.266   7.583  0.00  0.00    +0.001 A 
ATOM      6  C   LIG    1       26.847 -20.909   7.672  0.00  0.00    +0.001 A 
ATOM      7  C   LIG    1       25.563 -20.431   7.397  0.00  0.00    +0.010 A 
ENDROOT
BRANCH   1   8
ATOM      8  C   LIG    1       23.170 -20.709   6.685  0.00  0.00    +0.170 C 
BRANCH   8   9
ATOM      9  N   LIG    1       22.823 -20.500   5.179  0.00  0.00    +0.242 N 
ATOM     10  C   LIG    1       21.625 -21.336   4.754  0.00  0.00    +0.192 C 
ATOM     11  C   LIG    1       22.483 -19.027   4.928  0.00  0.00    +0.192 C 
BRANCH   9  13
ATOM     12  C   LIG    1       24.714 -19.609   3.678  0.00  0.00    +0.060 C 
ATOM     13  C   LIG    1       24.052 -20.830   4.301  0.00  0.00    +0.129 C 
ENDBRANCH   9  13
ENDBRANCH   8   9
ENDBRANCH   1   8
TORSDOF 3
ENDMDL
MODEL 4
REMARK VINA RESULT:      -5.7      1.475      4.411
REMARK  Name = *****
REMARK                            x       y       z     vdW  Elec       q    Type
REMARK                         _______ _______ _______ _____ _____    ______ ____
ROOT
ATOM      1  C   LIG    1       24.046 -20.638   5.842  0.00  0.00    +0.011 A 
ATOM      2  C   LIG    1       25.036 -19.994   5.081  0.00  0.00    +0.026 A 
ATOM      3 BR   LIG    1       26.894 -20.240   5.389  0.00  0.00    -0.050 Br
ATOM      4  C   LIG    1       24.686 -19.097   4.062  0.00  0.00    +0.016 A 
ATOM      5  C   LIG    1       23.345 -18.807   3.811  0.00  0.00    +0.001 A 
ATOM      6  C   LIG    1       22.356 -19.390   4.587  0.00  0.00    +0.001 A 
ATOM      7  C   LIG    1       22.700 -20.292   5.597  0.00  0.00    +0.010 A 
ENDROOT
BRANCH   1   8
ATOM      8  C   LIG    1       24.338 -21.661   6.921  0.00  0.00    +0.170 C 
BRANCH   8   9
ATOM      9  N   LIG    1       24.427 -23.156   6.490  0.00  0.00    +0.242 N 
ATOM     10  C   LIG    1       23.135 -23.906   6.779  0.00  0.00    +0.192 C 
ATOM     11  C   LIG    1       24.695 -23.243   4.983  0.00  0.00    +0.192 C 
BRANCH   9  13
ATOM     12  C   LIG    1       25.869 -25.273   6.742  0.00  0.00    +0.060 C 
ATOM     13  C   LIG    1       25.620 -23.841   7.195  0.00  0.00    +0.129 C 
ENDBRANCH   9  13
ENDBRANCH   8   9
ENDBRANCH   1   8
TORSDOF 3
ENDMDL
MODEL 5
REMARK VINA RESULT:      -5.7      2.599      4.921
REMARK  Name = *****
REMARK                            x       y       z     vdW  Elec       q    Type
REMARK                         _______ _______ _______ _____ _____    ______ ____
ROOT
ATOM      1  C   LIG    1       24.928 -20.770   5.358  0.00  0.00    +0.011 A 
ATOM      2  C   LIG    1       23.625 -20.800   5.883  0.00  0.00    +0.026 A 
ATOM      3 BR   LIG    1       23.102 -21.983   7.273  0.00  0.00    -0.050 Br
ATOM      4  C   LIG    1       22.625 -19.963   5.368  0.00  0.00    +0.016 A 
ATOM      5  C   LIG    1       22.905 -19.108   4.302  0.00  0.00    +0.001 A 
ATOM      6  C   LIG    1       24.169 -19.104   3.734  0.00  0.00    +0.001 A 
ATOM      7  C   LIG    1       25.171 -19.929   4.250  0.00  0.00    +0.010 A 
ENDROOT
BRANCH   1   8
ATOM      8  C   LIG    1       26.076 -21.600   5.894  0.00  0.00    +0.170 C 
BRANCH   8   9
ATOM      9  N   LIG    1       27.061 -20.910   6.887  0.00  0.00    +0.242 N 
ATOM     10  C   LIG    1       26.332 -20.308   8.079  0.00  0.00    +0.192 C 
ATOM     11  C   LIG    1       28.062 -21.941   7.419  0.00  0.00    +0.192 C 
BRANCH   9  13
ATOM     12  C   LIG    1       29.364 -19.827   6.507  0.00  0.00    +0.060 C 
ATOM     13  C   LIG    1       27.884 -19.828   6.151  0.00  0.00    +0.129 C 
ENDBRANCH   9  13
ENDBRANCH   8   9
ENDBRANCH   1   8
TORSDOF 3
ENDMDL
MODEL 6
REMARK VINA RESULT:      -5.6      2.129      4.904
REMARK  Name = *****
REMARK                            x       y       z     vdW  Elec       q    Type
REMARK                         _______ _______ _______ _____ _____    ______ ____
ROOT
ATOM      1  C   LIG    1       24.561 -20.903   5.110  0.00  0.00    +0.011 A 
ATOM      2  C   LIG    1       23.209 -21.001   5.478  0.00  0.00    +0.026 A 
ATOM      3 BR   LIG    1       22.527 -22.439   6.514  0.00  0.00    -0.050 Br
ATOM      4  C   LIG    1       22.280 -20.039   5.059  0.00  0.00    +0.016 A 
ATOM      5  C   LIG    1       22.682 -18.983   4.241  0.00  0.00    +0.001 A 
ATOM      6  C   LIG    1       24.000 -18.899   3.821  0.00  0.00    +0.001 A 
ATOM      7  C   LIG    1       24.931 -19.851   4.244  0.00  0.00    +0.010 A 
ENDROOT
BRANCH   1   8
ATOM      8  C   LIG    1       25.636 -21.868   5.566  0.00  0.00    +0.170 C 
BRANCH   8   9
ATOM      9  N   LIG    1       26.289 -21.613   6.958  0.00  0.00    +0.242 N 
ATOM     10  C   LIG    1       27.715 -21.099   6.828  0.00  0.00    +0.192 C 
ATOM     11  C   LIG    1       25.478 -20.561   7.722  0.00  0.00    +0.192 C 
BRANCH   9  13
ATOM     12  C   LIG    1       25.845 -24.147   7.026  0.00  0.00    +0.060 C 
ATOM     13  C   LIG    1       26.253 -22.905   7.805  0.00  0.00    +0.129 C 
ENDBRANCH   9  13
ENDBRANCH   8   9
ENDBRANCH   1   8
TORSDOF 3
ENDMDL
MODEL 7
REMARK VINA RESULT:      -5.6      2.489      4.939
REMARK  Name = *****
REMARK                            x       y       z     vdW  Elec       q    Type
REMARK                         _______ _______ _______ _____ _____    ______ ____
ROOT
ATOM      1  C   LIG    1       24.883 -23.441   7.007  0.00  0.00    +0.011 A 
ATOM      2  C   LIG    1       25.433 -22.150   7.077  0.00  0.00    +0.026 A 
ATOM      3 BR   LIG    1       27.281 -21.835   7.385  0.00  0.00    -0.050 Br
ATOM      4  C   LIG    1       24.619 -21.016   6.955  0.00  0.00    +0.016 A 
ATOM      5  C   LIG    1       23.241 -21.155   6.792  0.00  0.00    +0.001 A 
ATOM      6  C   LIG    1       22.671 -22.418   6.776  0.00  0.00    +0.001 A 
ATOM      7  C   LIG    1       23.480 -23.551   6.888  0.00  0.00    +0.010 A 
ENDROOT
BRANCH   1   8
ATOM      8  C   LIG    1       25.699 -24.715   7.074  0.00  0.00    +0.170 C 
BRANCH   8   9
ATOM      9  N   LIG    1       25.491 -25.764   5.940  0.00  0.00    +0.242 N 
ATOM     10  C   LIG    1       25.139 -25.103   4.616  0.00  0.00    +0.192 C 
ATOM     11  C   LIG    1       26.781 -26.567   5.738  0.00  0.00    +0.192 C 
BRANCH   9  13
ATOM     12  C   LIG    1       24.386 -28.049   5.514  0.00  0.00    +0.060 C 
ATOM     13  C   LIG    1       24.396 -26.776   6.348  0.00  0.00    +0.129 C 
ENDBRANCH   9  13
ENDBRANCH   8   9
ENDBRANCH   1   8
TORSDOF 3
ENDMDL
MODEL 8
REMARK VINA RESULT:      -5.5      2.339      3.528
REMARK  Name = *****
REMARK                            x       y       z     vdW  Elec       q    Type
REMARK                         _______ _______ _______ _____ _____    ______ ____
ROOT
ATOM      1  C   LIG    1       26.085 -20.715   6.792  0.00  0.00    +0.011 A 
ATOM      2  C   LIG    1       26.797 -20.149   5.722  0.00  0.00    +0.026 A 
ATOM      3 BR   LIG    1       25.946 -19.432   4.183  0.00  0.00    -0.050 Br
ATOM      4  C   LIG    1       28.199 -20.121   5.729  0.00  0.00    +0.016 A 
ATOM      5  C   LIG    1       28.907 -20.684   6.790  0.00  0.00    +0.001 A 
ATOM      6  C   LIG    1       28.224 -21.295   7.829  0.00  0.00    +0.001 A 
ATOM      7  C   LIG    1       26.827 -21.318   7.830  0.00  0.00    +0.010 A 
ENDROOT
BRANCH   1   8
ATOM      8  C   LIG    1       24.573 -20.735   6.887  0.00  0.00    +0.170 C 
BRANCH   8   9
ATOM      9  N   LIG    1       23.817 -21.845   6.095  0.00  0.00    +0.242 N 
ATOM     10  C   LIG    1       24.777 -22.760   5.348  0.00  0.00    +0.192 C 
ATOM     11  C   LIG    1       23.003 -22.707   7.065  0.00  0.00    +0.192 C 
BRANCH   9  13
ATOM     12  C   LIG    1       22.543 -19.727   5.377  0.00  0.00    +0.060 C 
ATOM     13  C   LIG    1       22.808 -21.203   5.115  0.00  0.00    +0.129 C 
ENDBRANCH   9  13
ENDBRANCH   8   9
ENDBRANCH   1   8
TORSDOF 3
ENDMDL
MODEL 9
REMARK VINA RESULT:      -5.4      1.564      2.275
REMARK  Name = *****
REMARK                            x       y       z     vdW  Elec       q    Type
REMARK                         _______ _______ _______ _____ _____    ______ ____
ROOT
ATOM      1  C   LIG    1       25.014 -23.567   5.596  0.00  0.00    +0.011 A 
ATOM      2  C   LIG    1       25.702 -23.930   6.766  0.00  0.00    +0.026 A 
ATOM      3 BR   LIG    1       26.212 -22.671   8.093  0.00  0.00    -0.050 Br
ATOM      4  C   LIG    1       26.078 -25.261   6.992  0.00  0.00    +0.016 A 
ATOM      5  C   LIG    1       25.801 -26.241   6.039  0.00  0.00    +0.001 A 
ATOM      6  C   LIG    1       25.173 -25.893   4.854  0.00  0.00    +0.001 A 
ATOM      7  C   LIG    1       24.788 -24.570   4.629  0.00  0.00    +0.010 A 
ENDROOT
BRANCH   1   8
ATOM      8  C   LIG    1       24.525 -22.164   5.302  0.00  0.00    +0.170 C 
BRANCH   8   9
ATOM      9  N   LIG    1       23.220 -21.693   6.014  0.00  0.00    +0.242 N 
ATOM     10  C   LIG    1       22.480 -22.853   6.663  0.00  0.00    +0.192 C 
ATOM     11  C   LIG    1       23.569 -20.683   7.113  0.00  0.00    +0.192 C 
BRANCH   9  13
ATOM     12  C   LIG    1       22.479 -19.447   4.999  0.00  0.00    +0.060 C 
ATOM     13  C   LIG    1       22.303 -20.959   5.009  0.00  0.00    +0.129 C 
ENDBRANCH   9  13
ENDBRANCH   8   9
ENDBRANCH   1   8
TORSDOF 3
ENDMDL
