MODEL 1
REMARK VINA RESULT:      -7.2      0.000      0.000
REMARK  Name = *****
REMARK                            x       y       z     vdW  Elec       q    Type
REMARK                         _______ _______ _______ _____ _____    ______ ____
ROOT
ATOM      1  C   LIG    1       28.827 -19.931   7.057  0.00  0.00    -0.011 A 
ATOM      2  C   LIG    1       28.042 -20.183   8.195  0.00  0.00    +0.051 A 
ATOM      3  C   LIG    1       26.682 -20.469   8.064  0.00  0.00    +0.121 A 
ATOM      4  C   LIG    1       26.074 -20.506   6.816  0.00  0.00    +0.090 A 
ATOM      5  C   LIG    1       26.846 -20.252   5.688  0.00  0.00    +0.121 A 
ATOM      6  C   LIG    1       28.207 -19.959   5.796  0.00  0.00    +0.051 A 
ENDROOT
BRANCH   3   7
ATOM      7  O   LIG    1       25.973 -20.711   9.205  0.00  0.00    -0.507 OA
ATOM      8  H   LIG    1       25.882 -21.672   9.310  0.00  0.00    +0.292 HD
ENDBRANCH   3   7
BRANCH   5   9
ATOM      9  O   LIG    1       26.226 -20.302   4.472  0.00  0.00    -0.507 OA
ATOM     10  H   LIG    1       26.898 -20.497   3.797  0.00  0.00    +0.292 HD
ENDBRANCH   5   9
BRANCH   1  11
ATOM     11  C   LIG    1       30.305 -19.629   7.217  0.00  0.00    +0.158 C 
BRANCH  11  12
ATOM     12  O   LIG    1       30.614 -18.348   6.653  0.00  0.00    -0.386 OA
ATOM     13  H   LIG    1       31.254 -18.543   5.940  0.00  0.00    +0.210 HD
ENDBRANCH  11  12
BRANCH  11  14
ATOM     14  C   LIG    1       30.759 -19.644   8.700  0.00  0.00    +0.117 C 
BRANCH  14  15
ATOM     15  N   LIG    1       31.979 -18.821   8.886  0.00  0.00    -0.311 NA
ATOM     16  H   LIG    1       32.742 -19.432   9.188  0.00  0.00    +0.122 HD
BRANCH  15  18
ATOM     17  C   LIG    1       32.306 -16.434   9.335  0.00  0.00    +0.024 C 
ATOM     18  C   LIG    1       31.805 -17.767   9.904  0.00  0.00    +0.048 C 
ATOM     19  C   LIG    1       30.346 -17.608  10.337  0.00  0.00    +0.024 C 
ENDBRANCH  15  18
ENDBRANCH  14  15
ENDBRANCH  11  14
ENDBRANCH   1  11
TORSDOF 7
ENDMDL
MODEL 2
REMARK VINA RESULT:      -7.2      0.098      2.137
REMARK  Name = *****
REMARK                            x       y       z     vdW  Elec       q    Type
REMARK                         _______ _______ _______ _____ _____    ______ ____
ROOT
ATOM      1  C   LIG    1       28.799 -19.966   7.053  0.00  0.00    -0.011 A 
ATOM      2  C   LIG    1       28.153 -20.013   5.807  0.00  0.00    +0.051 A 
ATOM      3  C   LIG    1       26.786 -20.286   5.730  0.00  0.00    +0.121 A 
ATOM      4  C   LIG    1       26.037 -20.523   6.875  0.00  0.00    +0.090 A 
ATOM      5  C   LIG    1       26.674 -20.483   8.111  0.00  0.00    +0.121 A 
ATOM      6  C   LIG    1       28.040 -20.217   8.210  0.00  0.00    +0.051 A 
ENDROOT
BRANCH   3   7
ATOM      7  O   LIG    1       26.214 -20.312   4.491  0.00  0.00    -0.507 OA
ATOM      8  H   LIG    1       26.880 -20.616   3.853  0.00  0.00    +0.292 HD
ENDBRANCH   3   7
BRANCH   5   9
ATOM      9  O   LIG    1       25.913 -20.712   9.221  0.00  0.00    -0.507 OA
ATOM     10  H   LIG    1       25.459 -21.565   9.106  0.00  0.00    +0.292 HD
ENDBRANCH   5   9
BRANCH   1  11
ATOM     11  C   LIG    1       30.283 -19.661   7.119  0.00  0.00    +0.158 C 
BRANCH  11  12
ATOM     12  O   LIG    1       30.548 -18.363   6.572  0.00  0.00    -0.386 OA
ATOM     13  H   LIG    1       29.927 -18.284   5.820  0.00  0.00    +0.210 HD
ENDBRANCH  11  12
BRANCH  11  14
ATOM     14  C   LIG    1       30.839 -19.715   8.566  0.00  0.00    +0.117 C 
BRANCH  14  15
ATOM     15  N   LIG    1       31.993 -18.796   8.722  0.00  0.00    -0.311 NA
ATOM     16  H   LIG    1       32.824 -19.350   8.942  0.00  0.00    +0.122 HD
BRANCH  15  18
ATOM     17  C   LIG    1       32.342 -16.454   9.355  0.00  0.00    +0.024 C 
ATOM     18  C   LIG    1       31.796 -17.814   9.806  0.00  0.00    +0.048 C 
ATOM     19  C   LIG    1       30.323 -17.658  10.191  0.00  0.00    +0.024 C 
ENDBRANCH  15  18
ENDBRANCH  14  15
ENDBRANCH  11  14
ENDBRANCH   1  11
TORSDOF 7
ENDMDL
MODEL 3
REMARK VINA RESULT:      -7.2      2.948      6.272
REMARK  Name = *****
REMARK                            x       y       z     vdW  Elec       q    Type
REMARK                         _______ _______ _______ _____ _____    ______ ____
ROOT
ATOM      1  C   LIG    1       28.644 -20.767   7.354  0.00  0.00    -0.011 A 
ATOM      2  C   LIG    1       28.766 -19.765   6.378  0.00  0.00    +0.051 A 
ATOM      3  C   LIG    1       29.937 -19.011   6.282  0.00  0.00    +0.121 A 
ATOM      4  C   LIG    1       31.001 -19.228   7.147  0.00  0.00    +0.090 A 
ATOM      5  C   LIG    1       30.883 -20.216   8.119  0.00  0.00    +0.121 A 
ATOM      6  C   LIG    1       29.719 -20.977   8.235  0.00  0.00    +0.051 A 
ENDROOT
BRANCH   3   7
ATOM      7  O   LIG    1       29.997 -18.055   5.309  0.00  0.00    -0.507 OA
ATOM      8  H   LIG    1       30.319 -17.232   5.710  0.00  0.00    +0.292 HD
ENDBRANCH   3   7
BRANCH   5   9
ATOM      9  O   LIG    1       31.947 -20.413   8.951  0.00  0.00    -0.507 OA
ATOM     10  H   LIG    1       31.765 -21.200   9.494  0.00  0.00    +0.292 HD
ENDBRANCH   5   9
BRANCH   1  11
ATOM     11  C   LIG    1       27.367 -21.581   7.440  0.00  0.00    +0.158 C 
BRANCH  11  12
ATOM     12  O   LIG    1       26.894 -21.623   8.793  0.00  0.00    -0.386 OA
ATOM     13  H   LIG    1       26.234 -20.902   8.842  0.00  0.00    +0.210 HD
ENDBRANCH  11  12
BRANCH  11  14
ATOM     14  C   LIG    1       26.240 -21.019   6.535  0.00  0.00    +0.117 C 
BRANCH  14  15
ATOM     15  N   LIG    1       25.515 -22.118   5.851  0.00  0.00    -0.311 NA
ATOM     16  H   LIG    1       25.670 -22.034   4.844  0.00  0.00    +0.122 HD
BRANCH  15  18
ATOM     17  C   LIG    1       23.632 -23.384   6.776  0.00  0.00    +0.024 C 
ATOM     18  C   LIG    1       24.060 -22.079   6.097  0.00  0.00    +0.048 C 
ATOM     19  C   LIG    1       23.648 -20.898   6.979  0.00  0.00    +0.024 C 
ENDBRANCH  15  18
ENDBRANCH  14  15
ENDBRANCH  11  14
ENDBRANCH   1  11
TORSDOF 7
ENDMDL
MODEL 4
REMARK VINA RESULT:      -7.2      3.267      4.719
REMARK  Name = *****
REMARK                            x       y       z     vdW  Elec       q    Type
REMARK                         _______ _______ _______ _____ _____    ______ ____
ROOT
ATOM      1  C   LIG    1       25.102 -22.148   7.466  0.00  0.00    -0.011 A 
ATOM      2  C   LIG    1       23.727 -22.346   7.261  0.00  0.00    +0.051 A 
ATOM      3  C   LIG    1       23.255 -23.567   6.775  0.00  0.00    +0.121 A 
ATOM      4  C   LIG    1       24.127 -24.606   6.477  0.00  0.00    +0.090 A 
ATOM      5  C   LIG    1       25.490 -24.412   6.674  0.00  0.00    +0.121 A 
ATOM      6  C   LIG    1       25.984 -23.198   7.155  0.00  0.00    +0.051 A 
ENDROOT
BRANCH   3   7
ATOM      7  O   LIG    1       21.907 -23.701   6.601  0.00  0.00    -0.507 OA
ATOM      8  H   LIG    1       21.476 -22.894   6.925  0.00  0.00    +0.292 HD
ENDBRANCH   3   7
BRANCH   5   9
ATOM      9  O   LIG    1       26.325 -25.452   6.382  0.00  0.00    -0.507 OA
ATOM     10  H   LIG    1       26.733 -25.754   7.211  0.00  0.00    +0.292 HD
ENDBRANCH   5   9
BRANCH   1  11
ATOM     11  C   LIG    1       25.597 -20.819   8.002  0.00  0.00    +0.158 C 
BRANCH  11  12
ATOM     12  O   LIG    1       25.826 -20.906   9.415  0.00  0.00    -0.386 OA
ATOM     13  H   LIG    1       25.442 -20.082   9.775  0.00  0.00    +0.210 HD
ENDBRANCH  11  12
BRANCH  11  14
ATOM     14  C   LIG    1       26.905 -20.348   7.314  0.00  0.00    +0.117 C 
BRANCH  14  15
ATOM     15  N   LIG    1       28.033 -20.336   8.278  0.00  0.00    -0.311 NA
ATOM     16  H   LIG    1       27.804 -19.693   9.040  0.00  0.00    +0.122 HD
BRANCH  15  18
ATOM     17  C   LIG    1       29.036 -19.479   6.213  0.00  0.00    +0.024 C 
ATOM     18  C   LIG    1       29.300 -19.888   7.666  0.00  0.00    +0.048 C 
ATOM     19  C   LIG    1       29.924 -18.707   8.413  0.00  0.00    +0.024 C 
ENDBRANCH  15  18
ENDBRANCH  14  15
ENDBRANCH  11  14
ENDBRANCH   1  11
TORSDOF 7
ENDMDL
MODEL 5
REMARK VINA RESULT:      -7.2      3.231      4.697
REMARK  Name = *****
REMARK                            x       y       z     vdW  Elec       q    Type
REMARK                         _______ _______ _______ _____ _____    ______ ____
ROOT
ATOM      1  C   LIG    1       25.071 -22.062   7.463  0.00  0.00    -0.011 A 
ATOM      2  C   LIG    1       25.938 -23.126   7.167  0.00  0.00    +0.051 A 
ATOM      3  C   LIG    1       25.433 -24.335   6.686  0.00  0.00    +0.121 A 
ATOM      4  C   LIG    1       24.069 -24.517   6.495  0.00  0.00    +0.090 A 
ATOM      5  C   LIG    1       23.206 -23.467   6.792  0.00  0.00    +0.121 A 
ATOM      6  C   LIG    1       23.690 -22.252   7.279  0.00  0.00    +0.051 A 
ENDROOT
BRANCH   3   7
ATOM      7  O   LIG    1       26.326 -25.331   6.410  0.00  0.00    -0.507 OA
ATOM      8  H   LIG    1       27.063 -24.948   5.908  0.00  0.00    +0.292 HD
ENDBRANCH   3   7
BRANCH   5   9
ATOM      9  O   LIG    1       21.872 -23.670   6.588  0.00  0.00    -0.507 OA
ATOM     10  H   LIG    1       21.640 -23.303   5.718  0.00  0.00    +0.292 HD
ENDBRANCH   5   9
BRANCH   1  11
ATOM     11  C   LIG    1       25.637 -20.753   7.978  0.00  0.00    +0.158 C 
BRANCH  11  12
ATOM     12  O   LIG    1       25.847 -20.825   9.395  0.00  0.00    -0.386 OA
ATOM     13  H   LIG    1       25.621 -21.748   9.628  0.00  0.00    +0.210 HD
ENDBRANCH  11  12
BRANCH  11  14
ATOM     14  C   LIG    1       26.977 -20.373   7.295  0.00  0.00    +0.117 C 
BRANCH  14  15
ATOM     15  N   LIG    1       28.048 -20.182   8.304  0.00  0.00    -0.311 NA
ATOM     16  H   LIG    1       27.758 -19.445   8.952  0.00  0.00    +0.122 HD
BRANCH  15  18
ATOM     17  C   LIG    1       29.096 -19.372   6.243  0.00  0.00    +0.024 C 
ATOM     18  C   LIG    1       29.334 -19.782   7.700  0.00  0.00    +0.048 C 
ATOM     19  C   LIG    1       29.992 -18.618   8.445  0.00  0.00    +0.024 C 
ENDBRANCH  15  18
ENDBRANCH  14  15
ENDBRANCH  11  14
ENDBRANCH   1  11
TORSDOF 7
ENDMDL
MODEL 6
REMARK VINA RESULT:      -7.1      2.972      6.011
REMARK  Name = *****
REMARK                            x       y       z     vdW  Elec       q    Type
REMARK                         _______ _______ _______ _____ _____    ______ ____
ROOT
ATOM      1  C   LIG    1       28.610 -20.794   7.313  0.00  0.00    -0.011 A 
ATOM      2  C   LIG    1       29.694 -20.994   8.184  0.00  0.00    +0.051 A 
ATOM      3  C   LIG    1       30.844 -20.211   8.071  0.00  0.00    +0.121 A 
ATOM      4  C   LIG    1       30.947 -19.226   7.098  0.00  0.00    +0.090 A 
ATOM      5  C   LIG    1       29.878 -19.027   6.231  0.00  0.00    +0.121 A 
ATOM      6  C   LIG    1       28.721 -19.802   6.323  0.00  0.00    +0.051 A 
ENDROOT
BRANCH   3   7
ATOM      7  O   LIG    1       31.861 -20.450   8.949  0.00  0.00    -0.507 OA
ATOM      8  H   LIG    1       31.865 -21.397   9.162  0.00  0.00    +0.292 HD
ENDBRANCH   3   7
BRANCH   5   9
ATOM      9  O   LIG    1       30.003 -18.047   5.288  0.00  0.00    -0.507 OA
ATOM     10  H   LIG    1       30.949 -17.844   5.187  0.00  0.00    +0.292 HD
ENDBRANCH   5   9
BRANCH   1  11
ATOM     11  C   LIG    1       27.365 -21.648   7.455  0.00  0.00    +0.158 C 
BRANCH  11  12
ATOM     12  O   LIG    1       26.935 -21.678   8.823  0.00  0.00    -0.386 OA
ATOM     13  H   LIG    1       26.558 -22.573   8.940  0.00  0.00    +0.210 HD
ENDBRANCH  11  12
BRANCH  11  14
ATOM     14  C   LIG    1       26.192 -21.144   6.575  0.00  0.00    +0.117 C 
BRANCH  14  15
ATOM     15  N   LIG    1       25.548 -22.272   5.857  0.00  0.00    -0.311 NA
ATOM     16  H   LIG    1       25.657 -22.123   4.851  0.00  0.00    +0.122 HD
BRANCH  15  18
ATOM     17  C   LIG    1       23.823 -23.766   6.750  0.00  0.00    +0.024 C 
ATOM     18  C   LIG    1       24.105 -22.384   6.150  0.00  0.00    +0.048 C 
ATOM     19  C   LIG    1       23.623 -21.307   7.125  0.00  0.00    +0.024 C 
ENDBRANCH  15  18
ENDBRANCH  14  15
ENDBRANCH  11  14
ENDBRANCH   1  11
TORSDOF 7
ENDMDL
MODEL 7
REMARK VINA RESULT:      -6.9      6.152      7.993
REMARK  Name = *****
REMARK                            x       y       z     vdW  Elec       q    Type
REMARK                         _______ _______ _______ _____ _____    ______ ____
ROOT
ATOM      1  C   LIG    1       23.469 -21.693   5.880  0.00  0.00    -0.011 A 
ATOM      2  C   LIG    1       24.780 -21.514   5.407  0.00  0.00    +0.051 A 
ATOM      3  C   LIG    1       25.094 -20.424   4.595  0.00  0.00    +0.121 A 
ATOM      4  C   LIG    1       24.126 -19.497   4.231  0.00  0.00    +0.090 A 
ATOM      5  C   LIG    1       22.826 -19.673   4.693  0.00  0.00    +0.121 A 
ATOM      6  C   LIG    1       22.488 -20.759   5.502  0.00  0.00    +0.051 A 
ENDROOT
BRANCH   3   7
ATOM      7  O   LIG    1       26.386 -20.301   4.171  0.00  0.00    -0.507 OA
ATOM      8  H   LIG    1       26.876 -19.785   4.832  0.00  0.00    +0.292 HD
ENDBRANCH   3   7
BRANCH   5   9
ATOM      9  O   LIG    1       21.894 -18.744   4.328  0.00  0.00    -0.507 OA
ATOM     10  H   LIG    1       22.060 -18.498   3.401  0.00  0.00    +0.292 HD
ENDBRANCH   5   9
BRANCH   1  11
ATOM     11  C   LIG    1       23.146 -22.879   6.767  0.00  0.00    +0.158 C 
BRANCH  11  12
ATOM     12  O   LIG    1       21.879 -23.443   6.402  0.00  0.00    -0.386 OA
ATOM     13  H   LIG    1       21.887 -23.447   5.423  0.00  0.00    +0.210 HD
ENDBRANCH  11  12
BRANCH  11  14
ATOM     14  C   LIG    1       24.226 -23.990   6.693  0.00  0.00    +0.117 C 
BRANCH  14  15
ATOM     15  N   LIG    1       23.636 -25.268   6.221  0.00  0.00    -0.311 NA
ATOM     16  H   LIG    1       23.243 -25.762   7.026  0.00  0.00    +0.122 HD
BRANCH  15  18
ATOM     17  C   LIG    1       26.032 -25.755   6.057  0.00  0.00    +0.024 C 
ATOM     18  C   LIG    1       24.631 -26.151   5.581  0.00  0.00    +0.048 C 
ATOM     19  C   LIG    1       24.392 -27.628   5.902  0.00  0.00    +0.024 C 
ENDBRANCH  15  18
ENDBRANCH  14  15
ENDBRANCH  11  14
ENDBRANCH   1  11
TORSDOF 7
ENDMDL
MODEL 8
REMARK VINA RESULT:      -6.7      6.518      8.484
REMARK  Name = *****
REMARK                            x       y       z     vdW  Elec       q    Type
REMARK                         _______ _______ _______ _____ _____    ______ ____
ROOT
ATOM      1  C   LIG    1       25.070 -26.179   6.192  0.00  0.00    -0.011 A 
ATOM      2  C   LIG    1       25.961 -26.638   7.177  0.00  0.00    +0.051 A 
ATOM      3  C   LIG    1       25.954 -27.979   7.563  0.00  0.00    +0.121 A 
ATOM      4  C   LIG    1       25.071 -28.886   6.993  0.00  0.00    +0.090 A 
ATOM      5  C   LIG    1       24.183 -28.435   6.021  0.00  0.00    +0.121 A 
ATOM      6  C   LIG    1       24.169 -27.096   5.624  0.00  0.00    +0.051 A 
ENDROOT
BRANCH   3   7
ATOM      7  O   LIG    1       26.847 -28.367   8.521  0.00  0.00    -0.507 OA
ATOM      8  H   LIG    1       26.721 -29.314   8.690  0.00  0.00    +0.292 HD
ENDBRANCH   3   7
BRANCH   5   9
ATOM      9  O   LIG    1       23.330 -29.348   5.471  0.00  0.00    -0.507 OA
ATOM     10  H   LIG    1       22.491 -29.311   5.961  0.00  0.00    +0.292 HD
ENDBRANCH   5   9
BRANCH   1  11
ATOM     11  C   LIG    1       25.094 -24.720   5.779  0.00  0.00    +0.158 C 
BRANCH  11  12
ATOM     12  O   LIG    1       24.802 -24.594   4.381  0.00  0.00    -0.386 OA
ATOM     13  H   LIG    1       23.930 -25.023   4.275  0.00  0.00    +0.210 HD
ENDBRANCH  11  12
BRANCH  11  14
ATOM     14  C   LIG    1       24.084 -23.857   6.579  0.00  0.00    +0.117 C 
BRANCH  14  15
ATOM     15  N   LIG    1       23.671 -22.667   5.795  0.00  0.00    -0.311 NA
ATOM     16  H   LIG    1       24.442 -22.397   5.180  0.00  0.00    +0.122 HD
BRANCH  15  18
ATOM     17  C   LIG    1       24.572 -21.133   7.480  0.00  0.00    +0.024 C 
ATOM     18  C   LIG    1       23.340 -21.509   6.650  0.00  0.00    +0.048 C 
ATOM     19  C   LIG    1       22.894 -20.292   5.837  0.00  0.00    +0.024 C 
ENDBRANCH  15  18
ENDBRANCH  14  15
ENDBRANCH  11  14
ENDBRANCH   1  11
TORSDOF 7
ENDMDL
MODEL 9
REMARK VINA RESULT:      -6.6      2.456      4.161
REMARK  Name = *****
REMARK                            x       y       z     vdW  Elec       q    Type
REMARK                         _______ _______ _______ _____ _____    ______ ____
ROOT
ATOM      1  C   LIG    1       25.619 -20.714   6.869  0.00  0.00    -0.011 A 
ATOM      2  C   LIG    1       26.004 -20.212   5.615  0.00  0.00    +0.051 A 
ATOM      3  C   LIG    1       25.200 -20.424   4.493  0.00  0.00    +0.121 A 
ATOM      4  C   LIG    1       24.013 -21.137   4.587  0.00  0.00    +0.090 A 
ATOM      5  C   LIG    1       23.630 -21.641   5.825  0.00  0.00    +0.121 A 
ATOM      6  C   LIG    1       24.421 -21.444   6.959  0.00  0.00    +0.051 A 
ENDROOT
BRANCH   3   7
ATOM      7  O   LIG    1       25.625 -19.907   3.303  0.00  0.00    -0.507 OA
ATOM      8  H   LIG    1       25.643 -20.623   2.649  0.00  0.00    +0.292 HD
ENDBRANCH   3   7
BRANCH   5   9
ATOM      9  O   LIG    1       22.454 -22.332   5.891  0.00  0.00    -0.507 OA
ATOM     10  H   LIG    1       22.462 -23.009   5.193  0.00  0.00    +0.292 HD
ENDBRANCH   5   9
BRANCH   1  11
ATOM     11  C   LIG    1       26.500 -20.468   8.079  0.00  0.00    +0.158 C 
BRANCH  11  12
ATOM     12  O   LIG    1       25.952 -21.119   9.233  0.00  0.00    -0.386 OA
ATOM     13  H   LIG    1       26.726 -21.290   9.807  0.00  0.00    +0.210 HD
ENDBRANCH  11  12
BRANCH  11  14
ATOM     14  C   LIG    1       27.953 -20.966   7.869  0.00  0.00    +0.117 C 
BRANCH  14  15
ATOM     15  N   LIG    1       28.924 -19.863   8.074  0.00  0.00    -0.311 NA
ATOM     16  H   LIG    1       28.407 -18.983   8.142  0.00  0.00    +0.122 HD
BRANCH  15  18
ATOM     17  C   LIG    1       29.351 -18.744   5.935  0.00  0.00    +0.024 C 
ATOM     18  C   LIG    1       29.892 -19.742   6.965  0.00  0.00    +0.048 C 
ATOM     19  C   LIG    1       31.268 -19.273   7.441  0.00  0.00    +0.024 C 
ENDBRANCH  15  18
ENDBRANCH  14  15
ENDBRANCH  11  14
ENDBRANCH   1  11
TORSDOF 7
ENDMDL
