MODEL 1
REMARK VINA RESULT:      -9.1      0.000      0.000
REMARK  Name = *****
REMARK                            x       y       z     vdW  Elec       q    Type
REMARK                         _______ _______ _______ _____ _____    ______ ____
ROOT
ATOM      1  C   LIG    1       28.029 -20.616   7.577  0.00  0.00    +0.169 C 
ATOM      2  O   LIG    1       28.081 -21.588   8.333  0.00  0.00    -0.292 OA
ENDROOT
BRANCH   1  10
ATOM      3  C   LIG    1       25.474 -19.384   3.455  0.00  0.00    +0.149 C 
ATOM      4  N   LIG    1       25.792 -19.940   4.752  0.00  0.00    -0.349 NA
ATOM      5  C   LIG    1       24.901 -20.608   5.560  0.00  0.00    +0.050 C 
ATOM      6  C   LIG    1       25.595 -20.960   6.722  0.00  0.00    +0.010 C 
ATOM      7  C   LIG    1       24.895 -21.659   7.732  0.00  0.00    +0.010 C 
ATOM      8  C   LIG    1       23.546 -21.984   7.552  0.00  0.00    +0.001 C 
ATOM      9  C   LIG    1       22.884 -21.622   6.385  0.00  0.00    +0.002 C 
ATOM     10  C   LIG    1       26.946 -20.484   6.592  0.00  0.00    +0.043 C 
ATOM     11  C   LIG    1       23.546 -20.929   5.370  0.00  0.00    +0.026 C 
ATOM     12  C   LIG    1       27.022 -19.870   5.353  0.00  0.00    +0.098 C 
ENDBRANCH   1  10
BRANCH   1  13
ATOM     13  C   LIG    1       29.109 -19.539   7.648  0.00  0.00    +0.066 C 
ATOM     14  C   LIG    1       29.028 -18.792   9.005  0.00  0.00    +0.066 C 
ATOM     15  C   LIG    1       30.222 -17.924   9.130  0.00  0.00    +0.039 C 
ATOM     16  C   LIG    1       31.402 -18.065   8.438  0.00  0.00    +0.062 C 
ATOM     17  N   LIG    1       32.285 -17.081   8.781  0.00  0.00    -0.241 NA
ATOM     18  C   LIG    1       31.656 -16.361   9.687  0.00  0.00    +0.197 C 
ATOM     19  C   LIG    1       31.640 -19.109   7.411  0.00  0.00    +0.058 C 
ATOM     20  N   LIG    1       30.397 -16.841   9.940  0.00  0.00    -0.348 NA
ATOM     21  H   LIG    1       29.733 -16.454  10.595  0.00  0.00    +0.167 HD
ATOM     22  C   LIG    1       30.511 -20.167   7.431  0.00  0.00    +0.018 C 
ENDBRANCH   1  13
TORSDOF 2
ENDMDL
MODEL 2
REMARK VINA RESULT:      -8.8      2.237      3.238
REMARK  Name = *****
REMARK                            x       y       z     vdW  Elec       q    Type
REMARK                         _______ _______ _______ _____ _____    ______ ____
ROOT
ATOM      1  C   LIG    1       25.897 -20.816   8.406  0.00  0.00    +0.169 C 
ATOM      2  O   LIG    1       25.734 -20.836   9.627  0.00  0.00    -0.292 OA
ENDROOT
BRANCH   1  10
ATOM      3  C   LIG    1       22.032 -21.793   5.380  0.00  0.00    +0.149 C 
ATOM      4  N   LIG    1       23.242 -21.968   6.154  0.00  0.00    -0.349 NA
ATOM      5  C   LIG    1       23.936 -23.151   6.271  0.00  0.00    +0.050 C 
ATOM      6  C   LIG    1       25.021 -22.901   7.117  0.00  0.00    +0.010 C 
ATOM      7  C   LIG    1       25.899 -23.969   7.409  0.00  0.00    +0.010 C 
ATOM      8  C   LIG    1       25.673 -25.233   6.853  0.00  0.00    +0.001 C 
ATOM      9  C   LIG    1       24.586 -25.450   6.014  0.00  0.00    +0.002 C 
ATOM     10  C   LIG    1       24.966 -21.518   7.511  0.00  0.00    +0.043 C 
ATOM     11  C   LIG    1       23.699 -24.416   5.709  0.00  0.00    +0.026 C 
ATOM     12  C   LIG    1       23.855 -20.981   6.881  0.00  0.00    +0.098 C 
ENDBRANCH   1  10
BRANCH   1  13
ATOM     13  C   LIG    1       27.086 -20.069   7.809  0.00  0.00    +0.066 C 
ATOM     14  C   LIG    1       28.395 -20.489   8.529  0.00  0.00    +0.066 C 
ATOM     15  C   LIG    1       29.540 -19.926   7.778  0.00  0.00    +0.039 C 
ATOM     16  C   LIG    1       29.525 -19.511   6.467  0.00  0.00    +0.062 C 
ATOM     17  N   LIG    1       30.747 -19.027   6.097  0.00  0.00    -0.241 NA
ATOM     18  C   LIG    1       31.504 -19.164   7.165  0.00  0.00    +0.197 C 
ATOM     19  C   LIG    1       28.315 -19.531   5.607  0.00  0.00    +0.058 C 
ATOM     20  N   LIG    1       30.815 -19.716   8.214  0.00  0.00    -0.348 NA
ATOM     21  H   LIG    1       31.188 -19.915   9.132  0.00  0.00    +0.167 HD
ATOM     22  C   LIG    1       27.175 -20.329   6.281  0.00  0.00    +0.018 C 
ENDBRANCH   1  13
TORSDOF 2
ENDMDL
MODEL 3
REMARK VINA RESULT:      -8.5      2.186      3.227
REMARK  Name = *****
REMARK                            x       y       z     vdW  Elec       q    Type
REMARK                         _______ _______ _______ _____ _____    ______ ____
ROOT
ATOM      1  C   LIG    1       27.297 -19.916   5.654  0.00  0.00    +0.169 C 
ATOM      2  O   LIG    1       27.537 -19.329   4.597  0.00  0.00    -0.292 OA
ENDROOT
BRANCH   1  10
ATOM      3  C   LIG    1       24.004 -23.437   6.999  0.00  0.00    +0.149 C 
ATOM      4  N   LIG    1       24.558 -22.226   6.431  0.00  0.00    -0.349 NA
ATOM      5  C   LIG    1       23.838 -21.288   5.728  0.00  0.00    +0.050 C 
ATOM      6  C   LIG    1       24.741 -20.294   5.338  0.00  0.00    +0.010 C 
ATOM      7  C   LIG    1       24.249 -19.204   4.586  0.00  0.00    +0.010 C 
ATOM      8  C   LIG    1       22.892 -19.138   4.253  0.00  0.00    +0.001 C 
ATOM      9  C   LIG    1       22.018 -20.140   4.656  0.00  0.00    +0.002 C 
ATOM     10  C   LIG    1       26.041 -20.658   5.834  0.00  0.00    +0.043 C 
ATOM     11  C   LIG    1       22.473 -21.232   5.398  0.00  0.00    +0.026 C 
ATOM     12  C   LIG    1       25.874 -21.855   6.513  0.00  0.00    +0.098 C 
ENDBRANCH   1  10
BRANCH   1  13
ATOM     13  C   LIG    1       28.303 -19.862   6.800  0.00  0.00    +0.066 C 
ATOM     14  C   LIG    1       28.935 -21.262   7.020  0.00  0.00    +0.066 C 
ATOM     15  C   LIG    1       30.060 -21.120   7.973  0.00  0.00    +0.039 C 
ATOM     16  C   LIG    1       30.733 -19.956   8.264  0.00  0.00    +0.062 C 
ATOM     17  N   LIG    1       31.703 -20.178   9.200  0.00  0.00    -0.241 NA
ATOM     18  C   LIG    1       31.634 -21.467   9.461  0.00  0.00    +0.197 C 
ATOM     19  C   LIG    1       30.393 -18.635   7.680  0.00  0.00    +0.058 C 
ATOM     20  N   LIG    1       30.653 -22.087   8.731  0.00  0.00    -0.348 NA
ATOM     21  H   LIG    1       30.416 -23.068   8.763  0.00  0.00    +0.167 HD
ATOM     22  C   LIG    1       29.389 -18.791   6.514  0.00  0.00    +0.018 C 
ENDBRANCH   1  13
TORSDOF 2
ENDMDL
MODEL 4
REMARK VINA RESULT:      -8.5      3.124      7.454
REMARK  Name = *****
REMARK                            x       y       z     vdW  Elec       q    Type
REMARK                         _______ _______ _______ _____ _____    ______ ____
ROOT
ATOM      1  C   LIG    1       25.872 -21.278   7.666  0.00  0.00    +0.169 C 
ATOM      2  O   LIG    1       25.108 -20.506   8.248  0.00  0.00    -0.292 OA
ENDROOT
BRANCH   1  10
ATOM      3  C   LIG    1       30.703 -21.541   8.946  0.00  0.00    +0.149 C 
ATOM      4  N   LIG    1       29.490 -21.167   8.251  0.00  0.00    -0.349 NA
ATOM      5  C   LIG    1       29.425 -20.262   7.217  0.00  0.00    +0.050 C 
ATOM      6  C   LIG    1       28.080 -20.170   6.845  0.00  0.00    +0.010 C 
ATOM      7  C   LIG    1       27.737 -19.290   5.794  0.00  0.00    +0.010 C 
ATOM      8  C   LIG    1       28.732 -18.542   5.154  0.00  0.00    +0.001 C 
ATOM      9  C   LIG    1       30.061 -18.656   5.545  0.00  0.00    +0.002 C 
ATOM     10  C   LIG    1       27.325 -21.057   7.689  0.00  0.00    +0.043 C 
ATOM     11  C   LIG    1       30.431 -19.515   6.582  0.00  0.00    +0.026 C 
ATOM     12  C   LIG    1       28.243 -21.659   8.535  0.00  0.00    +0.098 C 
ENDBRANCH   1  10
BRANCH   1  13
ATOM     13  C   LIG    1       25.310 -22.470   6.896  0.00  0.00    +0.066 C 
ATOM     14  C   LIG    1       26.182 -23.727   7.151  0.00  0.00    +0.066 C 
ATOM     15  C   LIG    1       25.482 -24.902   6.581  0.00  0.00    +0.039 C 
ATOM     16  C   LIG    1       24.139 -24.984   6.295  0.00  0.00    +0.062 C 
ATOM     17  N   LIG    1       23.832 -26.203   5.762  0.00  0.00    -0.241 NA
ATOM     18  C   LIG    1       24.971 -26.863   5.743  0.00  0.00    +0.197 C 
ATOM     19  C   LIG    1       23.183 -23.865   6.482  0.00  0.00    +0.058 C 
ATOM     20  N   LIG    1       26.006 -26.114   6.241  0.00  0.00    -0.348 NA
ATOM     21  H   LIG    1       26.968 -26.409   6.326  0.00  0.00    +0.167 HD
ATOM     22  C   LIG    1       23.831 -22.718   7.292  0.00  0.00    +0.018 C 
ENDBRANCH   1  13
TORSDOF 2
ENDMDL
MODEL 5
REMARK VINA RESULT:      -8.5      5.057      8.405
REMARK  Name = *****
REMARK                            x       y       z     vdW  Elec       q    Type
REMARK                         _______ _______ _______ _____ _____    ______ ____
ROOT
ATOM      1  C   LIG    1       24.312 -24.420   6.570  0.00  0.00    +0.169 C 
ATOM      2  O   LIG    1       23.099 -24.311   6.757  0.00  0.00    -0.292 OA
ENDROOT
BRANCH   1  10
ATOM      3  C   LIG    1       27.885 -21.098   7.686  0.00  0.00    +0.149 C 
ATOM      4  N   LIG    1       26.772 -21.739   7.019  0.00  0.00    -0.349 NA
ATOM      5  C   LIG    1       26.092 -21.211   5.945  0.00  0.00    +0.050 C 
ATOM      6  C   LIG    1       25.085 -22.124   5.618  0.00  0.00    +0.010 C 
ATOM      7  C   LIG    1       24.227 -21.812   4.539  0.00  0.00    +0.010 C 
ATOM      8  C   LIG    1       24.400 -20.619   3.828  0.00  0.00    +0.001 C 
ATOM      9  C   LIG    1       25.412 -19.732   4.176  0.00  0.00    +0.002 C 
ATOM     10  C   LIG    1       25.177 -23.232   6.530  0.00  0.00    +0.043 C 
ATOM     11  C   LIG    1       26.274 -20.010   5.239  0.00  0.00    +0.026 C 
ATOM     12  C   LIG    1       26.243 -22.952   7.370  0.00  0.00    +0.098 C 
ENDBRANCH   1  10
BRANCH   1  13
ATOM     13  C   LIG    1       24.930 -25.800   6.360  0.00  0.00    +0.066 C 
ATOM     14  C   LIG    1       23.854 -26.900   6.556  0.00  0.00    +0.066 C 
ATOM     15  C   LIG    1       24.428 -28.194   6.121  0.00  0.00    +0.039 C 
ATOM     16  C   LIG    1       25.507 -28.362   5.285  0.00  0.00    +0.062 C 
ATOM     17  N   LIG    1       25.782 -29.689   5.109  0.00  0.00    -0.241 NA
ATOM     18  C   LIG    1       24.868 -30.321   5.814  0.00  0.00    +0.197 C 
ATOM     19  C   LIG    1       26.296 -27.241   4.717  0.00  0.00    +0.058 C 
ATOM     20  N   LIG    1       24.013 -29.453   6.443  0.00  0.00    -0.348 NA
ATOM     21  H   LIG    1       23.236 -29.707   7.036  0.00  0.00    +0.167 HD
ATOM     22  C   LIG    1       25.582 -25.890   4.955  0.00  0.00    +0.018 C 
ENDBRANCH   1  13
TORSDOF 2
ENDMDL
MODEL 6
REMARK VINA RESULT:      -8.4      6.111      8.482
REMARK  Name = *****
REMARK                            x       y       z     vdW  Elec       q    Type
REMARK                         _______ _______ _______ _____ _____    ______ ____
ROOT
ATOM      1  C   LIG    1       25.362 -26.538   5.730  0.00  0.00    +0.169 C 
ATOM      2  O   LIG    1       25.846 -26.378   4.608  0.00  0.00    -0.292 OA
ENDROOT
BRANCH   1  10
ATOM      3  C   LIG    1       23.783 -31.260   6.239  0.00  0.00    +0.149 C 
ATOM      4  N   LIG    1       24.445 -30.002   6.508  0.00  0.00    -0.349 NA
ATOM      5  C   LIG    1       25.173 -29.725   7.643  0.00  0.00    +0.050 C 
ATOM      6  C   LIG    1       25.622 -28.407   7.523  0.00  0.00    +0.010 C 
ATOM      7  C   LIG    1       26.398 -27.868   8.575  0.00  0.00    +0.010 C 
ATOM      8  C   LIG    1       26.700 -28.651   9.694  0.00  0.00    +0.001 C 
ATOM      9  C   LIG    1       26.241 -29.959   9.784  0.00  0.00    +0.002 C 
ATOM     10  C   LIG    1       25.145 -27.888   6.270  0.00  0.00    +0.043 C 
ATOM     11  C   LIG    1       25.470 -30.520   8.764  0.00  0.00    +0.026 C 
ATOM     12  C   LIG    1       24.431 -28.916   5.674  0.00  0.00    +0.098 C 
ENDBRANCH   1  10
BRANCH   1  13
ATOM     13  C   LIG    1       24.964 -25.326   6.568  0.00  0.00    +0.066 C 
ATOM     14  C   LIG    1       26.142 -24.320   6.642  0.00  0.00    +0.066 C 
ATOM     15  C   LIG    1       25.646 -23.068   7.259  0.00  0.00    +0.039 C 
ATOM     16  C   LIG    1       24.333 -22.669   7.338  0.00  0.00    +0.062 C 
ATOM     17  N   LIG    1       24.229 -21.472   7.989  0.00  0.00    -0.241 NA
ATOM     18  C   LIG    1       25.467 -21.138   8.285  0.00  0.00    +0.197 C 
ATOM     19  C   LIG    1       23.191 -23.475   6.839  0.00  0.00    +0.058 C 
ATOM     20  N   LIG    1       26.369 -22.076   7.853  0.00  0.00    -0.348 NA
ATOM     21  H   LIG    1       27.372 -22.034   7.966  0.00  0.00    +0.167 HD
ATOM     22  C   LIG    1       23.689 -24.662   5.983  0.00  0.00    +0.018 C 
ENDBRANCH   1  13
TORSDOF 2
ENDMDL
MODEL 7
REMARK VINA RESULT:      -8.4      5.407      8.750
REMARK  Name = *****
REMARK                            x       y       z     vdW  Elec       q    Type
REMARK                         _______ _______ _______ _____ _____    ______ ____
ROOT
ATOM      1  C   LIG    1       24.966 -24.994   5.488  0.00  0.00    +0.169 C 
ATOM      2  O   LIG    1       25.138 -25.005   4.268  0.00  0.00    -0.292 OA
ENDROOT
BRANCH   1  10
ATOM      3  C   LIG    1       26.201 -21.475   8.825  0.00  0.00    +0.149 C 
ATOM      4  N   LIG    1       25.541 -22.148   7.728  0.00  0.00    -0.349 NA
ATOM      5  C   LIG    1       24.509 -21.618   6.988  0.00  0.00    +0.050 C 
ATOM      6  C   LIG    1       24.145 -22.588   6.049  0.00  0.00    +0.010 C 
ATOM      7  C   LIG    1       23.089 -22.291   5.159  0.00  0.00    +0.010 C 
ATOM      8  C   LIG    1       22.441 -21.053   5.229  0.00  0.00    +0.001 C 
ATOM      9  C   LIG    1       22.826 -20.108   6.172  0.00  0.00    +0.002 C 
ATOM     10  C   LIG    1       24.997 -23.731   6.240  0.00  0.00    +0.043 C 
ATOM     11  C   LIG    1       23.864 -20.372   7.068  0.00  0.00    +0.026 C 
ATOM     12  C   LIG    1       25.850 -23.407   7.283  0.00  0.00    +0.098 C 
ENDBRANCH   1  10
BRANCH   1  13
ATOM     13  C   LIG    1       24.734 -26.303   6.237  0.00  0.00    +0.066 C 
ATOM     14  C   LIG    1       24.192 -27.384   5.265  0.00  0.00    +0.066 C 
ATOM     15  C   LIG    1       24.200 -28.688   5.968  0.00  0.00    +0.039 C 
ATOM     16  C   LIG    1       24.949 -29.006   7.076  0.00  0.00    +0.062 C 
ATOM     17  N   LIG    1       24.700 -30.287   7.479  0.00  0.00    -0.241 NA
ATOM     18  C   LIG    1       23.823 -30.750   6.612  0.00  0.00    +0.197 C 
ATOM     19  C   LIG    1       25.850 -28.051   7.769  0.00  0.00    +0.058 C 
ATOM     20  N   LIG    1       23.494 -29.814   5.666  0.00  0.00    -0.348 NA
ATOM     21  H   LIG    1       22.844 -29.942   4.903  0.00  0.00    +0.167 HD
ATOM     22  C   LIG    1       26.044 -26.769   6.926  0.00  0.00    +0.018 C 
ENDBRANCH   1  13
TORSDOF 2
ENDMDL
MODEL 8
REMARK VINA RESULT:      -8.4      2.097      7.007
REMARK  Name = *****
REMARK                            x       y       z     vdW  Elec       q    Type
REMARK                         _______ _______ _______ _____ _____    ______ ____
ROOT
ATOM      1  C   LIG    1       28.360 -19.620   6.050  0.00  0.00    +0.169 C 
ATOM      2  O   LIG    1       28.618 -18.748   5.219  0.00  0.00    -0.292 OA
ENDROOT
BRANCH   1  10
ATOM      3  C   LIG    1       31.266 -22.084   9.295  0.00  0.00    +0.149 C 
ATOM      4  N   LIG    1       30.595 -21.002   8.607  0.00  0.00    -0.349 NA
ATOM      5  C   LIG    1       30.687 -19.673   8.954  0.00  0.00    +0.050 C 
ATOM      6  C   LIG    1       29.879 -18.965   8.060  0.00  0.00    +0.010 C 
ATOM      7  C   LIG    1       29.792 -17.562   8.207  0.00  0.00    +0.010 C 
ATOM      8  C   LIG    1       30.507 -16.919   9.222  0.00  0.00    +0.001 C 
ATOM      9  C   LIG    1       31.305 -17.650  10.095  0.00  0.00    +0.002 C 
ATOM     10  C   LIG    1       29.290 -19.911   7.150  0.00  0.00    +0.043 C 
ATOM     11  C   LIG    1       31.409 -19.037   9.978  0.00  0.00    +0.026 C 
ATOM     12  C   LIG    1       29.772 -21.156   7.522  0.00  0.00    +0.098 C 
ENDBRANCH   1  10
BRANCH   1  13
ATOM     13  C   LIG    1       27.067 -20.424   5.934  0.00  0.00    +0.066 C 
ATOM     14  C   LIG    1       26.312 -20.418   7.289  0.00  0.00    +0.066 C 
ATOM     15  C   LIG    1       24.969 -21.004   7.075  0.00  0.00    +0.039 C 
ATOM     16  C   LIG    1       24.315 -21.113   5.870  0.00  0.00    +0.062 C 
ATOM     17  N   LIG    1       23.102 -21.721   6.030  0.00  0.00    -0.241 NA
ATOM     18  C   LIG    1       23.010 -21.960   7.321  0.00  0.00    +0.197 C 
ATOM     19  C   LIG    1       24.894 -20.686   4.572  0.00  0.00    +0.058 C 
ATOM     20  N   LIG    1       24.121 -21.533   8.002  0.00  0.00    -0.348 NA
ATOM     21  H   LIG    1       24.275 -21.610   8.998  0.00  0.00    +0.167 HD
ATOM     22  C   LIG    1       26.182 -19.859   4.791  0.00  0.00    +0.018 C 
ENDBRANCH   1  13
TORSDOF 2
ENDMDL
MODEL 9
REMARK VINA RESULT:      -8.4      1.429      2.578
REMARK  Name = *****
REMARK                            x       y       z     vdW  Elec       q    Type
REMARK                         _______ _______ _______ _____ _____    ______ ____
ROOT
ATOM      1  C   LIG    1       27.617 -21.512   7.063  0.00  0.00    +0.169 C 
ATOM      2  O   LIG    1       28.176 -22.607   6.981  0.00  0.00    -0.292 OA
ENDROOT
BRANCH   1  10
ATOM      3  C   LIG    1       22.652 -22.026   7.424  0.00  0.00    +0.149 C 
ATOM      4  N   LIG    1       23.954 -21.602   6.954  0.00  0.00    -0.349 NA
ATOM      5  C   LIG    1       24.169 -20.805   5.853  0.00  0.00    +0.050 C 
ATOM      6  C   LIG    1       25.553 -20.650   5.731  0.00  0.00    +0.010 C 
ATOM      7  C   LIG    1       26.046 -19.870   4.661  0.00  0.00    +0.010 C 
ATOM      8  C   LIG    1       25.156 -19.274   3.761  0.00  0.00    +0.001 C 
ATOM      9  C   LIG    1       23.785 -19.445   3.909  0.00  0.00    +0.002 C 
ATOM     10  C   LIG    1       26.177 -21.381   6.802  0.00  0.00    +0.043 C 
ATOM     11  C   LIG    1       23.267 -20.212   4.954  0.00  0.00    +0.026 C 
ATOM     12  C   LIG    1       25.145 -21.943   7.537  0.00  0.00    +0.098 C 
ENDBRANCH   1  10
BRANCH   1  13
ATOM     13  C   LIG    1       28.427 -20.269   7.423  0.00  0.00    +0.066 C 
ATOM     14  C   LIG    1       29.485 -20.617   8.503  0.00  0.00    +0.066 C 
ATOM     15  C   LIG    1       30.393 -19.456   8.655  0.00  0.00    +0.039 C 
ATOM     16  C   LIG    1       30.584 -18.452   7.736  0.00  0.00    +0.062 C 
ATOM     17  N   LIG    1       31.476 -17.529   8.205  0.00  0.00    -0.241 NA
ATOM     18  C   LIG    1       31.838 -17.979   9.388  0.00  0.00    +0.197 C 
ATOM     19  C   LIG    1       29.859 -18.362   6.444  0.00  0.00    +0.058 C 
ATOM     20  N   LIG    1       31.211 -19.156   9.704  0.00  0.00    -0.348 NA
ATOM     21  H   LIG    1       31.332 -19.686  10.555  0.00  0.00    +0.167 HD
ATOM     22  C   LIG    1       29.091 -19.672   6.153  0.00  0.00    +0.018 C 
ENDBRANCH   1  13
TORSDOF 2
ENDMDL
