MODEL 1
REMARK VINA RESULT:      -5.5      0.000      0.000
REMARK  Name = *****
REMARK                            x       y       z     vdW  Elec       q    Type
REMARK                         _______ _______ _______ _____ _____    ______ ____
ROOT
ATOM      1  C   LIG    1       25.331 -17.901   3.438  0.00  0.00    +0.000 C 
ENDROOT
BRANCH   1   2
ATOM      2  C   LIG    1       25.684 -19.398   3.638  0.00  0.00    -0.000 C 
BRANCH   2   3
ATOM      3  C   LIG    1       26.328 -19.851   4.978  0.00  0.00    -0.000 C 
BRANCH   3   4
ATOM      4  C   LIG    1       25.554 -21.054   5.621  0.00  0.00    -0.000 C 
BRANCH   4   5
ATOM      5  C   LIG    1       24.844 -20.762   6.980  0.00  0.00    -0.000 C 
BRANCH   5   6
ATOM      6  C   LIG    1       23.291 -20.743   6.925  0.00  0.00    -0.000 C 
BRANCH   6   8
ATOM      7  C   LIG    1       22.349 -19.203   5.015  0.00  0.00    +0.004 C 
ATOM      8  C   LIG    1       22.666 -20.611   5.512  0.00  0.00    -0.003 C 
ENDBRANCH   6   8
ENDBRANCH   5   6
ENDBRANCH   4   5
ENDBRANCH   3   4
ENDBRANCH   2   3
ENDBRANCH   1   2
BRANCH   1   9
ATOM      9  C   LIG    1       26.494 -16.888   3.401  0.00  0.00    +0.000 C 
BRANCH   9  10
ATOM     10  C   LIG    1       26.015 -15.436   3.423  0.00  0.00    +0.011 C 
BRANCH  10  11
ATOM     11  C   LIG    1       26.955 -14.410   2.787  0.00  0.00    +0.120 C 
BRANCH  11  12
ATOM     12  C   LIG    1       27.698 -13.658   3.882  0.00  0.00    +0.305 C 
ATOM     13  O   LIG    1       27.308 -13.561   5.014  0.00  0.00    -0.251 OA
BRANCH  12  14
ATOM     14  O   LIG    1       28.869 -13.099   3.464  0.00  0.00    -0.481 OA
ATOM     15  H   LIG    1       29.070 -12.230   3.838  0.00  0.00    +0.295 HD
ENDBRANCH  12  14
ENDBRANCH  11  12
ENDBRANCH  10  11
ENDBRANCH   9  10
ENDBRANCH   1   9
TORSDOF 11
ENDMDL
MODEL 2
REMARK VINA RESULT:      -5.5      1.773      3.098
REMARK  Name = *****
REMARK                            x       y       z     vdW  Elec       q    Type
REMARK                         _______ _______ _______ _____ _____    ______ ____
ROOT
ATOM      1  C   LIG    1       23.438 -16.199   4.147  0.00  0.00    +0.000 C 
ENDROOT
BRANCH   1   2
ATOM      2  C   LIG    1       22.246 -17.018   4.708  0.00  0.00    -0.000 C 
BRANCH   2   3
ATOM      3  C   LIG    1       22.094 -18.509   4.299  0.00  0.00    -0.000 C 
BRANCH   3   4
ATOM      4  C   LIG    1       22.608 -19.478   5.421  0.00  0.00    -0.000 C 
BRANCH   4   5
ATOM      5  C   LIG    1       22.903 -20.945   4.975  0.00  0.00    -0.000 C 
BRANCH   5   6
ATOM      6  C   LIG    1       24.269 -21.159   4.264  0.00  0.00    -0.000 C 
BRANCH   6   8
ATOM      7  C   LIG    1       26.170 -20.500   5.956  0.00  0.00    +0.004 C 
ATOM      8  C   LIG    1       25.404 -20.184   4.674  0.00  0.00    -0.003 C 
ENDBRANCH   6   8
ENDBRANCH   5   6
ENDBRANCH   4   5
ENDBRANCH   3   4
ENDBRANCH   2   3
ENDBRANCH   1   2
BRANCH   1   9
ATOM      9  C   LIG    1       23.539 -14.713   4.548  0.00  0.00    +0.000 C 
BRANCH   9  10
ATOM     10  C   LIG    1       24.553 -13.939   3.704  0.00  0.00    +0.011 C 
BRANCH  10  11
ATOM     11  C   LIG    1       26.018 -14.078   4.121  0.00  0.00    +0.120 C 
BRANCH  11  12
ATOM     12  C   LIG    1       26.910 -13.905   2.900  0.00  0.00    +0.305 C 
ATOM     13  O   LIG    1       26.667 -14.371   1.819  0.00  0.00    -0.251 OA
BRANCH  12  14
ATOM     14  O   LIG    1       28.024 -13.157   3.136  0.00  0.00    -0.481 OA
ATOM     15  H   LIG    1       28.291 -12.571   2.415  0.00  0.00    +0.295 HD
ENDBRANCH  12  14
ENDBRANCH  11  12
ENDBRANCH  10  11
ENDBRANCH   9  10
ENDBRANCH   1   9
TORSDOF 11
ENDMDL
MODEL 3
REMARK VINA RESULT:      -5.4      2.075      2.982
REMARK  Name = *****
REMARK                            x       y       z     vdW  Elec       q    Type
REMARK                         _______ _______ _______ _____ _____    ______ ____
ROOT
ATOM      1  C   LIG    1       26.952 -16.422   3.625  0.00  0.00    +0.000 C 
ENDROOT
BRANCH   1   2
ATOM      2  C   LIG    1       25.686 -17.256   3.293  0.00  0.00    -0.000 C 
BRANCH   2   3
ATOM      3  C   LIG    1       25.646 -18.758   3.686  0.00  0.00    -0.000 C 
BRANCH   3   4
ATOM      4  C   LIG    1       24.253 -19.408   3.369  0.00  0.00    -0.000 C 
BRANCH   4   5
ATOM      5  C   LIG    1       23.018 -18.746   4.055  0.00  0.00    -0.000 C 
BRANCH   5   6
ATOM      6  C   LIG    1       22.435 -19.527   5.266  0.00  0.00    -0.000 C 
BRANCH   6   8
ATOM      7  C   LIG    1       23.779 -20.899   7.061  0.00  0.00    +0.004 C 
ATOM      8  C   LIG    1       23.186 -20.827   5.657  0.00  0.00    -0.003 C 
ENDBRANCH   6   8
ENDBRANCH   5   6
ENDBRANCH   4   5
ENDBRANCH   3   4
ENDBRANCH   2   3
ENDBRANCH   1   2
BRANCH   1   9
ATOM      9  C   LIG    1       26.893 -14.900   3.382  0.00  0.00    +0.000 C 
BRANCH   9  10
ATOM     10  C   LIG    1       26.419 -14.122   4.610  0.00  0.00    +0.011 C 
BRANCH  10  11
ATOM     11  C   LIG    1       25.311 -13.095   4.368  0.00  0.00    +0.120 C 
BRANCH  11  12
ATOM     12  C   LIG    1       24.074 -13.803   3.836  0.00  0.00    +0.305 C 
ATOM     13  O   LIG    1       23.530 -14.718   4.394  0.00  0.00    -0.251 OA
BRANCH  12  14
ATOM     14  O   LIG    1       23.621 -13.299   2.653  0.00  0.00    -0.481 OA
ATOM     15  H   LIG    1       24.170 -13.493   1.882  0.00  0.00    +0.295 HD
ENDBRANCH  12  14
ENDBRANCH  11  12
ENDBRANCH  10  11
ENDBRANCH   9  10
ENDBRANCH   1   9
TORSDOF 11
ENDMDL
MODEL 4
REMARK VINA RESULT:      -5.3      3.622      6.482
REMARK  Name = *****
REMARK                            x       y       z     vdW  Elec       q    Type
REMARK                         _______ _______ _______ _____ _____    ______ ____
ROOT
ATOM      1  C   LIG    1       25.973 -18.782   3.687  0.00  0.00    +0.000 C 
ENDROOT
BRANCH   1   2
ATOM      2  C   LIG    1       25.820 -17.297   3.264  0.00  0.00    -0.000 C 
BRANCH   2   3
ATOM      3  C   LIG    1       26.965 -16.298   3.587  0.00  0.00    -0.000 C 
BRANCH   3   4
ATOM      4  C   LIG    1       26.727 -14.900   2.914  0.00  0.00    -0.000 C 
BRANCH   4   5
ATOM      5  C   LIG    1       26.648 -13.679   3.882  0.00  0.00    -0.000 C 
BRANCH   5   6
ATOM      6  C   LIG    1       25.365 -13.612   4.758  0.00  0.00    -0.000 C 
BRANCH   6   8
ATOM      7  C   LIG    1       23.206 -15.096   4.554  0.00  0.00    +0.004 C 
ATOM      8  C   LIG    1       24.032 -13.925   4.029  0.00  0.00    -0.003 C 
ENDBRANCH   6   8
ENDBRANCH   5   6
ENDBRANCH   4   5
ENDBRANCH   3   4
ENDBRANCH   2   3
ENDBRANCH   1   2
BRANCH   1   9
ATOM      9  C   LIG    1       24.688 -19.625   3.821  0.00  0.00    +0.000 C 
BRANCH   9  10
ATOM     10  C   LIG    1       23.414 -18.784   3.730  0.00  0.00    +0.011 C 
BRANCH  10  11
ATOM     11  C   LIG    1       22.376 -19.017   4.828  0.00  0.00    +0.120 C 
BRANCH  11  12
ATOM     12  C   LIG    1       22.653 -20.348   5.512  0.00  0.00    +0.305 C 
ATOM     13  O   LIG    1       23.300 -20.466   6.517  0.00  0.00    -0.251 OA
BRANCH  12  14
ATOM     14  O   LIG    1       22.090 -21.415   4.878  0.00  0.00    -0.481 OA
ATOM     15  H   LIG    1       22.697 -21.951   4.350  0.00  0.00    +0.295 HD
ENDBRANCH  12  14
ENDBRANCH  11  12
ENDBRANCH  10  11
ENDBRANCH   9  10
ENDBRANCH   1   9
TORSDOF 11
ENDMDL
MODEL 5
REMARK VINA RESULT:      -5.3      1.710      3.165
REMARK  Name = *****
REMARK                            x       y       z     vdW  Elec       q    Type
REMARK                         _______ _______ _______ _____ _____    ______ ____
ROOT
ATOM      1  C   LIG    1       24.191 -14.045   4.342  0.00  0.00    +0.000 C 
ENDROOT
BRANCH   1   2
ATOM      2  C   LIG    1       23.097 -15.112   4.611  0.00  0.00    -0.000 C 
BRANCH   2   3
ATOM      3  C   LIG    1       23.332 -16.572   4.135  0.00  0.00    -0.000 C 
BRANCH   3   4
ATOM      4  C   LIG    1       22.234 -17.550   4.685  0.00  0.00    -0.000 C 
BRANCH   4   5
ATOM      5  C   LIG    1       22.460 -19.065   4.390  0.00  0.00    -0.000 C 
BRANCH   5   6
ATOM      6  C   LIG    1       22.740 -19.948   5.639  0.00  0.00    -0.000 C 
BRANCH   6   8
ATOM      7  C   LIG    1       25.124 -20.272   4.581  0.00  0.00    +0.004 C 
ATOM      8  C   LIG    1       24.138 -20.617   5.693  0.00  0.00    -0.003 C 
ENDBRANCH   6   8
ENDBRANCH   5   6
ENDBRANCH   4   5
ENDBRANCH   3   4
ENDBRANCH   2   3
ENDBRANCH   1   2
BRANCH   1   9
ATOM      9  C   LIG    1       24.305 -13.480   2.912  0.00  0.00    +0.000 C 
BRANCH   9  10
ATOM     10  C   LIG    1       25.737 -13.093   2.539  0.00  0.00    +0.011 C 
BRANCH  10  11
ATOM     11  C   LIG    1       26.815 -14.135   2.847  0.00  0.00    +0.120 C 
BRANCH  11  12
ATOM     12  C   LIG    1       27.839 -13.535   3.800  0.00  0.00    +0.305 C 
ATOM     13  O   LIG    1       27.588 -13.179   4.920  0.00  0.00    -0.251 OA
BRANCH  12  14
ATOM     14  O   LIG    1       29.091 -13.441   3.269  0.00  0.00    -0.481 OA
ATOM     15  H   LIG    1       29.566 -14.277   3.177  0.00  0.00    +0.295 HD
ENDBRANCH  12  14
ENDBRANCH  11  12
ENDBRANCH  10  11
ENDBRANCH   9  10
ENDBRANCH   1   9
TORSDOF 11
ENDMDL
MODEL 6
REMARK VINA RESULT:      -5.3      1.936      2.533
REMARK  Name = *****
REMARK                            x       y       z     vdW  Elec       q    Type
REMARK                         _______ _______ _______ _____ _____    ______ ____
ROOT
ATOM      1  C   LIG    1       26.029 -15.946   3.312  0.00  0.00    +0.000 C 
ENDROOT
BRANCH   1   2
ATOM      2  C   LIG    1       26.421 -17.447   3.356  0.00  0.00    -0.000 C 
BRANCH   2   3
ATOM      3  C   LIG    1       25.300 -18.518   3.446  0.00  0.00    -0.000 C 
BRANCH   3   4
ATOM      4  C   LIG    1       25.711 -19.720   4.367  0.00  0.00    -0.000 C 
BRANCH   4   5
ATOM      5  C   LIG    1       24.599 -20.778   4.649  0.00  0.00    -0.000 C 
BRANCH   5   6
ATOM      6  C   LIG    1       23.466 -20.309   5.604  0.00  0.00    -0.000 C 
BRANCH   6   8
ATOM      7  C   LIG    1       22.106 -18.325   4.546  0.00  0.00    +0.004 C 
ATOM      8  C   LIG    1       22.170 -19.803   4.918  0.00  0.00    -0.003 C 
ENDBRANCH   6   8
ENDBRANCH   5   6
ENDBRANCH   4   5
ENDBRANCH   3   4
ENDBRANCH   2   3
ENDBRANCH   1   2
BRANCH   1   9
ATOM      9  C   LIG    1       27.111 -14.912   3.685  0.00  0.00    +0.000 C 
BRANCH   9  10
ATOM     10  C   LIG    1       26.840 -13.530   3.089  0.00  0.00    +0.011 C 
BRANCH  10  11
ATOM     11  C   LIG    1       25.542 -13.385   2.291  0.00  0.00    +0.120 C 
BRANCH  11  12
ATOM     12  C   LIG    1       24.509 -12.655   3.137  0.00  0.00    +0.305 C 
ATOM     13  O   LIG    1       24.398 -12.787   4.326  0.00  0.00    -0.251 OA
BRANCH  12  14
ATOM     14  O   LIG    1       23.709 -11.817   2.419  0.00  0.00    -0.481 OA
ATOM     15  H   LIG    1       22.854 -12.184   2.156  0.00  0.00    +0.295 HD
ENDBRANCH  12  14
ENDBRANCH  11  12
ENDBRANCH  10  11
ENDBRANCH   9  10
ENDBRANCH   1   9
TORSDOF 11
ENDMDL
MODEL 7
REMARK VINA RESULT:      -5.3      3.243      6.933
REMARK  Name = *****
REMARK                            x       y       z     vdW  Elec       q    Type
REMARK                         _______ _______ _______ _____ _____    ______ ____
ROOT
ATOM      1  C   LIG    1       23.085 -16.972   4.111  0.00  0.00    +0.000 C 
ENDROOT
BRANCH   1   2
ATOM      2  C   LIG    1       22.895 -15.497   4.552  0.00  0.00    -0.000 C 
BRANCH   2   3
ATOM      3  C   LIG    1       24.089 -14.510   4.424  0.00  0.00    -0.000 C 
BRANCH   3   4
ATOM      4  C   LIG    1       23.933 -13.561   3.185  0.00  0.00    -0.000 C 
BRANCH   4   5
ATOM      5  C   LIG    1       25.261 -13.063   2.534  0.00  0.00    -0.000 C 
BRANCH   5   6
ATOM      6  C   LIG    1       26.417 -14.102   2.510  0.00  0.00    -0.000 C 
BRANCH   6   8
ATOM      7  C   LIG    1       27.453 -13.405   4.823  0.00  0.00    +0.004 C 
ATOM      8  C   LIG    1       27.670 -13.738   3.350  0.00  0.00    -0.003 C 
ENDBRANCH   6   8
ENDBRANCH   5   6
ENDBRANCH   4   5
ENDBRANCH   3   4
ENDBRANCH   2   3
ENDBRANCH   1   2
BRANCH   1   9
ATOM      9  C   LIG    1       22.092 -18.018   4.660  0.00  0.00    +0.000 C 
BRANCH   9  10
ATOM     10  C   LIG    1       22.693 -19.422   4.738  0.00  0.00    +0.011 C 
BRANCH  10  11
ATOM     11  C   LIG    1       23.952 -19.661   3.903  0.00  0.00    +0.120 C 
BRANCH  11  12
ATOM     12  C   LIG    1       25.049 -20.226   4.794  0.00  0.00    +0.305 C 
ATOM     13  O   LIG    1       24.880 -20.570   5.933  0.00  0.00    -0.251 OA
BRANCH  12  14
ATOM     14  O   LIG    1       26.261 -20.317   4.178  0.00  0.00    -0.481 OA
ATOM     15  H   LIG    1       26.417 -19.676   3.471  0.00  0.00    +0.295 HD
ENDBRANCH  12  14
ENDBRANCH  11  12
ENDBRANCH  10  11
ENDBRANCH   9  10
ENDBRANCH   1   9
TORSDOF 11
ENDMDL
MODEL 8
REMARK VINA RESULT:      -5.3      1.588      2.967
REMARK  Name = *****
REMARK                            x       y       z     vdW  Elec       q    Type
REMARK                         _______ _______ _______ _____ _____    ______ ____
ROOT
ATOM      1  C   LIG    1       23.580 -15.700   4.145  0.00  0.00    +0.000 C 
ENDROOT
BRANCH   1   2
ATOM      2  C   LIG    1       22.380 -16.399   4.837  0.00  0.00    -0.000 C 
BRANCH   2   3
ATOM      3  C   LIG    1       22.102 -17.898   4.536  0.00  0.00    -0.000 C 
BRANCH   3   4
ATOM      4  C   LIG    1       23.378 -18.631   3.993  0.00  0.00    -0.000 C 
BRANCH   4   5
ATOM      5  C   LIG    1       23.476 -20.156   4.309  0.00  0.00    -0.000 C 
BRANCH   5   6
ATOM      6  C   LIG    1       22.636 -20.636   5.526  0.00  0.00    -0.000 C 
BRANCH   6   8
ATOM      7  C   LIG    1       24.924 -20.731   6.816  0.00  0.00    +0.004 C 
ATOM      8  C   LIG    1       23.400 -20.749   6.872  0.00  0.00    -0.003 C 
ENDBRANCH   6   8
ENDBRANCH   5   6
ENDBRANCH   4   5
ENDBRANCH   3   4
ENDBRANCH   2   3
ENDBRANCH   1   2
BRANCH   1   9
ATOM      9  C   LIG    1       23.827 -14.212   4.468  0.00  0.00    +0.000 C 
BRANCH   9  10
ATOM     10  C   LIG    1       25.030 -13.635   3.720  0.00  0.00    +0.011 C 
BRANCH  10  11
ATOM     11  C   LIG    1       26.305 -14.479   3.747  0.00  0.00    +0.120 C 
BRANCH  11  12
ATOM     12  C   LIG    1       27.425 -13.681   4.399  0.00  0.00    +0.305 C 
ATOM     13  O   LIG    1       28.478 -13.445   3.871  0.00  0.00    -0.251 OA
BRANCH  12  14
ATOM     14  O   LIG    1       27.124 -13.241   5.653  0.00  0.00    -0.481 OA
ATOM     15  H   LIG    1       26.183 -13.125   5.838  0.00  0.00    +0.295 HD
ENDBRANCH  12  14
ENDBRANCH  11  12
ENDBRANCH  10  11
ENDBRANCH   9  10
ENDBRANCH   1   9
TORSDOF 11
ENDMDL
MODEL 9
REMARK VINA RESULT:      -5.0      3.120      6.395
REMARK  Name = *****
REMARK                            x       y       z     vdW  Elec       q    Type
REMARK                         _______ _______ _______ _____ _____    ______ ____
ROOT
ATOM      1  C   LIG    1       26.359 -17.453   3.485  0.00  0.00    +0.000 C 
ENDROOT
BRANCH   1   2
ATOM      2  C   LIG    1       26.318 -15.943   3.132  0.00  0.00    -0.000 C 
BRANCH   2   3
ATOM      3  C   LIG    1       27.366 -14.989   3.770  0.00  0.00    -0.000 C 
BRANCH   3   4
ATOM      4  C   LIG    1       26.939 -13.484   3.645  0.00  0.00    -0.000 C 
BRANCH   4   5
ATOM      5  C   LIG    1       25.958 -13.147   2.479  0.00  0.00    -0.000 C 
BRANCH   5   6
ATOM      6  C   LIG    1       24.500 -12.827   2.912  0.00  0.00    -0.000 C 
BRANCH   6   8
ATOM      7  C   LIG    1       23.364 -14.678   4.392  0.00  0.00    +0.004 C 
ATOM      8  C   LIG    1       24.085 -13.335   4.317  0.00  0.00    -0.003 C 
ENDBRANCH   6   8
ENDBRANCH   5   6
ENDBRANCH   4   5
ENDBRANCH   3   4
ENDBRANCH   2   3
ENDBRANCH   1   2
BRANCH   1   9
ATOM      9  C   LIG    1       25.036 -18.243   3.414  0.00  0.00    +0.000 C 
BRANCH   9  10
ATOM     10  C   LIG    1       25.221 -19.736   3.685  0.00  0.00    +0.011 C 
BRANCH  10  11
ATOM     11  C   LIG    1       24.922 -20.202   5.111  0.00  0.00    +0.120 C 
BRANCH  11  12
ATOM     12  C   LIG    1       26.231 -20.435   5.852  0.00  0.00    +0.305 C 
ATOM     13  O   LIG    1       26.306 -20.678   7.026  0.00  0.00    -0.251 OA
BRANCH  12  14
ATOM     14  O   LIG    1       27.333 -20.351   5.054  0.00  0.00    -0.481 OA
ATOM     15  H   LIG    1       27.903 -21.132   5.051  0.00  0.00    +0.295 HD
ENDBRANCH  12  14
ENDBRANCH  11  12
ENDBRANCH  10  11
ENDBRANCH   9  10
ENDBRANCH   1   9
TORSDOF 11
ENDMDL
