MODEL 1
REMARK VINA RESULT:      -6.0      0.000      0.000
REMARK  Name = *****
REMARK                            x       y       z     vdW  Elec       q    Type
REMARK                         _______ _______ _______ _____ _____    ______ ____
ROOT
ATOM      1  C   LIG    1       26.523 -17.830   3.577  0.00  0.00    +0.261 C 
ENDROOT
BRANCH   1   2
ATOM      2  O   LIG    1       25.645 -16.771   3.167  0.00  0.00    -0.488 OA
BRANCH   2   6
ATOM      3  C   LIG    1       28.776 -12.987   3.756  0.00  0.00    +0.044 C 
ATOM      4  C   LIG    1       27.395 -13.565   3.869  0.00  0.00    -0.047 A 
ATOM      5  C   LIG    1       27.186 -14.896   3.499  0.00  0.00    +0.050 A 
ATOM      6  C   LIG    1       25.923 -15.491   3.574  0.00  0.00    +0.139 A 
ATOM      7  C   LIG    1       24.851 -14.717   4.049  0.00  0.00    +0.083 A 
ATOM      8 CL   LIG    1       23.250 -15.365   4.151  0.00  0.00    -0.080 Cl
ATOM      9  C   LIG    1       25.051 -13.391   4.435  0.00  0.00    +0.024 A 
ATOM     10  C   LIG    1       26.319 -12.814   4.350  0.00  0.00    +0.005 A 
ENDBRANCH   2   6
ENDBRANCH   1   2
BRANCH   1  11
ATOM     11  C   LIG    1       25.867 -19.203   3.354  0.00  0.00    +0.166 C 
BRANCH  11  12
ATOM     12  O   LIG    1       26.380 -20.212   4.235  0.00  0.00    -0.387 OA
ATOM     13  H   LIG    1       26.778 -19.733   4.986  0.00  0.00    +0.210 HD
ENDBRANCH  11  12
BRANCH  11  14
ATOM     14  C   LIG    1       24.337 -19.152   3.524  0.00  0.00    +0.116 C 
BRANCH  14  15
ATOM     15  N   LIG    1       23.780 -20.417   4.033  0.00  0.00    -0.309 NA
ATOM     16  H   LIG    1       23.402 -20.927   3.228  0.00  0.00    +0.122 HD
BRANCH  15  17
ATOM     17  C   LIG    1       22.729 -20.269   5.061  0.00  0.00    +0.011 C 
ATOM     18  C   LIG    1       22.206 -18.821   4.972  0.00  0.00    +0.027 C 
ATOM     19  C   LIG    1       23.279 -20.494   6.481  0.00  0.00    +0.027 C 
ATOM     20  C   LIG    1       21.550 -21.219   4.794  0.00  0.00    +0.027 C 
ENDBRANCH  15  17
ENDBRANCH  14  15
ENDBRANCH  11  14
ENDBRANCH   1  11
TORSDOF 7
ENDMDL
MODEL 2
REMARK VINA RESULT:      -5.7      2.489      6.442
REMARK  Name = *****
REMARK                            x       y       z     vdW  Elec       q    Type
REMARK                         _______ _______ _______ _____ _____    ______ ____
ROOT
ATOM      1  C   LIG    1       25.860 -17.660   3.268  0.00  0.00    +0.261 C 
ENDROOT
BRANCH   1   2
ATOM      2  O   LIG    1       26.044 -19.070   3.458  0.00  0.00    -0.488 OA
BRANCH   2   6
ATOM      3  C   LIG    1       21.622 -20.855   4.772  0.00  0.00    +0.044 C 
ATOM      4  C   LIG    1       23.085 -20.666   5.049  0.00  0.00    -0.047 A 
ATOM      5  C   LIG    1       23.856 -19.932   4.144  0.00  0.00    +0.050 A 
ATOM      6  C   LIG    1       25.226 -19.727   4.340  0.00  0.00    +0.139 A 
ATOM      7  C   LIG    1       25.820 -20.271   5.491  0.00  0.00    +0.083 A 
ATOM      8 CL   LIG    1       27.512 -20.088   5.801  0.00  0.00    -0.080 Cl
ATOM      9  C   LIG    1       25.057 -20.995   6.408  0.00  0.00    +0.024 A 
ATOM     10  C   LIG    1       23.692 -21.191   6.193  0.00  0.00    +0.005 A 
ENDBRANCH   2   6
ENDBRANCH   1   2
BRANCH   1  11
ATOM     11  C   LIG    1       26.938 -16.859   4.017  0.00  0.00    +0.166 C 
BRANCH  11  12
ATOM     12  O   LIG    1       28.222 -17.499   3.991  0.00  0.00    -0.387 OA
ATOM     13  H   LIG    1       28.559 -17.460   4.905  0.00  0.00    +0.210 HD
ENDBRANCH  11  12
BRANCH  11  14
ATOM     14  C   LIG    1       27.102 -15.435   3.455  0.00  0.00    +0.116 C 
BRANCH  14  15
ATOM     15  N   LIG    1       25.869 -14.926   2.831  0.00  0.00    -0.309 NA
ATOM     16  H   LIG    1       26.136 -14.496   1.939  0.00  0.00    +0.122 HD
BRANCH  15  17
ATOM     17  C   LIG    1       25.114 -13.950   3.643  0.00  0.00    +0.011 C 
ATOM     18  C   LIG    1       24.751 -12.772   2.717  0.00  0.00    +0.027 C 
ATOM     19  C   LIG    1       25.955 -13.402   4.809  0.00  0.00    +0.027 C 
ATOM     20  C   LIG    1       23.806 -14.558   4.175  0.00  0.00    +0.027 C 
ENDBRANCH  15  17
ENDBRANCH  14  15
ENDBRANCH  11  14
ENDBRANCH   1  11
TORSDOF 7
ENDMDL
MODEL 3
REMARK VINA RESULT:      -5.0      2.741      6.512
REMARK  Name = *****
REMARK                            x       y       z     vdW  Elec       q    Type
REMARK                         _______ _______ _______ _____ _____    ______ ____
ROOT
ATOM      1  C   LIG    1       25.611 -16.586   3.205  0.00  0.00    +0.261 C 
ENDROOT
BRANCH   1   2
ATOM      2  O   LIG    1       26.224 -17.874   3.363  0.00  0.00    -0.488 OA
BRANCH   2   6
ATOM      3  C   LIG    1       22.102 -20.350   4.523  0.00  0.00    +0.044 C 
ATOM      4  C   LIG    1       23.577 -20.128   4.686  0.00  0.00    -0.047 A 
ATOM      5  C   LIG    1       24.188 -19.090   3.977  0.00  0.00    +0.050 A 
ATOM      6  C   LIG    1       25.559 -18.836   4.079  0.00  0.00    +0.139 A 
ATOM      7  C   LIG    1       26.324 -19.649   4.934  0.00  0.00    +0.083 A 
ATOM      8 CL   LIG    1       28.030 -19.422   5.102  0.00  0.00    -0.080 Cl
ATOM      9  C   LIG    1       25.722 -20.679   5.656  0.00  0.00    +0.024 A 
ATOM     10  C   LIG    1       24.352 -20.920   5.539  0.00  0.00    +0.005 A 
ENDBRANCH   2   6
ENDBRANCH   1   2
BRANCH   1  11
ATOM     11  C   LIG    1       26.654 -15.463   3.328  0.00  0.00    +0.166 C 
BRANCH  11  12
ATOM     12  O   LIG    1       26.788 -14.697   2.123  0.00  0.00    -0.387 OA
ATOM     13  H   LIG    1       25.899 -14.671   1.722  0.00  0.00    +0.210 HD
ENDBRANCH  11  12
BRANCH  11  14
ATOM     14  C   LIG    1       26.330 -14.492   4.479  0.00  0.00    +0.116 C 
BRANCH  14  15
ATOM     15  N   LIG    1       25.882 -13.173   3.999  0.00  0.00    -0.309 NA
ATOM     16  H   LIG    1       26.321 -12.467   4.599  0.00  0.00    +0.122 HD
BRANCH  15  17
ATOM     17  C   LIG    1       24.418 -12.975   3.995  0.00  0.00    +0.011 C 
ATOM     18  C   LIG    1       24.001 -12.685   2.539  0.00  0.00    +0.027 C 
ATOM     19  C   LIG    1       23.999 -11.774   4.862  0.00  0.00    +0.027 C 
ATOM     20  C   LIG    1       23.681 -14.243   4.457  0.00  0.00    +0.027 C 
ENDBRANCH  15  17
ENDBRANCH  14  15
ENDBRANCH  11  14
ENDBRANCH   1  11
TORSDOF 7
ENDMDL
MODEL 4
REMARK VINA RESULT:      -4.8      1.604      2.369
REMARK  Name = *****
REMARK                            x       y       z     vdW  Elec       q    Type
REMARK                         _______ _______ _______ _____ _____    ______ ____
ROOT
ATOM      1  C   LIG    1       25.141 -18.074   3.714  0.00  0.00    +0.261 C 
ENDROOT
BRANCH   1   2
ATOM      2  O   LIG    1       25.973 -17.202   2.934  0.00  0.00    -0.488 OA
BRANCH   2   6
ATOM      3  C   LIG    1       24.389 -12.534   3.335  0.00  0.00    +0.044 C 
ATOM      4  C   LIG    1       25.418 -13.589   3.620  0.00  0.00    -0.047 A 
ATOM      5  C   LIG    1       25.224 -14.877   3.114  0.00  0.00    +0.050 A 
ATOM      6  C   LIG    1       26.141 -15.907   3.350  0.00  0.00    +0.139 A 
ATOM      7  C   LIG    1       27.288 -15.614   4.106  0.00  0.00    +0.083 A 
ATOM      8 CL   LIG    1       28.462 -16.832   4.468  0.00  0.00    -0.080 Cl
ATOM      9  C   LIG    1       27.499 -14.328   4.604  0.00  0.00    +0.024 A 
ATOM     10  C   LIG    1       26.571 -13.314   4.361  0.00  0.00    +0.005 A 
ENDBRANCH   2   6
ENDBRANCH   1   2
BRANCH   1  11
ATOM     11  C   LIG    1       25.469 -19.549   3.425  0.00  0.00    +0.166 C 
BRANCH  11  12
ATOM     12  O   LIG    1       26.421 -20.096   4.348  0.00  0.00    -0.387 OA
ATOM     13  H   LIG    1       27.135 -20.475   3.802  0.00  0.00    +0.210 HD
ENDBRANCH  11  12
BRANCH  11  14
ATOM     14  C   LIG    1       24.212 -20.439   3.449  0.00  0.00    +0.116 C 
BRANCH  14  15
ATOM     15  N   LIG    1       24.088 -21.210   4.698  0.00  0.00    -0.309 NA
ATOM     16  H   LIG    1       24.112 -22.203   4.444  0.00  0.00    +0.122 HD
BRANCH  15  17
ATOM     17  C   LIG    1       22.868 -20.932   5.485  0.00  0.00    +0.011 C 
ATOM     18  C   LIG    1       23.074 -21.556   6.880  0.00  0.00    +0.027 C 
ATOM     19  C   LIG    1       21.619 -21.571   4.852  0.00  0.00    +0.027 C 
ATOM     20  C   LIG    1       22.654 -19.420   5.667  0.00  0.00    +0.027 C 
ENDBRANCH  15  17
ENDBRANCH  14  15
ENDBRANCH  11  14
ENDBRANCH   1  11
TORSDOF 7
ENDMDL
MODEL 5
REMARK VINA RESULT:      -4.6      2.855      6.106
REMARK  Name = *****
REMARK                            x       y       z     vdW  Elec       q    Type
REMARK                         _______ _______ _______ _____ _____    ______ ____
ROOT
ATOM      1  C   LIG    1       25.630 -16.542   3.360  0.00  0.00    +0.261 C 
ENDROOT
BRANCH   1   2
ATOM      2  O   LIG    1       26.260 -17.790   3.036  0.00  0.00    -0.488 OA
BRANCH   2   6
ATOM      3  C   LIG    1       28.698 -20.197   6.603  0.00  0.00    +0.044 C 
ATOM      4  C   LIG    1       27.451 -19.980   5.796  0.00  0.00    -0.047 A 
ATOM      5  C   LIG    1       27.460 -19.017   4.783  0.00  0.00    +0.050 A 
ATOM      6  C   LIG    1       26.330 -18.762   4.000  0.00  0.00    +0.139 A 
ATOM      7  C   LIG    1       25.168 -19.513   4.246  0.00  0.00    +0.083 A 
ATOM      8 CL   LIG    1       23.716 -19.246   3.344  0.00  0.00    -0.080 Cl
ATOM      9  C   LIG    1       25.152 -20.485   5.246  0.00  0.00    +0.024 A 
ATOM     10  C   LIG    1       26.289 -20.724   6.019  0.00  0.00    +0.005 A 
ENDBRANCH   2   6
ENDBRANCH   1   2
BRANCH   1  11
ATOM     11  C   LIG    1       26.656 -15.396   3.370  0.00  0.00    +0.166 C 
BRANCH  11  12
ATOM     12  O   LIG    1       26.712 -14.692   2.121  0.00  0.00    -0.387 OA
ATOM     13  H   LIG    1       27.629 -14.372   2.036  0.00  0.00    +0.210 HD
ENDBRANCH  11  12
BRANCH  11  14
ATOM     14  C   LIG    1       26.372 -14.371   4.484  0.00  0.00    +0.116 C 
BRANCH  14  15
ATOM     15  N   LIG    1       25.893 -13.080   3.959  0.00  0.00    -0.309 NA
ATOM     16  H   LIG    1       26.353 -12.343   4.502  0.00  0.00    +0.122 HD
BRANCH  15  17
ATOM     17  C   LIG    1       24.429 -12.890   4.010  0.00  0.00    +0.011 C 
ATOM     18  C   LIG    1       23.964 -12.543   2.581  0.00  0.00    +0.027 C 
ATOM     19  C   LIG    1       24.033 -11.729   4.939  0.00  0.00    +0.027 C 
ATOM     20  C   LIG    1       23.713 -14.181   4.442  0.00  0.00    +0.027 C 
ENDBRANCH  15  17
ENDBRANCH  14  15
ENDBRANCH  11  14
ENDBRANCH   1  11
TORSDOF 7
ENDMDL
MODEL 6
REMARK VINA RESULT:      -4.2      2.782      6.322
REMARK  Name = *****
REMARK                            x       y       z     vdW  Elec       q    Type
REMARK                         _______ _______ _______ _____ _____    ______ ____
ROOT
ATOM      1  C   LIG    1       22.301 -17.939   4.523  0.00  0.00    +0.261 C 
ENDROOT
BRANCH   1   2
ATOM      2  O   LIG    1       23.293 -18.667   3.786  0.00  0.00    -0.488 OA
BRANCH   2   6
ATOM      3  C   LIG    1       27.713 -20.016   5.552  0.00  0.00    +0.044 C 
ATOM      4  C   LIG    1       26.241 -20.267   5.394  0.00  0.00    -0.047 A 
ATOM      5  C   LIG    1       25.479 -19.371   4.640  0.00  0.00    +0.050 A 
ATOM      6  C   LIG    1       24.102 -19.544   4.462  0.00  0.00    +0.139 A 
ATOM      7  C   LIG    1       23.491 -20.662   5.054  0.00  0.00    +0.083 A 
ATOM      8 CL   LIG    1       21.790 -20.940   4.907  0.00  0.00    -0.080 Cl
ATOM      9  C   LIG    1       24.245 -21.570   5.799  0.00  0.00    +0.024 A 
ATOM     10  C   LIG    1       25.617 -21.378   5.968  0.00  0.00    +0.005 A 
ENDBRANCH   2   6
ENDBRANCH   1   2
BRANCH   1  11
ATOM     11  C   LIG    1       22.520 -16.422   4.388  0.00  0.00    +0.166 C 
BRANCH  11  12
ATOM     12  O   LIG    1       22.140 -15.700   5.567  0.00  0.00    -0.387 OA
ATOM     13  H   LIG    1       21.251 -15.344   5.388  0.00  0.00    +0.210 HD
ENDBRANCH  11  12
BRANCH  11  14
ATOM     14  C   LIG    1       23.985 -16.073   4.064  0.00  0.00    +0.116 C 
BRANCH  14  15
ATOM     15  N   LIG    1       24.223 -14.621   4.010  0.00  0.00    -0.309 NA
ATOM     16  H   LIG    1       23.604 -14.239   3.288  0.00  0.00    +0.122 HD
BRANCH  15  17
ATOM     17  C   LIG    1       25.618 -14.227   3.722  0.00  0.00    +0.011 C 
ATOM     18  C   LIG    1       26.402 -15.518   3.415  0.00  0.00    +0.027 C 
ATOM     19  C   LIG    1       26.280 -13.538   4.929  0.00  0.00    +0.027 C 
ATOM     20  C   LIG    1       25.697 -13.317   2.485  0.00  0.00    +0.027 C 
ENDBRANCH  15  17
ENDBRANCH  14  15
ENDBRANCH  11  14
ENDBRANCH   1  11
TORSDOF 7
ENDMDL
MODEL 7
REMARK VINA RESULT:      -4.0      1.687      2.806
REMARK  Name = *****
REMARK                            x       y       z     vdW  Elec       q    Type
REMARK                         _______ _______ _______ _____ _____    ______ ____
ROOT
ATOM      1  C   LIG    1       25.562 -18.319   3.059  0.00  0.00    +0.261 C 
ENDROOT
BRANCH   1   2
ATOM      2  O   LIG    1       26.150 -17.013   3.149  0.00  0.00    -0.488 OA
BRANCH   2   6
ATOM      3  C   LIG    1       22.127 -15.236   5.412  0.00  0.00    +0.044 C 
ATOM      4  C   LIG    1       23.427 -15.008   4.697  0.00  0.00    -0.047 A 
ATOM      5  C   LIG    1       24.148 -16.112   4.235  0.00  0.00    +0.050 A 
ATOM      6  C   LIG    1       25.369 -15.967   3.568  0.00  0.00    +0.139 A 
ATOM      7  C   LIG    1       25.859 -14.668   3.354  0.00  0.00    +0.083 A 
ATOM      8 CL   LIG    1       27.372 -14.397   2.561  0.00  0.00    -0.080 Cl
ATOM      9  C   LIG    1       25.140 -13.558   3.798  0.00  0.00    +0.024 A 
ATOM     10  C   LIG    1       23.925 -13.722   4.465  0.00  0.00    +0.005 A 
ENDBRANCH   2   6
ENDBRANCH   1   2
BRANCH   1  11
ATOM     11  C   LIG    1       26.354 -19.337   3.898  0.00  0.00    +0.166 C 
BRANCH  11  12
ATOM     12  O   LIG    1       27.451 -18.740   4.602  0.00  0.00    -0.387 OA
ATOM     13  H   LIG    1       27.436 -19.126   5.498  0.00  0.00    +0.210 HD
ENDBRANCH  11  12
BRANCH  11  14
ATOM     14  C   LIG    1       25.464 -20.061   4.924  0.00  0.00    +0.116 C 
BRANCH  14  15
ATOM     15  N   LIG    1       24.177 -20.496   4.353  0.00  0.00    -0.309 NA
ATOM     16  H   LIG    1       24.050 -19.987   3.472  0.00  0.00    +0.122 HD
BRANCH  15  17
ATOM     17  C   LIG    1       23.003 -20.280   5.222  0.00  0.00    +0.011 C 
ATOM     18  C   LIG    1       21.997 -21.408   4.917  0.00  0.00    +0.027 C 
ATOM     19  C   LIG    1       22.316 -18.933   4.935  0.00  0.00    +0.027 C 
ATOM     20  C   LIG    1       23.384 -20.372   6.709  0.00  0.00    +0.027 C 
ENDBRANCH  15  17
ENDBRANCH  14  15
ENDBRANCH  11  14
ENDBRANCH   1  11
TORSDOF 7
ENDMDL
MODEL 8
REMARK VINA RESULT:      -3.8      2.519      6.885
REMARK  Name = *****
REMARK                            x       y       z     vdW  Elec       q    Type
REMARK                         _______ _______ _______ _____ _____    ______ ____
ROOT
ATOM      1  C   LIG    1       23.469 -15.789   4.610  0.00  0.00    +0.261 C 
ENDROOT
BRANCH   1   2
ATOM      2  O   LIG    1       23.222 -16.821   3.643  0.00  0.00    -0.488 OA
BRANCH   2   6
ATOM      3  C   LIG    1       21.818 -21.274   5.275  0.00  0.00    +0.044 C 
ATOM      4  C   LIG    1       22.882 -20.356   4.749  0.00  0.00    -0.047 A 
ATOM      5  C   LIG    1       22.555 -19.024   4.481  0.00  0.00    +0.050 A 
ATOM      6  C   LIG    1       23.499 -18.120   3.983  0.00  0.00    +0.139 A 
ATOM      7  C   LIG    1       24.809 -18.580   3.765  0.00  0.00    +0.083 A 
ATOM      8 CL   LIG    1       26.033 -17.538   3.127  0.00  0.00    -0.080 Cl
ATOM      9  C   LIG    1       25.149 -19.904   4.042  0.00  0.00    +0.024 A 
ATOM     10  C   LIG    1       24.193 -20.792   4.536  0.00  0.00    +0.005 A 
ENDBRANCH   2   6
ENDBRANCH   1   2
BRANCH   1  11
ATOM     11  C   LIG    1       23.822 -14.462   3.917  0.00  0.00    +0.166 C 
BRANCH  11  12
ATOM     12  O   LIG    1       23.773 -13.341   4.811  0.00  0.00    -0.387 OA
ATOM     13  H   LIG    1       24.651 -12.920   4.761  0.00  0.00    +0.210 HD
ENDBRANCH  11  12
BRANCH  11  14
ATOM     14  C   LIG    1       25.220 -14.497   3.271  0.00  0.00    +0.116 C 
BRANCH  14  15
ATOM     15  N   LIG    1       26.034 -13.319   3.615  0.00  0.00    -0.309 NA
ATOM     16  H   LIG    1       26.259 -12.839   2.738  0.00  0.00    +0.122 HD
BRANCH  15  17
ATOM     17  C   LIG    1       27.282 -13.615   4.349  0.00  0.00    +0.011 C 
ATOM     18  C   LIG    1       27.637 -15.089   4.068  0.00  0.00    +0.027 C 
ATOM     19  C   LIG    1       27.109 -13.444   5.869  0.00  0.00    +0.027 C 
ATOM     20  C   LIG    1       28.445 -12.742   3.848  0.00  0.00    +0.027 C 
ENDBRANCH  15  17
ENDBRANCH  14  15
ENDBRANCH  11  14
ENDBRANCH   1  11
TORSDOF 7
ENDMDL
MODEL 9
REMARK VINA RESULT:      -3.7      2.113      3.241
REMARK  Name = *****
REMARK                            x       y       z     vdW  Elec       q    Type
REMARK                         _______ _______ _______ _____ _____    ______ ____
ROOT
ATOM      1  C   LIG    1       22.507 -16.543   4.688  0.00  0.00    +0.261 C 
ENDROOT
BRANCH   1   2
ATOM      2  O   LIG    1       23.840 -16.593   4.159  0.00  0.00    -0.488 OA
BRANCH   2   6
ATOM      3  C   LIG    1       23.785 -11.684   3.550  0.00  0.00    +0.044 C 
ATOM      4  C   LIG    1       24.513 -12.996   3.494  0.00  0.00    -0.047 A 
ATOM      5  C   LIG    1       23.824 -14.167   3.818  0.00  0.00    +0.050 A 
ATOM      6  C   LIG    1       24.447 -15.419   3.793  0.00  0.00    +0.139 A 
ATOM      7  C   LIG    1       25.799 -15.481   3.415  0.00  0.00    +0.083 A 
ATOM      8 CL   LIG    1       26.655 -16.983   3.380  0.00  0.00    -0.080 Cl
ATOM      9  C   LIG    1       26.493 -14.319   3.076  0.00  0.00    +0.024 A 
ATOM     10  C   LIG    1       25.855 -13.078   3.111  0.00  0.00    +0.005 A 
ENDBRANCH   2   6
ENDBRANCH   1   2
BRANCH   1  11
ATOM     11  C   LIG    1       21.815 -17.911   4.561  0.00  0.00    +0.166 C 
BRANCH  11  12
ATOM     12  O   LIG    1       21.666 -18.332   3.198  0.00  0.00    -0.387 OA
ATOM     13  H   LIG    1       20.763 -18.073   2.935  0.00  0.00    +0.210 HD
ENDBRANCH  11  12
BRANCH  11  14
ATOM     14  C   LIG    1       22.567 -19.017   5.324  0.00  0.00    +0.116 C 
BRANCH  14  15
ATOM     15  N   LIG    1       23.905 -19.281   4.767  0.00  0.00    -0.309 NA
ATOM     16  H   LIG    1       23.812 -19.287   3.746  0.00  0.00    +0.122 HD
BRANCH  15  17
ATOM     17  C   LIG    1       24.529 -20.544   5.212  0.00  0.00    +0.011 C 
ATOM     18  C   LIG    1       24.342 -21.570   4.075  0.00  0.00    +0.027 C 
ATOM     19  C   LIG    1       23.855 -21.103   6.477  0.00  0.00    +0.027 C 
ATOM     20  C   LIG    1       26.038 -20.368   5.450  0.00  0.00    +0.027 C 
ENDBRANCH  15  17
ENDBRANCH  14  15
ENDBRANCH  11  14
ENDBRANCH   1  11
TORSDOF 7
ENDMDL
