MODEL 1
REMARK VINA RESULT:      -8.4      0.000      0.000
REMARK  Name = *****
REMARK                            x       y       z     vdW  Elec       q    Type
REMARK                         _______ _______ _______ _____ _____    ______ ____
ROOT
ATOM      1  C   LIG    1       29.151 -19.007   7.702  0.00  0.00    +0.183 C 
ATOM      2  C   LIG    1       28.462 -20.383   7.500  0.00  0.00    +0.008 C 
ATOM      3  C   LIG    1       29.535 -21.507   7.407  0.00  0.00    +0.015 C 
ATOM      4  C   LIG    1       27.761 -20.233   6.117  0.00  0.00    +0.002 C 
ATOM      5  C   LIG    1       26.246 -19.918   6.132  0.00  0.00    -0.003 C 
ATOM      6  C   LIG    1       25.442 -20.662   7.214  0.00  0.00    +0.002 C 
ATOM      7  C   LIG    1       26.087 -20.347   8.572  0.00  0.00    +0.005 C 
ATOM      8  C   LIG    1       25.047 -22.163   6.909  0.00  0.00    -0.007 C 
ATOM      9  C   LIG    1       23.907 -22.546   7.896  0.00  0.00    +0.016 C 
ATOM     10  C   LIG    1       24.589 -22.317   5.447  0.00  0.00    -0.060 C 
ATOM     11  C   LIG    1       24.005 -23.468   5.047  0.00  0.00    +0.046 C 
ATOM     12  C   LIG    1       24.993 -24.598   5.243  0.00  0.00    +0.156 C 
ATOM     13  O   LIG    1       25.011 -25.531   4.444  0.00  0.00    -0.293 OA
ATOM     14  C   LIG    1       25.814 -24.608   6.525  0.00  0.00    +0.080 C 
ATOM     15  C   LIG    1       25.400 -21.578   4.401  0.00  0.00    +0.032 C 
ATOM     16  C   LIG    1       26.179 -23.208   7.051  0.00  0.00    +0.019 C 
ATOM     17  C   LIG    1       25.587 -20.110   4.756  0.00  0.00    +0.008 C 
ATOM     18  C   LIG    1       28.533 -19.103   5.382  0.00  0.00    +0.008 C 
ATOM     19  C   LIG    1       27.554 -20.731   8.700  0.00  0.00    +0.011 C 
ATOM     20  C   LIG    1       29.653 -18.653   6.306  0.00  0.00    +0.045 C 
ENDROOT
BRANCH   1  21
ATOM     21  O   LIG    1       30.237 -19.117   8.633  0.00  0.00    -0.461 OA
BRANCH  21  22
ATOM     22  C   LIG    1       31.044 -18.033   8.762  0.00  0.00    +0.307 C 
ATOM     23  O   LIG    1       32.126 -17.894   8.203  0.00  0.00    -0.251 OA
BRANCH  22  25
ATOM     24  C   LIG    1       30.434 -17.412  11.116  0.00  0.00    +0.015 C 
ATOM     25  C   LIG    1       30.416 -16.996   9.656  0.00  0.00    +0.117 C 
ENDBRANCH  22  25
ENDBRANCH  21  22
ENDBRANCH   1  21
TORSDOF 3
ENDMDL
MODEL 2
REMARK VINA RESULT:      -8.0      1.564      6.910
REMARK  Name = *****
REMARK                            x       y       z     vdW  Elec       q    Type
REMARK                         _______ _______ _______ _____ _____    ______ ____
ROOT
ATOM      1  C   LIG    1       25.401 -21.864   6.168  0.00  0.00    +0.183 C 
ATOM      2  C   LIG    1       26.289 -21.083   7.174  0.00  0.00    +0.008 C 
ATOM      3  C   LIG    1       25.396 -20.352   8.218  0.00  0.00    +0.015 C 
ATOM      4  C   LIG    1       26.996 -20.023   6.278  0.00  0.00    +0.002 C 
ATOM      5  C   LIG    1       28.448 -20.332   5.841  0.00  0.00    -0.003 C 
ATOM      6  C   LIG    1       29.325 -20.985   6.926  0.00  0.00    +0.002 C 
ATOM      7  C   LIG    1       28.605 -22.257   7.403  0.00  0.00    +0.005 C 
ATOM      8  C   LIG    1       29.943 -20.026   8.022  0.00  0.00    -0.007 C 
ATOM      9  C   LIG    1       31.100 -20.804   8.711  0.00  0.00    +0.016 C 
ATOM     10  C   LIG    1       30.456 -18.726   7.377  0.00  0.00    -0.060 C 
ATOM     11  C   LIG    1       31.212 -17.873   8.103  0.00  0.00    +0.046 C 
ATOM     12  C   LIG    1       30.396 -17.398   9.285  0.00  0.00    +0.156 C 
ATOM     13  O   LIG    1       30.535 -16.248   9.694  0.00  0.00    -0.293 OA
ATOM     14  C   LIG    1       29.552 -18.429  10.024  0.00  0.00    +0.080 C 
ATOM     15  C   LIG    1       29.573 -18.102   6.315  0.00  0.00    +0.032 C 
ATOM     16  C   LIG    1       28.973 -19.532   9.121  0.00  0.00    +0.019 C 
ATOM     17  C   LIG    1       29.163 -19.107   5.249  0.00  0.00    +0.008 C 
ATOM     18  C   LIG    1       26.087 -19.862   5.030  0.00  0.00    +0.008 C 
ATOM     19  C   LIG    1       27.207 -22.041   7.964  0.00  0.00    +0.011 C 
ATOM     20  C   LIG    1       24.890 -20.777   5.229  0.00  0.00    +0.045 C 
ENDROOT
BRANCH   1  21
ATOM     21  O   LIG    1       24.320 -22.515   6.850  0.00  0.00    -0.461 OA
BRANCH  21  22
ATOM     22  C   LIG    1       24.080 -23.810   6.518  0.00  0.00    +0.307 C 
ATOM     23  O   LIG    1       23.033 -24.407   6.736  0.00  0.00    -0.251 OA
BRANCH  22  25
ATOM     24  C   LIG    1       25.903 -25.533   6.605  0.00  0.00    +0.015 C 
ATOM     25  C   LIG    1       25.263 -24.412   5.805  0.00  0.00    +0.117 C 
ENDBRANCH  22  25
ENDBRANCH  21  22
ENDBRANCH   1  21
TORSDOF 3
ENDMDL
MODEL 3
REMARK VINA RESULT:      -6.3      3.656      7.784
REMARK  Name = *****
REMARK                            x       y       z     vdW  Elec       q    Type
REMARK                         _______ _______ _______ _____ _____    ______ ____
ROOT
ATOM      1  C   LIG    1       24.784 -26.738   6.550  0.00  0.00    +0.183 C 
ATOM      2  C   LIG    1       24.633 -25.427   5.731  0.00  0.00    +0.008 C 
ATOM      3  C   LIG    1       24.873 -25.712   4.220  0.00  0.00    +0.015 C 
ATOM      4  C   LIG    1       25.790 -24.533   6.270  0.00  0.00    +0.002 C 
ATOM      5  C   LIG    1       25.414 -23.459   7.318  0.00  0.00    -0.003 C 
ATOM      6  C   LIG    1       24.078 -22.739   7.055  0.00  0.00    +0.002 C 
ATOM      7  C   LIG    1       22.985 -23.814   6.944  0.00  0.00    +0.005 C 
ATOM      8  C   LIG    1       24.088 -21.577   5.982  0.00  0.00    -0.007 C 
ATOM      9  C   LIG    1       22.797 -20.738   6.203  0.00  0.00    +0.016 C 
ATOM     10  C   LIG    1       25.349 -20.707   6.138  0.00  0.00    -0.060 C 
ATOM     11  C   LIG    1       25.441 -19.538   5.465  0.00  0.00    +0.046 C 
ATOM     12  C   LIG    1       25.381 -19.834   3.982  0.00  0.00    +0.156 C 
ATOM     13  O   LIG    1       26.040 -19.152   3.202  0.00  0.00    -0.293 OA
ATOM     14  C   LIG    1       24.369 -20.867   3.506  0.00  0.00    +0.080 C 
ATOM     15  C   LIG    1       26.651 -21.439   6.392  0.00  0.00    +0.032 C 
ATOM     16  C   LIG    1       24.128 -22.018   4.499  0.00  0.00    +0.019 C 
ATOM     17  C   LIG    1       26.534 -22.430   7.541  0.00  0.00    +0.008 C 
ATOM     18  C   LIG    1       26.831 -25.518   6.868  0.00  0.00    +0.008 C 
ATOM     19  C   LIG    1       23.204 -24.856   5.857  0.00  0.00    +0.011 C 
ATOM     20  C   LIG    1       26.295 -26.924   6.645  0.00  0.00    +0.045 C 
ENDROOT
BRANCH   1  21
ATOM     21  O   LIG    1       24.166 -27.835   5.864  0.00  0.00    -0.461 OA
BRANCH  21  22
ATOM     22  C   LIG    1       24.373 -29.073   6.381  0.00  0.00    +0.307 C 
ATOM     23  O   LIG    1       23.958 -29.457   7.468  0.00  0.00    -0.251 OA
BRANCH  22  25
ATOM     24  C   LIG    1       25.534 -31.272   6.036  0.00  0.00    +0.015 C 
ATOM     25  C   LIG    1       25.150 -29.937   5.422  0.00  0.00    +0.117 C 
ENDBRANCH  22  25
ENDBRANCH  21  22
ENDBRANCH   1  21
TORSDOF 3
ENDMDL
MODEL 4
REMARK VINA RESULT:      -5.7      9.630     11.821
REMARK  Name = *****
REMARK                            x       y       z     vdW  Elec       q    Type
REMARK                         _______ _______ _______ _____ _____    ______ ____
ROOT
ATOM      1  C   LIG    1       26.200 -30.917   9.790  0.00  0.00    +0.183 C 
ATOM      2  C   LIG    1       24.829 -30.445  10.344  0.00  0.00    +0.008 C 
ATOM      3  C   LIG    1       23.839 -30.192   9.169  0.00  0.00    +0.015 C 
ATOM      4  C   LIG    1       25.167 -29.085  11.025  0.00  0.00    +0.002 C 
ATOM      5  C   LIG    1       25.341 -29.098  12.563  0.00  0.00    -0.003 C 
ATOM      6  C   LIG    1       24.344 -29.997  13.318  0.00  0.00    +0.002 C 
ATOM      7  C   LIG    1       24.461 -31.414  12.735  0.00  0.00    +0.005 C 
ATOM      8  C   LIG    1       22.895 -29.412  13.565  0.00  0.00    -0.007 C 
ATOM      9  C   LIG    1       22.239 -30.270  14.685  0.00  0.00    +0.016 C 
ATOM     10  C   LIG    1       22.971 -27.930  13.974  0.00  0.00    -0.060 C 
ATOM     11  C   LIG    1       21.865 -27.307  14.439  0.00  0.00    +0.046 C 
ATOM     12  C   LIG    1       20.810 -27.334  13.355  0.00  0.00    +0.156 C 
ATOM     13  O   LIG    1       20.043 -26.382  13.233  0.00  0.00    -0.293 OA
ATOM     14  C   LIG    1       20.638 -28.625  12.565  0.00  0.00    +0.080 C 
ATOM     15  C   LIG    1       23.957 -27.066  13.213  0.00  0.00    +0.032 C 
ATOM     16  C   LIG    1       21.944 -29.407  12.344  0.00  0.00    +0.019 C 
ATOM     17  C   LIG    1       25.345 -27.686  13.171  0.00  0.00    +0.008 C 
ATOM     18  C   LIG    1       26.475 -28.595  10.346  0.00  0.00    +0.008 C 
ATOM     19  C   LIG    1       24.190 -31.527  11.241  0.00  0.00    +0.011 C 
ATOM     20  C   LIG    1       26.845 -29.628   9.293  0.00  0.00    +0.045 C 
ENDROOT
BRANCH   1  21
ATOM     21  O   LIG    1       26.017 -31.854   8.720  0.00  0.00    -0.461 OA
BRANCH  21  22
ATOM     22  C   LIG    1       27.039 -32.715   8.479  0.00  0.00    +0.307 C 
ATOM     23  O   LIG    1       27.588 -33.406   9.329  0.00  0.00    -0.251 OA
BRANCH  22  25
ATOM     24  C   LIG    1       26.383 -31.974   6.172  0.00  0.00    +0.015 C 
ATOM     25  C   LIG    1       27.388 -32.742   7.014  0.00  0.00    +0.117 C 
ENDBRANCH  22  25
ENDBRANCH  21  22
ENDBRANCH   1  21
TORSDOF 3
ENDMDL
MODEL 5
REMARK VINA RESULT:      -5.7      9.024     12.553
REMARK  Name = *****
REMARK                            x       y       z     vdW  Elec       q    Type
REMARK                         _______ _______ _______ _____ _____    ______ ____
ROOT
ATOM      1  C   LIG    1       20.829 -28.569  14.607  0.00  0.00    +0.183 C 
ATOM      2  C   LIG    1       22.022 -28.573  13.614  0.00  0.00    +0.008 C 
ATOM      3  C   LIG    1       21.616 -29.296  12.297  0.00  0.00    +0.015 C 
ATOM      4  C   LIG    1       23.098 -29.425  14.351  0.00  0.00    +0.002 C 
ATOM      5  C   LIG    1       24.220 -28.652  15.085  0.00  0.00    -0.003 C 
ATOM      6  C   LIG    1       24.743 -27.410  14.339  0.00  0.00    +0.002 C 
ATOM      7  C   LIG    1       23.539 -26.500  14.049  0.00  0.00    +0.005 C 
ATOM      8  C   LIG    1       25.784 -27.659  13.174  0.00  0.00    -0.007 C 
ATOM      9  C   LIG    1       26.480 -26.298  12.884  0.00  0.00    +0.016 C 
ATOM     10  C   LIG    1       26.811 -28.730  13.583  0.00  0.00    -0.060 C 
ATOM     11  C   LIG    1       27.908 -28.931  12.820  0.00  0.00    +0.046 C 
ATOM     12  C   LIG    1       27.458 -29.362  11.441  0.00  0.00    +0.156 C 
ATOM     13  O   LIG    1       28.132 -30.173  10.811  0.00  0.00    -0.293 OA
ATOM     14  C   LIG    1       26.268 -28.639  10.825  0.00  0.00    +0.080 C 
ATOM     15  C   LIG    1       26.270 -29.944  14.312  0.00  0.00    +0.032 C 
ATOM     16  C   LIG    1       25.204 -28.196  11.844  0.00  0.00    +0.019 C 
ATOM     17  C   LIG    1       25.393 -29.557  15.494  0.00  0.00    +0.008 C 
ATOM     18  C   LIG    1       22.311 -30.305  15.359  0.00  0.00    +0.008 C 
ATOM     19  C   LIG    1       22.427 -27.134  13.227  0.00  0.00    +0.011 C 
ATOM     20  C   LIG    1       20.836 -29.984  15.175  0.00  0.00    +0.045 C 
ENDROOT
BRANCH   1  21
ATOM     21  O   LIG    1       19.601 -28.290  13.920  0.00  0.00    -0.461 OA
BRANCH  21  22
ATOM     22  C   LIG    1       18.830 -27.293  14.425  0.00  0.00    +0.307 C 
ATOM     23  O   LIG    1       19.244 -26.192  14.767  0.00  0.00    -0.251 OA
BRANCH  22  25
ATOM     24  C   LIG    1       16.447 -26.532  14.228  0.00  0.00    +0.015 C 
ATOM     25  C   LIG    1       17.381 -27.704  14.474  0.00  0.00    +0.117 C 
ENDBRANCH  22  25
ENDBRANCH  21  22
ENDBRANCH   1  21
TORSDOF 3
ENDMDL
MODEL 6
REMARK VINA RESULT:      -5.5      8.762     10.664
REMARK  Name = *****
REMARK                            x       y       z     vdW  Elec       q    Type
REMARK                         _______ _______ _______ _____ _____    ______ ____
ROOT
ATOM      1  C   LIG    1       25.695 -29.213  10.905  0.00  0.00    +0.183 C 
ATOM      2  C   LIG    1       25.899 -30.370   9.891  0.00  0.00    +0.008 C 
ATOM      3  C   LIG    1       27.238 -31.107  10.185  0.00  0.00    +0.015 C 
ATOM      4  C   LIG    1       26.015 -29.632   8.523  0.00  0.00    +0.002 C 
ATOM      5  C   LIG    1       24.749 -29.601   7.635  0.00  0.00    -0.003 C 
ATOM      6  C   LIG    1       23.936 -30.910   7.623  0.00  0.00    +0.002 C 
ATOM      7  C   LIG    1       23.585 -31.252   9.080  0.00  0.00    +0.005 C 
ATOM      8  C   LIG    1       24.465 -32.074   6.693  0.00  0.00    -0.007 C 
ATOM      9  C   LIG    1       23.293 -33.080   6.507  0.00  0.00    +0.016 C 
ATOM     10  C   LIG    1       24.936 -31.515   5.339  0.00  0.00    -0.060 C 
ATOM     11  C   LIG    1       25.219 -32.365   4.326  0.00  0.00    +0.046 C 
ATOM     12  C   LIG    1       26.351 -33.269   4.763  0.00  0.00    +0.156 C 
ATOM     13  O   LIG    1       27.183 -33.638   3.938  0.00  0.00    -0.293 OA
ATOM     14  C   LIG    1       26.311 -33.819   6.182  0.00  0.00    +0.080 C 
ATOM     15  C   LIG    1       25.737 -30.229   5.378  0.00  0.00    +0.032 C 
ATOM     16  C   LIG    1       25.694 -32.858   7.213  0.00  0.00    +0.019 C 
ATOM     17  C   LIG    1       25.045 -29.149   6.196  0.00  0.00    +0.008 C 
ATOM     18  C   LIG    1       26.457 -28.184   8.871  0.00  0.00    +0.008 C 
ATOM     19  C   LIG    1       24.774 -31.421  10.014  0.00  0.00    +0.011 C 
ATOM     20  C   LIG    1       26.616 -28.117  10.381  0.00  0.00    +0.045 C 
ENDROOT
BRANCH   1  21
ATOM     21  O   LIG    1       26.074 -29.626  12.225  0.00  0.00    -0.461 OA
BRANCH  21  22
ATOM     22  C   LIG    1       25.296 -29.190  13.249  0.00  0.00    +0.307 C 
ATOM     23  O   LIG    1       25.661 -29.092  14.414  0.00  0.00    -0.251 OA
BRANCH  22  25
ATOM     24  C   LIG    1       23.488 -27.449  13.298  0.00  0.00    +0.015 C 
ATOM     25  C   LIG    1       23.927 -28.799  12.757  0.00  0.00    +0.117 C 
ENDBRANCH  22  25
ENDBRANCH  21  22
ENDBRANCH   1  21
TORSDOF 3
ENDMDL
MODEL 7
REMARK VINA RESULT:      -5.4     10.280     13.835
REMARK  Name = *****
REMARK                            x       y       z     vdW  Elec       q    Type
REMARK                         _______ _______ _______ _____ _____    ______ ____
ROOT
ATOM      1  C   LIG    1       18.740 -29.227  13.962  0.00  0.00    +0.183 C 
ATOM      2  C   LIG    1       20.246 -29.551  14.159  0.00  0.00    +0.008 C 
ATOM      3  C   LIG    1       20.456 -30.316  15.498  0.00  0.00    +0.015 C 
ATOM      4  C   LIG    1       20.903 -28.142  14.270  0.00  0.00    +0.002 C 
ATOM      5  C   LIG    1       21.591 -27.590  12.999  0.00  0.00    -0.003 C 
ATOM      6  C   LIG    1       22.377 -28.634  12.184  0.00  0.00    +0.002 C 
ATOM      7  C   LIG    1       21.410 -29.779  11.839  0.00  0.00    +0.005 C 
ATOM      8  C   LIG    1       23.821 -29.014  12.706  0.00  0.00    -0.007 C 
ATOM      9  C   LIG    1       24.564 -29.711  11.531  0.00  0.00    +0.016 C 
ATOM     10  C   LIG    1       24.577 -27.756  13.171  0.00  0.00    -0.060 C 
ATOM     11  C   LIG    1       25.898 -27.833  13.446  0.00  0.00    +0.046 C 
ATOM     12  C   LIG    1       26.093 -28.817  14.579  0.00  0.00    +0.156 C 
ATOM     13  O   LIG    1       26.979 -28.620  15.406  0.00  0.00    -0.293 OA
ATOM     14  C   LIG    1       25.282 -30.106  14.546  0.00  0.00    +0.080 C 
ATOM     15  C   LIG    1       23.782 -26.746  13.974  0.00  0.00    +0.032 C 
ATOM     16  C   LIG    1       23.878 -29.951  13.936  0.00  0.00    +0.019 C 
ATOM     17  C   LIG    1       22.478 -26.368  13.288  0.00  0.00    +0.008 C 
ATOM     18  C   LIG    1       19.763 -27.187  14.716  0.00  0.00    +0.008 C 
ATOM     19  C   LIG    1       20.768 -30.470  13.033  0.00  0.00    +0.011 C 
ATOM     20  C   LIG    1       18.511 -28.034  14.883  0.00  0.00    +0.045 C 
ENDROOT
BRANCH   1  21
ATOM     21  O   LIG    1       17.929 -30.346  14.348  0.00  0.00    -0.461 OA
BRANCH  21  22
ATOM     22  C   LIG    1       16.813 -30.574  13.610  0.00  0.00    +0.307 C 
ATOM     23  O   LIG    1       15.823 -29.853  13.593  0.00  0.00    -0.251 OA
BRANCH  22  25
ATOM     24  C   LIG    1       17.446 -31.508  11.367  0.00  0.00    +0.015 C 
ATOM     25  C   LIG    1       16.965 -31.819  12.774  0.00  0.00    +0.117 C 
ENDBRANCH  22  25
ENDBRANCH  21  22
ENDBRANCH   1  21
TORSDOF 3
ENDMDL
