MODEL 1
REMARK VINA RESULT:       6.9      0.000      0.000
REMARK  Name = *****
REMARK                            x       y       z     vdW  Elec       q    Type
REMARK                         _______ _______ _______ _____ _____    ______ ____
ROOT
ATOM      1  C   LIG    1       22.691 -16.879   3.821  0.00  0.00    +0.258 C 
ATOM      2  C   LIG    1       22.393 -15.372   4.238  0.00  0.00    +0.274 C 
ATOM      3  N   LIG    1       23.379 -14.956   3.241  0.00  0.00    -0.230 N 
ATOM      4  C   LIG    1       24.131 -13.820   3.466  0.00  0.00    +0.125 C 
ATOM      5  C   LIG    1       24.031 -13.143   4.636  0.00  0.00    -0.005 C 
ATOM      6  C   LIG    1       23.068 -13.592   5.717  0.00  0.00    +0.196 C 
ATOM      7  O   LIG    1       22.712 -14.958   5.579  0.00  0.00    -0.349 OA
ATOM      8  C   LIG    1       23.908 -16.200   3.079  0.00  0.00    +0.277 C 
ATOM      9  O   LIG    1       24.971 -16.606   2.625  0.00  0.00    -0.270 OA
ENDROOT
BRANCH   1  10
ATOM     10  N   LIG    1       23.109 -17.780   4.942  0.00  0.00    -0.276 N 
ATOM     11  H   LIG    1       22.894 -17.486   5.888  0.00  0.00    +0.152 HD
ATOM     12  C   LIG    1       23.625 -19.042   4.715  0.00  0.00    +0.234 C 
ATOM     13  O   LIG    1       23.794 -19.487   3.581  0.00  0.00    -0.275 OA
BRANCH  12  14
ATOM     14  C   LIG    1       23.940 -19.851   5.977  0.00  0.00    +0.213 C 
BRANCH  14  15
ATOM     15  C   LIG    1       25.434 -20.184   6.114  0.00  0.00    -0.025 A 
ATOM     16  C   LIG    1       25.867 -21.202   6.987  0.00  0.00    +0.008 A 
ATOM     17  C   LIG    1       27.218 -21.567   7.062  0.00  0.00    +0.045 A 
ATOM     18  C   LIG    1       28.156 -20.909   6.279  0.00  0.00    +0.117 A 
ATOM     19  C   LIG    1       27.766 -19.875   5.437  0.00  0.00    +0.045 A 
ATOM     20  C   LIG    1       26.413 -19.514   5.356  0.00  0.00    +0.008 A 
BRANCH  18  21
ATOM     21  O   LIG    1       29.456 -21.313   6.365  0.00  0.00    -0.507 OA
ATOM     22  H   LIG    1       30.030 -20.574   6.103  0.00  0.00    +0.292 HD
ENDBRANCH  18  21
ENDBRANCH  14  15
BRANCH  14  23
ATOM     23  C   LIG    1       23.036 -21.075   6.051  0.00  0.00    +0.321 C 
ATOM     24  O   LIG    1       22.531 -21.572   7.047  0.00  0.00    -0.250 OA
BRANCH  23  25
ATOM     25  O   LIG    1       22.705 -21.571   4.836  0.00  0.00    -0.480 OA
ATOM     26  H   LIG    1       23.428 -21.292   4.236  0.00  0.00    +0.295 HD
ENDBRANCH  23  25
ENDBRANCH  14  23
ENDBRANCH  12  14
ENDBRANCH   1  10
BRANCH   1  28
ATOM     27  C   LIG    1       20.655 -18.193   3.531  0.00  0.00    +0.197 C 
ATOM     28  O   LIG    1       21.735 -17.500   2.916  0.00  0.00    -0.348 OA
ENDBRANCH   1  28
BRANCH   4  29
ATOM     29  C   LIG    1       25.020 -13.354   2.348  0.00  0.00    +0.351 C 
ATOM     30  O   LIG    1       25.981 -13.940   1.876  0.00  0.00    -0.244 OA
BRANCH  29  31
ATOM     31  O   LIG    1       24.737 -12.107   1.936  0.00  0.00    -0.476 OA
ATOM     32  H   LIG    1       25.491 -11.580   2.269  0.00  0.00    +0.295 HD
ENDBRANCH  29  31
ENDBRANCH   4  29
BRANCH   5  33
ATOM     33  C   LIG    1       24.802 -11.893   4.999  0.00  0.00    +0.112 C 
BRANCH  33  34
ATOM     34  S   LIG    1       26.258 -12.218   6.052  0.00  0.00    -0.080 S 
BRANCH  34  35
ATOM     35  C   LIG    1       27.162 -13.362   5.126  0.00  0.00    +0.209 A 
ATOM     36  N   LIG    1       28.300 -13.096   4.419  0.00  0.00    -0.223 N 
ATOM     37  C   LIG    1       29.064 -11.889   4.288  0.00  0.00    +0.177 C 
ATOM     38  N   LIG    1       28.684 -14.206   3.756  0.00  0.00    -0.043 NA
ATOM     39  N   LIG    1       27.792 -15.132   4.084  0.00  0.00    -0.022 NA
ATOM     40  N   LIG    1       26.850 -14.626   4.952  0.00  0.00    -0.102 NA
ENDBRANCH  34  35
ENDBRANCH  33  34
ENDBRANCH   5  33
TORSDOF 12
ENDMDL
