MODEL 1
REMARK VINA RESULT:      -8.6      0.000      0.000
REMARK  Name = *****
REMARK                            x       y       z     vdW  Elec       q    Type
REMARK                         _______ _______ _______ _____ _____    ______ ____
ROOT
ATOM      1  C   LIG    1       24.965 -24.354   7.241  0.00  0.00    -0.000 C 
ATOM      2  C   LIG    1       24.787 -23.013   7.178  0.00  0.00    -0.066 C 
ATOM      3  C   LIG    1       24.091 -22.249   6.060  0.00  0.00    +0.021 C 
ATOM      4  C   LIG    1       24.460 -22.698   4.646  0.00  0.00    +0.009 C 
ATOM      5  C   LIG    1       23.823 -21.641   3.773  0.00  0.00    +0.005 C 
ATOM      6  C   LIG    1       24.126 -20.295   4.459  0.00  0.00    -0.002 C 
ATOM      7  C   LIG    1       24.353 -20.694   5.993  0.00  0.00    -0.022 C 
ATOM      8  C   LIG    1       23.291 -19.943   6.829  0.00  0.00    +0.012 C 
ATOM      9  C   LIG    1       25.755 -20.380   6.550  0.00  0.00    +0.008 C 
ATOM     10  C   LIG    1       26.075 -20.956   7.930  0.00  0.00    +0.005 C 
ATOM     11  C   LIG    1       25.268 -22.178   8.339  0.00  0.00    +0.031 C 
ENDROOT
BRANCH   1  15
ATOM     12  C   LIG    1       27.319 -26.681   6.373  0.00  0.00    +0.012 C 
ATOM     13  C   LIG    1       26.103 -27.138   6.730  0.00  0.00    -0.051 C 
ATOM     14  C   LIG    1       24.873 -26.597   6.172  0.00  0.00    -0.042 C 
ATOM     15  C   LIG    1       24.410 -25.338   6.349  0.00  0.00    +0.004 C 
ATOM     16  C   LIG    1       24.093 -27.621   5.389  0.00  0.00    +0.066 C 
ATOM     17  C   LIG    1       23.828 -28.867   6.252  0.00  0.00    +0.119 C 
ATOM     18  C   LIG    1       25.111 -29.417   6.889  0.00  0.00    +0.036 C 
ATOM     19  C   LIG    1       25.895 -28.330   7.625  0.00  0.00    +0.037 C 
BRANCH  17  20
ATOM     20  O   LIG    1       23.216 -29.888   5.465  0.00  0.00    -0.392 OA
ATOM     21  H   LIG    1       23.795 -30.670   5.493  0.00  0.00    +0.210 HD
ENDBRANCH  17  20
ENDBRANCH   1  15
BRANCH   6  22
ATOM     22  C   LIG    1       25.204 -19.476   3.668  0.00  0.00    -0.010 C 
ATOM     23  C   LIG    1       26.614 -19.511   4.276  0.00  0.00    +0.008 C 
BRANCH  22  24
ATOM     24  C   LIG    1       24.830 -17.964   3.487  0.00  0.00    +0.004 C 
BRANCH  24  25
ATOM     25  C   LIG    1       26.025 -16.996   3.335  0.00  0.00    +0.003 C 
BRANCH  25  26
ATOM     26  C   LIG    1       25.593 -15.533   3.514  0.00  0.00    +0.034 C 
BRANCH  26  27
ATOM     27  C   LIG    1       26.716 -14.498   3.779  0.00  0.00    +0.060 C 
ATOM     28  C   LIG    1       26.486 -13.638   5.024  0.00  0.00    +0.041 C 
ATOM     29  C   LIG    1       26.984 -13.600   2.569  0.00  0.00    +0.041 C 
BRANCH  27  30
ATOM     30  O   LIG    1       27.916 -15.243   4.040  0.00  0.00    -0.389 OA
ATOM     31  H   LIG    1       27.925 -15.479   4.984  0.00  0.00    +0.210 HD
ENDBRANCH  27  30
ENDBRANCH  26  27
ENDBRANCH  25  26
ENDBRANCH  24  25
ENDBRANCH  22  24
ENDBRANCH   6  22
TORSDOF 8
ENDMDL
MODEL 2
REMARK VINA RESULT:      -8.5      3.134      9.627
REMARK  Name = *****
REMARK                            x       y       z     vdW  Elec       q    Type
REMARK                         _______ _______ _______ _____ _____    ______ ____
ROOT
ATOM      1  C   LIG    1       26.204 -20.072   7.162  0.00  0.00    -0.000 C 
ATOM      2  C   LIG    1       25.231 -20.945   6.809  0.00  0.00    -0.066 C 
ATOM      3  C   LIG    1       25.153 -22.415   7.202  0.00  0.00    +0.021 C 
ATOM      4  C   LIG    1       26.472 -23.180   7.096  0.00  0.00    +0.009 C 
ATOM      5  C   LIG    1       26.053 -24.616   7.311  0.00  0.00    +0.005 C 
ATOM      6  C   LIG    1       24.767 -24.804   6.481  0.00  0.00    -0.002 C 
ATOM      7  C   LIG    1       24.173 -23.322   6.362  0.00  0.00    -0.022 C 
ATOM      8  C   LIG    1       22.772 -23.332   7.014  0.00  0.00    +0.012 C 
ATOM      9  C   LIG    1       24.063 -22.776   4.926  0.00  0.00    +0.008 C 
ATOM     10  C   LIG    1       23.721 -21.290   4.795  0.00  0.00    +0.005 C 
ATOM     11  C   LIG    1       24.073 -20.425   5.994  0.00  0.00    +0.031 C 
ENDROOT
BRANCH   1  15
ATOM     12  C   LIG    1       29.183 -20.448   5.520  0.00  0.00    +0.012 C 
ATOM     13  C   LIG    1       29.173 -19.648   6.603  0.00  0.00    -0.051 C 
ATOM     14  C   LIG    1       28.588 -20.059   7.870  0.00  0.00    -0.042 C 
ATOM     15  C   LIG    1       27.276 -20.310   8.092  0.00  0.00    +0.004 C 
ATOM     16  C   LIG    1       29.603 -20.130   8.981  0.00  0.00    +0.066 C 
ATOM     17  C   LIG    1       30.353 -18.792   9.107  0.00  0.00    +0.119 C 
ATOM     18  C   LIG    1       30.932 -18.322   7.767  0.00  0.00    +0.036 C 
ATOM     19  C   LIG    1       29.878 -18.319   6.658  0.00  0.00    +0.037 C 
BRANCH  17  20
ATOM     20  O   LIG    1       31.408 -18.910  10.061  0.00  0.00    -0.392 OA
ATOM     21  H   LIG    1       32.245 -18.715   9.603  0.00  0.00    +0.210 HD
ENDBRANCH  17  20
ENDBRANCH   1  15
BRANCH   6  22
ATOM     22  C   LIG    1       25.029 -25.677   5.205  0.00  0.00    -0.010 C 
ATOM     23  C   LIG    1       23.828 -26.512   4.738  0.00  0.00    +0.008 C 
BRANCH  22  24
ATOM     24  C   LIG    1       26.233 -26.669   5.363  0.00  0.00    +0.004 C 
BRANCH  24  25
ATOM     25  C   LIG    1       25.884 -28.167   5.221  0.00  0.00    +0.003 C 
BRANCH  25  26
ATOM     26  C   LIG    1       25.215 -28.715   6.491  0.00  0.00    +0.034 C 
BRANCH  26  27
ATOM     27  C   LIG    1       24.498 -30.083   6.370  0.00  0.00    +0.060 C 
ATOM     28  C   LIG    1       24.139 -30.717   7.716  0.00  0.00    +0.041 C 
ATOM     29  C   LIG    1       25.282 -31.084   5.517  0.00  0.00    +0.041 C 
BRANCH  27  30
ATOM     30  O   LIG    1       23.245 -29.841   5.710  0.00  0.00    -0.389 OA
ATOM     31  H   LIG    1       22.879 -30.699   5.435  0.00  0.00    +0.210 HD
ENDBRANCH  27  30
ENDBRANCH  26  27
ENDBRANCH  25  26
ENDBRANCH  24  25
ENDBRANCH  22  24
ENDBRANCH   6  22
TORSDOF 8
ENDMDL
MODEL 3
REMARK VINA RESULT:      -8.1      5.442     11.303
REMARK  Name = *****
REMARK                            x       y       z     vdW  Elec       q    Type
REMARK                         _______ _______ _______ _____ _____    ______ ____
ROOT
ATOM      1  C   LIG    1       25.143 -29.206   5.290  0.00  0.00    -0.000 C 
ATOM      2  C   LIG    1       25.066 -30.432   5.861  0.00  0.00    -0.066 C 
ATOM      3  C   LIG    1       24.154 -30.833   7.014  0.00  0.00    +0.021 C 
ATOM      4  C   LIG    1       24.083 -29.822   8.159  0.00  0.00    +0.009 C 
ATOM      5  C   LIG    1       23.319 -30.569   9.228  0.00  0.00    +0.005 C 
ATOM      6  C   LIG    1       23.909 -31.993   9.244  0.00  0.00    -0.002 C 
ATOM      7  C   LIG    1       24.516 -32.168   7.772  0.00  0.00    -0.022 C 
ATOM      8  C   LIG    1       23.790 -33.363   7.112  0.00  0.00    +0.012 C 
ATOM      9  C   LIG    1       26.037 -32.402   7.715  0.00  0.00    +0.008 C 
ATOM     10  C   LIG    1       26.676 -32.341   6.326  0.00  0.00    +0.005 C 
ATOM     11  C   LIG    1       25.914 -31.538   5.285  0.00  0.00    +0.031 C 
ENDROOT
BRANCH   1  15
ATOM     12  C   LIG    1       26.281 -27.398   7.963  0.00  0.00    +0.012 C 
ATOM     13  C   LIG    1       25.911 -26.710   6.866  0.00  0.00    -0.051 C 
ATOM     14  C   LIG    1       24.643 -26.944   6.191  0.00  0.00    -0.042 C 
ATOM     15  C   LIG    1       24.285 -28.081   5.551  0.00  0.00    +0.004 C 
ATOM     16  C   LIG    1       23.742 -25.736   6.216  0.00  0.00    +0.066 C 
ATOM     17  C   LIG    1       24.475 -24.509   5.645  0.00  0.00    +0.119 C 
ATOM     18  C   LIG    1       25.837 -24.282   6.313  0.00  0.00    +0.036 C 
ATOM     19  C   LIG    1       26.693 -25.549   6.312  0.00  0.00    +0.037 C 
BRANCH  17  20
ATOM     20  O   LIG    1       23.671 -23.341   5.803  0.00  0.00    -0.392 OA
ATOM     21  H   LIG    1       24.100 -22.774   6.468  0.00  0.00    +0.210 HD
ENDBRANCH  17  20
ENDBRANCH   1  15
BRANCH   6  22
ATOM     22  C   LIG    1       24.792 -32.236  10.517  0.00  0.00    -0.010 C 
ATOM     23  C   LIG    1       25.011 -33.714  10.877  0.00  0.00    +0.008 C 
BRANCH  22  24
ATOM     24  C   LIG    1       24.236 -31.537  11.804  0.00  0.00    +0.004 C 
BRANCH  24  25
ATOM     25  C   LIG    1       24.916 -30.201  12.183  0.00  0.00    +0.003 C 
BRANCH  25  26
ATOM     26  C   LIG    1       26.423 -30.382  12.422  0.00  0.00    +0.034 C 
BRANCH  26  27
ATOM     27  C   LIG    1       27.378 -29.548  11.533  0.00  0.00    +0.060 C 
ATOM     28  C   LIG    1       27.119 -28.040  11.587  0.00  0.00    +0.041 C 
ATOM     29  C   LIG    1       27.389 -30.021  10.077  0.00  0.00    +0.041 C 
BRANCH  27  30
ATOM     30  O   LIG    1       28.703 -29.731  12.057  0.00  0.00    -0.389 OA
ATOM     31  H   LIG    1       29.217 -30.238  11.404  0.00  0.00    +0.210 HD
ENDBRANCH  27  30
ENDBRANCH  26  27
ENDBRANCH  25  26
ENDBRANCH  24  25
ENDBRANCH  22  24
ENDBRANCH   6  22
TORSDOF 8
ENDMDL
MODEL 4
REMARK VINA RESULT:      -7.9      6.204     10.414
REMARK  Name = *****
REMARK                            x       y       z     vdW  Elec       q    Type
REMARK                         _______ _______ _______ _____ _____    ______ ____
ROOT
ATOM      1  C   LIG    1       24.801 -28.974  12.770  0.00  0.00    -0.000 C 
ATOM      2  C   LIG    1       24.930 -30.029  11.931  0.00  0.00    -0.066 C 
ATOM      3  C   LIG    1       25.743 -30.063  10.644  0.00  0.00    +0.021 C 
ATOM      4  C   LIG    1       25.593 -28.828   9.756  0.00  0.00    +0.009 C 
ATOM      5  C   LIG    1       26.302 -29.233   8.483  0.00  0.00    +0.005 C 
ATOM      6  C   LIG    1       25.851 -30.679   8.197  0.00  0.00    -0.002 C 
ATOM      7  C   LIG    1       25.429 -31.237   9.637  0.00  0.00    -0.022 C 
ATOM      8  C   LIG    1       26.333 -32.453   9.945  0.00  0.00    +0.012 C 
ATOM      9  C   LIG    1       23.952 -31.653   9.771  0.00  0.00    +0.008 C 
ATOM     10  C   LIG    1       23.467 -31.968  11.187  0.00  0.00    +0.005 C 
ATOM     11  C   LIG    1       24.259 -31.325  12.314  0.00  0.00    +0.031 C 
ENDROOT
BRANCH   1  15
ATOM     12  C   LIG    1       22.685 -26.328  13.253  0.00  0.00    +0.012 C 
ATOM     13  C   LIG    1       23.854 -26.312  13.921  0.00  0.00    -0.051 C 
ATOM     14  C   LIG    1       25.130 -26.560  13.265  0.00  0.00    -0.042 C 
ATOM     15  C   LIG    1       25.514 -27.726  12.697  0.00  0.00    +0.004 C 
ATOM     16  C   LIG    1       26.052 -25.369  13.325  0.00  0.00    +0.066 C 
ATOM     17  C   LIG    1       26.240 -24.909  14.781  0.00  0.00    +0.119 C 
ATOM     18  C   LIG    1       24.902 -24.694  15.500  0.00  0.00    +0.036 C 
ATOM     19  C   LIG    1       23.979 -25.906  15.366  0.00  0.00    +0.037 C 
BRANCH  17  20
ATOM     20  O   LIG    1       26.996 -23.700  14.819  0.00  0.00    -0.392 OA
ATOM     21  H   LIG    1       27.170 -23.431  13.899  0.00  0.00    +0.210 HD
ENDBRANCH  17  20
ENDBRANCH   1  15
BRANCH   6  22
ATOM     22  C   LIG    1       24.861 -30.743   6.983  0.00  0.00    -0.010 C 
ATOM     23  C   LIG    1       25.524 -31.017   5.624  0.00  0.00    +0.008 C 
BRANCH  22  24
ATOM     24  C   LIG    1       24.001 -29.443   6.810  0.00  0.00    +0.004 C 
BRANCH  24  25
ATOM     25  C   LIG    1       24.340 -28.580   5.573  0.00  0.00    +0.003 C 
BRANCH  25  26
ATOM     26  C   LIG    1       24.196 -27.081   5.874  0.00  0.00    +0.034 C 
BRANCH  26  27
ATOM     27  C   LIG    1       25.407 -26.178   5.532  0.00  0.00    +0.060 C 
ATOM     28  C   LIG    1       26.610 -26.939   4.969  0.00  0.00    +0.041 C 
ATOM     29  C   LIG    1       25.848 -25.313   6.716  0.00  0.00    +0.041 C 
BRANCH  27  30
ATOM     30  O   LIG    1       24.985 -25.292   4.483  0.00  0.00    -0.389 OA
ATOM     31  H   LIG    1       25.144 -24.379   4.777  0.00  0.00    +0.210 HD
ENDBRANCH  27  30
ENDBRANCH  26  27
ENDBRANCH  25  26
ENDBRANCH  24  25
ENDBRANCH  22  24
ENDBRANCH   6  22
TORSDOF 8
ENDMDL
MODEL 5
REMARK VINA RESULT:      -7.8      6.363     10.950
REMARK  Name = *****
REMARK                            x       y       z     vdW  Elec       q    Type
REMARK                         _______ _______ _______ _____ _____    ______ ____
ROOT
ATOM      1  C   LIG    1       22.860 -29.793  12.256  0.00  0.00    -0.000 C 
ATOM      2  C   LIG    1       23.283 -30.859  11.537  0.00  0.00    -0.066 C 
ATOM      3  C   LIG    1       24.537 -30.925  10.676  0.00  0.00    +0.021 C 
ATOM      4  C   LIG    1       24.782 -29.696   9.801  0.00  0.00    +0.009 C 
ATOM      5  C   LIG    1       25.925 -30.130   8.912  0.00  0.00    +0.005 C 
ATOM      6  C   LIG    1       25.587 -31.567   8.470  0.00  0.00    -0.002 C 
ATOM      7  C   LIG    1       24.617 -32.101   9.626  0.00  0.00    -0.022 C 
ATOM      8  C   LIG    1       25.293 -33.335  10.266  0.00  0.00    +0.012 C 
ATOM      9  C   LIG    1       23.197 -32.481   9.165  0.00  0.00    +0.008 C 
ATOM     10  C   LIG    1       22.183 -32.770  10.274  0.00  0.00    +0.005 C 
ATOM     11  C   LIG    1       22.482 -32.136  11.622  0.00  0.00    +0.031 C 
ENDROOT
BRANCH   1  15
ATOM     12  C   LIG    1       20.694 -27.183  12.710  0.00  0.00    +0.012 C 
ATOM     13  C   LIG    1       21.729 -27.280  13.566  0.00  0.00    -0.051 C 
ATOM     14  C   LIG    1       23.099 -27.471  13.113  0.00  0.00    -0.042 C 
ATOM     15  C   LIG    1       23.576 -28.564  12.473  0.00  0.00    +0.004 C 
ATOM     16  C   LIG    1       23.998 -26.320  13.487  0.00  0.00    +0.066 C 
ATOM     17  C   LIG    1       23.929 -26.057  15.001  0.00  0.00    +0.119 C 
ATOM     18  C   LIG    1       22.486 -25.904  15.500  0.00  0.00    +0.036 C 
ATOM     19  C   LIG    1       21.601 -27.067  15.051  0.00  0.00    +0.037 C 
BRANCH  17  20
ATOM     20  O   LIG    1       24.668 -24.880  15.327  0.00  0.00    -0.392 OA
ATOM     21  H   LIG    1       25.588 -25.020  15.040  0.00  0.00    +0.210 HD
ENDBRANCH  17  20
ENDBRANCH   1  15
BRANCH   6  22
ATOM     22  C   LIG    1       25.156 -31.620   6.963  0.00  0.00    -0.010 C 
ATOM     23  C   LIG    1       26.277 -32.000   5.985  0.00  0.00    +0.008 C 
BRANCH  22  24
ATOM     24  C   LIG    1       24.542 -30.274   6.443  0.00  0.00    +0.004 C 
BRANCH  24  25
ATOM     25  C   LIG    1       25.332 -29.575   5.313  0.00  0.00    +0.003 C 
BRANCH  25  26
ATOM     26  C   LIG    1       24.842 -28.137   5.088  0.00  0.00    +0.034 C 
BRANCH  26  27
ATOM     27  C   LIG    1       25.789 -26.996   5.535  0.00  0.00    +0.060 C 
ATOM     28  C   LIG    1       25.983 -26.908   7.051  0.00  0.00    +0.041 C 
ATOM     29  C   LIG    1       25.366 -25.631   4.985  0.00  0.00    +0.041 C 
BRANCH  27  30
ATOM     30  O   LIG    1       27.087 -27.296   4.997  0.00  0.00    -0.389 OA
ATOM     31  H   LIG    1       27.755 -26.895   5.580  0.00  0.00    +0.210 HD
ENDBRANCH  27  30
ENDBRANCH  26  27
ENDBRANCH  25  26
ENDBRANCH  24  25
ENDBRANCH  22  24
ENDBRANCH   6  22
TORSDOF 8
ENDMDL
MODEL 6
REMARK VINA RESULT:      -7.7      2.271      3.438
REMARK  Name = *****
REMARK                            x       y       z     vdW  Elec       q    Type
REMARK                         _______ _______ _______ _____ _____    ______ ____
ROOT
ATOM      1  C   LIG    1       23.241 -24.035   6.880  0.00  0.00    -0.000 C 
ATOM      2  C   LIG    1       23.149 -22.693   6.726  0.00  0.00    -0.066 C 
ATOM      3  C   LIG    1       23.369 -21.917   5.434  0.00  0.00    +0.021 C 
ATOM      4  C   LIG    1       24.583 -22.359   4.617  0.00  0.00    +0.009 C 
ATOM      5  C   LIG    1       24.684 -21.293   3.549  0.00  0.00    +0.005 C 
ATOM      6  C   LIG    1       24.454 -19.953   4.276  0.00  0.00    -0.002 C 
ATOM      7  C   LIG    1       23.608 -20.363   5.571  0.00  0.00    -0.022 C 
ATOM      8  C   LIG    1       22.257 -19.613   5.498  0.00  0.00    +0.012 C 
ATOM      9  C   LIG    1       24.287 -20.060   6.920  0.00  0.00    +0.008 C 
ATOM     10  C   LIG    1       23.612 -20.647   8.161  0.00  0.00    +0.005 C 
ATOM     11  C   LIG    1       22.738 -21.868   7.921  0.00  0.00    +0.031 C 
ENDROOT
BRANCH   1  15
ATOM     12  C   LIG    1       26.518 -24.992   6.647  0.00  0.00    +0.012 C 
ATOM     13  C   LIG    1       25.589 -25.967   6.627  0.00  0.00    -0.051 C 
ATOM     14  C   LIG    1       24.423 -25.913   5.758  0.00  0.00    -0.042 C 
ATOM     15  C   LIG    1       23.418 -25.010   5.836  0.00  0.00    +0.004 C 
ATOM     16  C   LIG    1       24.398 -27.036   4.753  0.00  0.00    +0.066 C 
ATOM     17  C   LIG    1       24.517 -28.395   5.465  0.00  0.00    +0.119 C 
ATOM     18  C   LIG    1       25.714 -28.447   6.424  0.00  0.00    +0.036 C 
ATOM     19  C   LIG    1       25.726 -27.259   7.387  0.00  0.00    +0.037 C 
BRANCH  17  20
ATOM     20  O   LIG    1       24.636 -29.442   4.504  0.00  0.00    -0.392 OA
ATOM     21  H   LIG    1       25.585 -29.629   4.386  0.00  0.00    +0.210 HD
ENDBRANCH  17  20
ENDBRANCH   1  15
BRANCH   6  22
ATOM     22  C   LIG    1       25.785 -19.133   4.406  0.00  0.00    -0.010 C 
ATOM     23  C   LIG    1       26.074 -18.183   3.234  0.00  0.00    +0.008 C 
BRANCH  22  24
ATOM     24  C   LIG    1       27.057 -20.033   4.579  0.00  0.00    +0.004 C 
BRANCH  24  25
ATOM     25  C   LIG    1       27.653 -20.077   6.005  0.00  0.00    +0.003 C 
BRANCH  25  26
ATOM     26  C   LIG    1       29.051 -19.442   6.053  0.00  0.00    +0.034 C 
BRANCH  26  27
ATOM     27  C   LIG    1       29.923 -19.761   7.292  0.00  0.00    +0.060 C 
ATOM     28  C   LIG    1       29.609 -21.112   7.940  0.00  0.00    +0.041 C 
ATOM     29  C   LIG    1       29.872 -18.654   8.348  0.00  0.00    +0.041 C 
BRANCH  27  30
ATOM     30  O   LIG    1       31.281 -19.859   6.833  0.00  0.00    -0.389 OA
ATOM     31  H   LIG    1       31.423 -19.166   6.166  0.00  0.00    +0.210 HD
ENDBRANCH  27  30
ENDBRANCH  26  27
ENDBRANCH  25  26
ENDBRANCH  24  25
ENDBRANCH  22  24
ENDBRANCH   6  22
TORSDOF 8
ENDMDL
MODEL 7
REMARK VINA RESULT:      -7.6      6.294     10.670
REMARK  Name = *****
REMARK                            x       y       z     vdW  Elec       q    Type
REMARK                         _______ _______ _______ _____ _____    ______ ____
ROOT
ATOM      1  C   LIG    1       22.634 -29.816  12.185  0.00  0.00    -0.000 C 
ATOM      2  C   LIG    1       23.082 -30.869  11.461  0.00  0.00    -0.066 C 
ATOM      3  C   LIG    1       24.362 -30.916  10.637  0.00  0.00    +0.021 C 
ATOM      4  C   LIG    1       24.627 -29.672   9.789  0.00  0.00    +0.009 C 
ATOM      5  C   LIG    1       25.798 -30.087   8.927  0.00  0.00    +0.005 C 
ATOM      6  C   LIG    1       25.479 -31.518   8.453  0.00  0.00    -0.002 C 
ATOM      7  C   LIG    1       24.477 -32.074   9.571  0.00  0.00    -0.022 C 
ATOM      8  C   LIG    1       25.140 -33.316  10.211  0.00  0.00    +0.012 C 
ATOM      9  C   LIG    1       23.073 -32.452   9.062  0.00  0.00    +0.008 C 
ATOM     10  C   LIG    1       22.029 -32.764  10.136  0.00  0.00    +0.005 C 
ATOM     11  C   LIG    1       22.285 -32.150  11.502  0.00  0.00    +0.031 C 
ENDROOT
BRANCH   1  15
ATOM     12  C   LIG    1       24.515 -30.060  15.033  0.00  0.00    +0.012 C 
ATOM     13  C   LIG    1       25.103 -29.515  13.951  0.00  0.00    -0.051 C 
ATOM     14  C   LIG    1       24.472 -28.462  13.169  0.00  0.00    -0.042 C 
ATOM     15  C   LIG    1       23.338 -28.587  12.442  0.00  0.00    +0.004 C 
ATOM     16  C   LIG    1       25.256 -27.175  13.193  0.00  0.00    +0.066 C 
ATOM     17  C   LIG    1       26.708 -27.423  12.747  0.00  0.00    +0.119 C 
ATOM     18  C   LIG    1       27.368 -28.566  13.529  0.00  0.00    +0.036 C 
ATOM     19  C   LIG    1       26.511 -29.833  13.523  0.00  0.00    +0.037 C 
BRANCH  17  20
ATOM     20  O   LIG    1       27.479 -26.234  12.908  0.00  0.00    -0.392 OA
ATOM     21  H   LIG    1       27.177 -25.792  13.721  0.00  0.00    +0.210 HD
ENDBRANCH  17  20
ENDBRANCH   1  15
BRANCH   6  22
ATOM     22  C   LIG    1       25.093 -31.548   6.934  0.00  0.00    -0.010 C 
ATOM     23  C   LIG    1       26.251 -31.877   5.980  0.00  0.00    +0.008 C 
BRANCH  22  24
ATOM     24  C   LIG    1       24.459 -30.208   6.425  0.00  0.00    +0.004 C 
BRANCH  24  25
ATOM     25  C   LIG    1       25.241 -29.483   5.306  0.00  0.00    +0.003 C 
BRANCH  25  26
ATOM     26  C   LIG    1       24.752 -28.039   5.119  0.00  0.00    +0.034 C 
BRANCH  26  27
ATOM     27  C   LIG    1       25.735 -26.910   5.522  0.00  0.00    +0.060 C 
ATOM     28  C   LIG    1       26.015 -26.838   7.024  0.00  0.00    +0.041 C 
ATOM     29  C   LIG    1       25.293 -25.537   5.008  0.00  0.00    +0.041 C 
BRANCH  27  30
ATOM     30  O   LIG    1       26.997 -27.216   4.907  0.00  0.00    -0.389 OA
ATOM     31  H   LIG    1       27.321 -26.411   4.469  0.00  0.00    +0.210 HD
ENDBRANCH  27  30
ENDBRANCH  26  27
ENDBRANCH  25  26
ENDBRANCH  24  25
ENDBRANCH  22  24
ENDBRANCH   6  22
TORSDOF 8
ENDMDL
MODEL 8
REMARK VINA RESULT:      -7.6      5.475     11.237
REMARK  Name = *****
REMARK                            x       y       z     vdW  Elec       q    Type
REMARK                         _______ _______ _______ _____ _____    ______ ____
ROOT
ATOM      1  C   LIG    1       25.120 -29.228   5.213  0.00  0.00    -0.000 C 
ATOM      2  C   LIG    1       25.083 -30.448   5.800  0.00  0.00    -0.066 C 
ATOM      3  C   LIG    1       24.238 -30.843   7.003  0.00  0.00    +0.021 C 
ATOM      4  C   LIG    1       24.220 -29.821   8.140  0.00  0.00    +0.009 C 
ATOM      5  C   LIG    1       23.520 -30.563   9.257  0.00  0.00    +0.005 C 
ATOM      6  C   LIG    1       24.121 -31.982   9.255  0.00  0.00    -0.002 C 
ATOM      7  C   LIG    1       24.649 -32.168   7.755  0.00  0.00    -0.022 C 
ATOM      8  C   LIG    1       23.897 -33.375   7.146  0.00  0.00    +0.012 C 
ATOM      9  C   LIG    1       26.167 -32.392   7.618  0.00  0.00    +0.008 C 
ATOM     10  C   LIG    1       26.730 -32.341   6.197  0.00  0.00    +0.005 C 
ATOM     11  C   LIG    1       25.908 -31.554   5.189  0.00  0.00    +0.031 C 
ENDROOT
BRANCH   1  15
ATOM     12  C   LIG    1       26.282 -27.496   7.926  0.00  0.00    +0.012 C 
ATOM     13  C   LIG    1       25.909 -26.777   6.850  0.00  0.00    -0.051 C 
ATOM     14  C   LIG    1       24.636 -26.987   6.176  0.00  0.00    -0.042 C 
ATOM     15  C   LIG    1       24.269 -28.106   5.508  0.00  0.00    +0.004 C 
ATOM     16  C   LIG    1       23.742 -25.776   6.238  0.00  0.00    +0.066 C 
ATOM     17  C   LIG    1       24.477 -24.538   5.695  0.00  0.00    +0.119 C 
ATOM     18  C   LIG    1       25.844 -24.335   6.361  0.00  0.00    +0.036 C 
ATOM     19  C   LIG    1       26.694 -25.606   6.321  0.00  0.00    +0.037 C 
BRANCH  17  20
ATOM     20  O   LIG    1       23.679 -23.371   5.888  0.00  0.00    -0.392 OA
ATOM     21  H   LIG    1       23.181 -23.214   5.066  0.00  0.00    +0.210 HD
ENDBRANCH  17  20
ENDBRANCH   1  15
BRANCH   6  22
ATOM     22  C   LIG    1       25.072 -32.206  10.481  0.00  0.00    -0.010 C 
ATOM     23  C   LIG    1       25.043 -33.625  11.069  0.00  0.00    +0.008 C 
BRANCH  22  24
ATOM     24  C   LIG    1       24.801 -31.220  11.669  0.00  0.00    +0.004 C 
BRANCH  24  25
ATOM     25  C   LIG    1       25.886 -30.145  11.903  0.00  0.00    +0.003 C 
BRANCH  25  26
ATOM     26  C   LIG    1       25.274 -28.740  12.019  0.00  0.00    +0.034 C 
BRANCH  26  27
ATOM     27  C   LIG    1       25.290 -28.082  13.421  0.00  0.00    +0.060 C 
ATOM     28  C   LIG    1       25.054 -26.570  13.400  0.00  0.00    +0.041 C 
ATOM     29  C   LIG    1       26.567 -28.399  14.203  0.00  0.00    +0.041 C 
BRANCH  27  30
ATOM     30  O   LIG    1       24.185 -28.635  14.155  0.00  0.00    -0.389 OA
ATOM     31  H   LIG    1       23.806 -27.929  14.706  0.00  0.00    +0.210 HD
ENDBRANCH  27  30
ENDBRANCH  26  27
ENDBRANCH  25  26
ENDBRANCH  24  25
ENDBRANCH  22  24
ENDBRANCH   6  22
TORSDOF 8
ENDMDL
MODEL 9
REMARK VINA RESULT:      -7.5      3.439      9.028
REMARK  Name = *****
REMARK                            x       y       z     vdW  Elec       q    Type
REMARK                         _______ _______ _______ _____ _____    ______ ____
ROOT
ATOM      1  C   LIG    1       28.154 -19.849   6.356  0.00  0.00    -0.000 C 
ATOM      2  C   LIG    1       26.854 -19.929   5.984  0.00  0.00    -0.066 C 
ATOM      3  C   LIG    1       25.705 -20.455   6.834  0.00  0.00    +0.021 C 
ATOM      4  C   LIG    1       26.010 -21.741   7.602  0.00  0.00    +0.009 C 
ATOM      5  C   LIG    1       24.658 -22.143   8.149  0.00  0.00    +0.005 C 
ATOM      6  C   LIG    1       23.661 -21.931   6.992  0.00  0.00    -0.002 C 
ATOM      7  C   LIG    1       24.374 -20.830   6.074  0.00  0.00    -0.022 C 
ATOM      8  C   LIG    1       23.437 -19.601   6.014  0.00  0.00    +0.012 C 
ATOM      9  C   LIG    1       24.706 -21.287   4.641  0.00  0.00    +0.008 C 
ATOM     10  C   LIG    1       25.588 -20.344   3.821  0.00  0.00    +0.005 C 
ATOM     11  C   LIG    1       26.471 -19.402   4.623  0.00  0.00    +0.031 C 
ENDROOT
BRANCH   1  15
ATOM     12  C   LIG    1       31.513 -19.201   6.446  0.00  0.00    +0.012 C 
ATOM     13  C   LIG    1       30.765 -18.724   7.459  0.00  0.00    -0.051 C 
ATOM     14  C   LIG    1       29.813 -19.553   8.183  0.00  0.00    -0.042 C 
ATOM     15  C   LIG    1       28.690 -20.104   7.666  0.00  0.00    +0.004 C 
ATOM     16  C   LIG    1       30.169 -19.706   9.640  0.00  0.00    +0.066 C 
ATOM     17  C   LIG    1       30.339 -18.325  10.298  0.00  0.00    +0.119 C 
ATOM     18  C   LIG    1       31.302 -17.423   9.516  0.00  0.00    +0.036 C 
ATOM     19  C   LIG    1       30.932 -17.342   8.034  0.00  0.00    +0.037 C 
BRANCH  17  20
ATOM     20  O   LIG    1       30.814 -18.476  11.635  0.00  0.00    -0.392 OA
ATOM     21  H   LIG    1       30.545 -19.358  11.947  0.00  0.00    +0.210 HD
ENDBRANCH  17  20
ENDBRANCH   1  15
BRANCH   6  22
ATOM     22  C   LIG    1       23.181 -23.297   6.390  0.00  0.00    -0.010 C 
ATOM     23  C   LIG    1       21.801 -23.766   6.876  0.00  0.00    +0.008 C 
BRANCH  22  24
ATOM     24  C   LIG    1       24.176 -24.480   6.653  0.00  0.00    +0.004 C 
BRANCH  24  25
ATOM     25  C   LIG    1       23.946 -25.747   5.799  0.00  0.00    +0.003 C 
BRANCH  25  26
ATOM     26  C   LIG    1       25.218 -26.155   5.040  0.00  0.00    +0.034 C 
BRANCH  26  27
ATOM     27  C   LIG    1       26.024 -27.346   5.614  0.00  0.00    +0.060 C 
ATOM     28  C   LIG    1       25.509 -28.717   5.168  0.00  0.00    +0.041 C 
ATOM     29  C   LIG    1       26.131 -27.302   7.140  0.00  0.00    +0.041 C 
BRANCH  27  30
ATOM     30  O   LIG    1       27.356 -27.243   5.084  0.00  0.00    -0.389 OA
ATOM     31  H   LIG    1       27.846 -26.601   5.626  0.00  0.00    +0.210 HD
ENDBRANCH  27  30
ENDBRANCH  26  27
ENDBRANCH  25  26
ENDBRANCH  24  25
ENDBRANCH  22  24
ENDBRANCH   6  22
TORSDOF 8
ENDMDL
