MODEL 1
REMARK VINA RESULT:     -10.0      0.000      0.000
REMARK  Name = *****
REMARK                            x       y       z     vdW  Elec       q    Type
REMARK                         _______ _______ _______ _____ _____    ______ ____
ROOT
ATOM      1  N   LIG    1       25.051 -25.096   5.906  0.00  0.00    -0.302 NA
ATOM      2  C   LIG    1       23.964 -26.080   5.939  0.00  0.00    +0.087 C 
ATOM      3  C   LIG    1       24.261 -27.389   5.220  0.00  0.00    +0.047 C 
ATOM      4  C   LIG    1       25.522 -28.034   5.782  0.00  0.00    +0.122 C 
ATOM      5  C   LIG    1       26.656 -27.042   5.502  0.00  0.00    +0.047 C 
ATOM      6  C   LIG    1       26.400 -25.661   6.118  0.00  0.00    +0.087 C 
ENDROOT
BRANCH   1   7
ATOM      7  C   LIG    1       24.814 -23.992   6.872  0.00  0.00    +0.085 C 
BRANCH   7   8
ATOM      8  C   LIG    1       23.415 -23.350   6.791  0.00  0.00    +0.023 C 
BRANCH   8   9
ATOM      9  C   LIG    1       23.402 -21.917   7.324  0.00  0.00    +0.081 C 
BRANCH   9  10
ATOM     10  C   LIG    1       24.170 -20.980   6.378  0.00  0.00    +0.163 C 
ATOM     11  O   LIG    1       23.635 -20.491   5.401  0.00  0.00    -0.292 OA
BRANCH  10  15
ATOM     12  C   LIG    1       28.315 -20.022   7.332  0.00  0.00    -0.042 A 
ATOM     13  C   LIG    1       27.377 -20.357   8.317  0.00  0.00    +0.005 A 
ATOM     14  C   LIG    1       26.054 -20.662   8.006  0.00  0.00    +0.012 A 
ATOM     15  C   LIG    1       25.600 -20.646   6.700  0.00  0.00    +0.017 A 
ATOM     16  C   LIG    1       26.511 -20.303   5.682  0.00  0.00    +0.012 A 
ATOM     17  C   LIG    1       27.854 -19.999   6.001  0.00  0.00    +0.005 A 
BRANCH  12  19
ATOM     18  C   LIG    1       30.616 -19.250   6.490  0.00  0.00    +0.015 C 
ATOM     19  C   LIG    1       29.773 -19.695   7.712  0.00  0.00    -0.013 C 
ATOM     20  C   LIG    1       29.831 -18.541   8.732  0.00  0.00    +0.015 C 
ATOM     21  C   LIG    1       30.463 -20.925   8.337  0.00  0.00    +0.015 C 
ENDBRANCH  12  19
ENDBRANCH  10  15
ENDBRANCH   9  10
ENDBRANCH   8   9
ENDBRANCH   7   8
ENDBRANCH   1   7
BRANCH   4  22
ATOM     22  O   LIG    1       25.455 -28.363   7.192  0.00  0.00    -0.364 OA
BRANCH  22  23
ATOM     23  C   LIG    1       24.832 -29.634   7.497  0.00  0.00    +0.179 C 
BRANCH  23  24
ATOM     24  C   LIG    1       24.580 -29.817   9.001  0.00  0.00    -0.015 A 
ATOM     25  C   LIG    1       25.516 -29.300   9.919  0.00  0.00    +0.006 A 
ATOM     26  C   LIG    1       25.224 -29.220  11.285  0.00  0.00    +0.000 A 
ATOM     27  C   LIG    1       24.010 -29.697  11.767  0.00  0.00    +0.000 A 
ATOM     28  C   LIG    1       23.111 -30.300  10.890  0.00  0.00    +0.000 A 
ATOM     29  C   LIG    1       23.395 -30.368   9.519  0.00  0.00    +0.006 A 
ENDBRANCH  23  24
BRANCH  23  30
ATOM     30  C   LIG    1       25.519 -30.834   6.842  0.00  0.00    -0.015 A 
ATOM     31  C   LIG    1       25.209 -31.184   5.515  0.00  0.00    +0.006 A 
ATOM     32  C   LIG    1       25.885 -32.226   4.876  0.00  0.00    +0.000 A 
ATOM     33  C   LIG    1       26.868 -32.940   5.559  0.00  0.00    +0.000 A 
ATOM     34  C   LIG    1       27.151 -32.636   6.888  0.00  0.00    +0.000 A 
ATOM     35  C   LIG    1       26.473 -31.599   7.531  0.00  0.00    +0.006 A 
ENDBRANCH  23  30
ENDBRANCH  22  23
ENDBRANCH   4  22
TORSDOF 10
ENDMDL
MODEL 2
REMARK VINA RESULT:      -9.9      0.875      3.035
REMARK  Name = *****
REMARK                            x       y       z     vdW  Elec       q    Type
REMARK                         _______ _______ _______ _____ _____    ______ ____
ROOT
ATOM      1  N   LIG    1       25.189 -25.056   5.908  0.00  0.00    -0.302 NA
ATOM      2  C   LIG    1       24.005 -25.839   5.535  0.00  0.00    +0.087 C 
ATOM      3  C   LIG    1       24.298 -27.110   4.750  0.00  0.00    +0.047 C 
ATOM      4  C   LIG    1       25.254 -28.009   5.524  0.00  0.00    +0.122 C 
ATOM      5  C   LIG    1       26.550 -27.205   5.673  0.00  0.00    +0.047 C 
ATOM      6  C   LIG    1       26.334 -25.860   6.380  0.00  0.00    +0.087 C 
ENDROOT
BRANCH   1   7
ATOM      7  C   LIG    1       24.856 -24.018   6.918  0.00  0.00    +0.085 C 
BRANCH   7   8
ATOM      8  C   LIG    1       23.470 -23.367   6.746  0.00  0.00    +0.023 C 
BRANCH   8   9
ATOM      9  C   LIG    1       23.409 -21.963   7.349  0.00  0.00    +0.081 C 
BRANCH   9  10
ATOM     10  C   LIG    1       24.134 -20.953   6.447  0.00  0.00    +0.163 C 
ATOM     11  O   LIG    1       23.562 -20.406   5.523  0.00  0.00    -0.292 OA
BRANCH  10  15
ATOM     12  C   LIG    1       28.295 -20.001   7.336  0.00  0.00    -0.042 A 
ATOM     13  C   LIG    1       27.366 -20.308   8.338  0.00  0.00    +0.005 A 
ATOM     14  C   LIG    1       26.038 -20.612   8.047  0.00  0.00    +0.012 A 
ATOM     15  C   LIG    1       25.569 -20.621   6.747  0.00  0.00    +0.017 A 
ATOM     16  C   LIG    1       26.472 -20.307   5.712  0.00  0.00    +0.012 A 
ATOM     17  C   LIG    1       27.820 -20.004   6.010  0.00  0.00    +0.005 A 
BRANCH  12  19
ATOM     18  C   LIG    1       30.585 -19.238   6.457  0.00  0.00    +0.015 C 
ATOM     19  C   LIG    1       29.759 -19.676   7.694  0.00  0.00    -0.013 C 
ATOM     20  C   LIG    1       29.835 -18.516   8.706  0.00  0.00    +0.015 C 
ATOM     21  C   LIG    1       30.456 -20.904   8.315  0.00  0.00    +0.015 C 
ENDBRANCH  12  19
ENDBRANCH  10  15
ENDBRANCH   9  10
ENDBRANCH   8   9
ENDBRANCH   7   8
ENDBRANCH   1   7
BRANCH   4  22
ATOM     22  O   LIG    1       24.761 -28.445   6.815  0.00  0.00    -0.364 OA
BRANCH  22  23
ATOM     23  C   LIG    1       25.584 -29.430   7.485  0.00  0.00    +0.179 C 
BRANCH  23  24
ATOM     24  C   LIG    1       25.259 -30.864   7.040  0.00  0.00    -0.015 A 
ATOM     25  C   LIG    1       26.221 -31.876   7.238  0.00  0.00    +0.006 A 
ATOM     26  C   LIG    1       25.895 -33.228   7.082  0.00  0.00    +0.000 A 
ATOM     27  C   LIG    1       24.614 -33.593   6.680  0.00  0.00    +0.000 A 
ATOM     28  C   LIG    1       23.677 -32.605   6.386  0.00  0.00    +0.000 A 
ATOM     29  C   LIG    1       23.997 -31.251   6.556  0.00  0.00    +0.006 A 
ENDBRANCH  23  24
BRANCH  23  30
ATOM     30  C   LIG    1       25.641 -29.260   9.004  0.00  0.00    -0.015 A 
ATOM     31  C   LIG    1       26.642 -28.460   9.585  0.00  0.00    +0.006 A 
ATOM     32  C   LIG    1       26.660 -28.229  10.963  0.00  0.00    +0.000 A 
ATOM     33  C   LIG    1       25.689 -28.806  11.778  0.00  0.00    +0.000 A 
ATOM     34  C   LIG    1       24.720 -29.639  11.223  0.00  0.00    +0.000 A 
ATOM     35  C   LIG    1       24.704 -29.876   9.847  0.00  0.00    +0.006 A 
ENDBRANCH  23  30
ENDBRANCH  22  23
ENDBRANCH   4  22
TORSDOF 10
ENDMDL
MODEL 3
REMARK VINA RESULT:      -9.9      1.724      9.677
REMARK  Name = *****
REMARK                            x       y       z     vdW  Elec       q    Type
REMARK                         _______ _______ _______ _____ _____    ______ ____
ROOT
ATOM      1  N   LIG    1       25.054 -26.045   5.934  0.00  0.00    -0.302 NA
ATOM      2  C   LIG    1       23.895 -25.203   5.617  0.00  0.00    +0.087 C 
ATOM      3  C   LIG    1       23.474 -24.248   6.725  0.00  0.00    +0.047 C 
ATOM      4  C   LIG    1       24.636 -23.348   7.126  0.00  0.00    +0.122 C 
ATOM      5  C   LIG    1       25.722 -24.287   7.663  0.00  0.00    +0.047 C 
ATOM      6  C   LIG    1       26.148 -25.346   6.638  0.00  0.00    +0.087 C 
ENDROOT
BRANCH   1   7
ATOM      7  C   LIG    1       25.588 -26.714   4.719  0.00  0.00    +0.085 C 
BRANCH   7   8
ATOM      8  C   LIG    1       25.611 -28.254   4.784  0.00  0.00    +0.023 C 
BRANCH   8   9
ATOM      9  C   LIG    1       24.479 -28.815   5.644  0.00  0.00    +0.081 C 
BRANCH   9  10
ATOM     10  C   LIG    1       25.005 -29.914   6.581  0.00  0.00    +0.163 C 
ATOM     11  O   LIG    1       25.258 -31.029   6.168  0.00  0.00    -0.292 OA
BRANCH  10  15
ATOM     12  C   LIG    1       25.689 -28.915  10.770  0.00  0.00    -0.042 A 
ATOM     13  C   LIG    1       26.453 -28.363   9.733  0.00  0.00    +0.005 A 
ATOM     14  C   LIG    1       26.229 -28.687   8.397  0.00  0.00    +0.012 A 
ATOM     15  C   LIG    1       25.238 -29.576   8.028  0.00  0.00    +0.017 A 
ATOM     16  C   LIG    1       24.455 -30.160   9.043  0.00  0.00    +0.012 A 
ATOM     17  C   LIG    1       24.681 -29.825  10.398  0.00  0.00    +0.005 A 
BRANCH  12  19
ATOM     18  C   LIG    1       26.636 -29.676  13.033  0.00  0.00    +0.015 C 
ATOM     19  C   LIG    1       25.960 -28.529  12.237  0.00  0.00    -0.013 C 
ATOM     20  C   LIG    1       26.908 -27.316  12.323  0.00  0.00    +0.015 C 
ATOM     21  C   LIG    1       24.646 -28.165  12.959  0.00  0.00    +0.015 C 
ENDBRANCH  12  19
ENDBRANCH  10  15
ENDBRANCH   9  10
ENDBRANCH   8   9
ENDBRANCH   7   8
ENDBRANCH   1   7
BRANCH   4  22
ATOM     22  O   LIG    1       25.151 -22.514   6.059  0.00  0.00    -0.364 OA
BRANCH  22  23
ATOM     23  C   LIG    1       25.158 -21.094   6.338  0.00  0.00    +0.179 C 
BRANCH  23  24
ATOM     24  C   LIG    1       24.308 -20.295   5.339  0.00  0.00    -0.015 A 
ATOM     25  C   LIG    1       22.972 -19.991   5.668  0.00  0.00    +0.006 A 
ATOM     26  C   LIG    1       22.232 -19.069   4.919  0.00  0.00    +0.000 A 
ATOM     27  C   LIG    1       22.798 -18.468   3.799  0.00  0.00    +0.000 A 
ATOM     28  C   LIG    1       24.084 -18.828   3.401  0.00  0.00    +0.000 A 
ATOM     29  C   LIG    1       24.831 -19.740   4.158  0.00  0.00    +0.006 A 
ENDBRANCH  23  24
BRANCH  23  30
ATOM     30  C   LIG    1       26.557 -20.512   6.553  0.00  0.00    -0.015 A 
ATOM     31  C   LIG    1       27.120 -20.489   7.842  0.00  0.00    +0.006 A 
ATOM     32  C   LIG    1       28.425 -20.035   8.042  0.00  0.00    +0.000 A 
ATOM     33  C   LIG    1       29.180 -19.585   6.961  0.00  0.00    +0.000 A 
ATOM     34  C   LIG    1       28.619 -19.557   5.686  0.00  0.00    +0.000 A 
ATOM     35  C   LIG    1       27.312 -20.004   5.484  0.00  0.00    +0.006 A 
ENDBRANCH  23  30
ENDBRANCH  22  23
ENDBRANCH   4  22
TORSDOF 10
ENDMDL
MODEL 4
REMARK VINA RESULT:      -9.8      1.804      9.518
REMARK  Name = *****
REMARK                            x       y       z     vdW  Elec       q    Type
REMARK                         _______ _______ _______ _____ _____    ______ ____
ROOT
ATOM      1  N   LIG    1       25.052 -26.214   6.145  0.00  0.00    -0.302 NA
ATOM      2  C   LIG    1       23.803 -25.499   5.857  0.00  0.00    +0.087 C 
ATOM      3  C   LIG    1       23.572 -24.249   6.693  0.00  0.00    +0.047 C 
ATOM      4  C   LIG    1       24.736 -23.278   6.538  0.00  0.00    +0.122 C 
ATOM      5  C   LIG    1       25.966 -24.017   7.075  0.00  0.00    +0.047 C 
ATOM      6  C   LIG    1       26.227 -25.341   6.345  0.00  0.00    +0.087 C 
ENDROOT
BRANCH   1   7
ATOM      7  C   LIG    1       25.352 -27.225   5.099  0.00  0.00    +0.085 C 
BRANCH   7   8
ATOM      8  C   LIG    1       24.457 -28.479   5.133  0.00  0.00    +0.023 C 
BRANCH   8   9
ATOM      9  C   LIG    1       25.184 -29.696   5.705  0.00  0.00    +0.081 C 
BRANCH   9  10
ATOM     10  C   LIG    1       24.411 -30.276   6.901  0.00  0.00    +0.163 C 
ATOM     11  O   LIG    1       23.521 -31.090   6.743  0.00  0.00    -0.292 OA
BRANCH  10  15
ATOM     12  C   LIG    1       25.530 -29.043  10.930  0.00  0.00    -0.042 A 
ATOM     13  C   LIG    1       24.425 -29.866  10.678  0.00  0.00    +0.005 A 
ATOM     14  C   LIG    1       24.073 -30.257   9.388  0.00  0.00    +0.012 A 
ATOM     15  C   LIG    1       24.801 -29.845   8.287  0.00  0.00    +0.017 A 
ATOM     16  C   LIG    1       25.913 -29.007   8.500  0.00  0.00    +0.012 A 
ATOM     17  C   LIG    1       26.271 -28.617   9.810  0.00  0.00    +0.005 A 
BRANCH  12  19
ATOM     18  C   LIG    1       24.673 -28.093  13.157  0.00  0.00    +0.015 C 
ATOM     19  C   LIG    1       25.895 -28.636  12.372  0.00  0.00    -0.013 C 
ATOM     20  C   LIG    1       26.429 -29.843  13.168  0.00  0.00    +0.015 C 
ATOM     21  C   LIG    1       26.980 -27.540  12.372  0.00  0.00    +0.015 C 
ENDBRANCH  12  19
ENDBRANCH  10  15
ENDBRANCH   9  10
ENDBRANCH   8   9
ENDBRANCH   7   8
ENDBRANCH   1   7
BRANCH   4  22
ATOM     22  O   LIG    1       24.958 -22.814   5.183  0.00  0.00    -0.364 OA
BRANCH  22  23
ATOM     23  C   LIG    1       25.275 -21.406   5.061  0.00  0.00    +0.179 C 
BRANCH  23  24
ATOM     24  C   LIG    1       26.064 -20.876   6.268  0.00  0.00    -0.015 A 
ATOM     25  C   LIG    1       25.388 -20.660   7.485  0.00  0.00    +0.006 A 
ATOM     26  C   LIG    1       26.089 -20.416   8.671  0.00  0.00    +0.000 A 
ATOM     27  C   LIG    1       27.477 -20.338   8.656  0.00  0.00    +0.000 A 
ATOM     28  C   LIG    1       28.160 -20.453   7.447  0.00  0.00    +0.000 A 
ATOM     29  C   LIG    1       27.460 -20.712   6.260  0.00  0.00    +0.006 A 
ENDBRANCH  23  24
BRANCH  23  30
ATOM     30  C   LIG    1       24.079 -20.532   4.681  0.00  0.00    -0.015 A 
ATOM     31  C   LIG    1       22.775 -20.936   5.024  0.00  0.00    +0.006 A 
ATOM     32  C   LIG    1       21.679 -20.112   4.756  0.00  0.00    +0.000 A 
ATOM     33  C   LIG    1       21.870 -18.882   4.130  0.00  0.00    +0.000 A 
ATOM     34  C   LIG    1       23.150 -18.490   3.741  0.00  0.00    +0.000 A 
ATOM     35  C   LIG    1       24.245 -19.315   4.003  0.00  0.00    +0.006 A 
ENDBRANCH  23  30
ENDBRANCH  22  23
ENDBRANCH   4  22
TORSDOF 10
ENDMDL
MODEL 5
REMARK VINA RESULT:      -9.8      3.198      6.741
REMARK  Name = *****
REMARK                            x       y       z     vdW  Elec       q    Type
REMARK                         _______ _______ _______ _____ _____    ______ ____
ROOT
ATOM      1  N   LIG    1       24.742 -30.783   9.674  0.00  0.00    -0.302 NA
ATOM      2  C   LIG    1       23.334 -30.406   9.503  0.00  0.00    +0.087 C 
ATOM      3  C   LIG    1       22.427 -30.769  10.671  0.00  0.00    +0.047 C 
ATOM      4  C   LIG    1       22.945 -30.151  11.963  0.00  0.00    +0.122 C 
ATOM      5  C   LIG    1       24.327 -30.769  12.195  0.00  0.00    +0.047 C 
ATOM      6  C   LIG    1       25.288 -30.528  11.023  0.00  0.00    +0.087 C 
ENDROOT
BRANCH   1   7
ATOM      7  C   LIG    1       25.605 -30.132   8.654  0.00  0.00    +0.085 C 
BRANCH   7   8
ATOM      8  C   LIG    1       24.850 -29.280   7.615  0.00  0.00    +0.023 C 
BRANCH   8   9
ATOM      9  C   LIG    1       25.599 -27.993   7.265  0.00  0.00    +0.081 C 
BRANCH   9  10
ATOM     10  C   LIG    1       24.758 -27.117   6.324  0.00  0.00    +0.163 C 
ATOM     11  O   LIG    1       24.066 -27.608   5.453  0.00  0.00    -0.292 OA
BRANCH  10  15
ATOM     12  C   LIG    1       24.836 -22.794   6.885  0.00  0.00    -0.042 A 
ATOM     13  C   LIG    1       25.996 -23.577   6.934  0.00  0.00    +0.005 A 
ATOM     14  C   LIG    1       25.965 -24.958   6.754  0.00  0.00    +0.012 A 
ATOM     15  C   LIG    1       24.778 -25.626   6.520  0.00  0.00    +0.017 A 
ATOM     16  C   LIG    1       23.588 -24.874   6.474  0.00  0.00    +0.012 A 
ATOM     17  C   LIG    1       23.624 -23.472   6.652  0.00  0.00    +0.005 A 
BRANCH  12  19
ATOM     18  C   LIG    1       25.624 -20.553   5.907  0.00  0.00    +0.015 C 
ATOM     19  C   LIG    1       24.909 -21.266   7.083  0.00  0.00    -0.013 C 
ATOM     20  C   LIG    1       23.497 -20.654   7.176  0.00  0.00    +0.015 C 
ATOM     21  C   LIG    1       25.670 -20.919   8.379  0.00  0.00    +0.015 C 
ENDBRANCH  12  19
ENDBRANCH  10  15
ENDBRANCH   9  10
ENDBRANCH   8   9
ENDBRANCH   7   8
ENDBRANCH   1   7
BRANCH   4  22
ATOM     22  O   LIG    1       23.018 -28.703  11.953  0.00  0.00    -0.364 OA
BRANCH  22  23
ATOM     23  C   LIG    1       23.176 -28.087  13.254  0.00  0.00    +0.179 C 
BRANCH  23  24
ATOM     24  C   LIG    1       21.857 -27.519  13.798  0.00  0.00    -0.015 A 
ATOM     25  C   LIG    1       21.026 -26.775  12.936  0.00  0.00    +0.006 A 
ATOM     26  C   LIG    1       19.715 -26.445  13.298  0.00  0.00    +0.000 A 
ATOM     27  C   LIG    1       19.224 -26.812  14.546  0.00  0.00    +0.000 A 
ATOM     28  C   LIG    1       20.060 -27.464  15.450  0.00  0.00    +0.000 A 
ATOM     29  C   LIG    1       21.369 -27.808  15.084  0.00  0.00    +0.006 A 
ENDBRANCH  23  24
BRANCH  23  30
ATOM     30  C   LIG    1       24.345 -27.104  13.336  0.00  0.00    -0.015 A 
ATOM     31  C   LIG    1       25.622 -27.490  12.891  0.00  0.00    +0.006 A 
ATOM     32  C   LIG    1       26.681 -26.579  12.885  0.00  0.00    +0.000 A 
ATOM     33  C   LIG    1       26.481 -25.276  13.336  0.00  0.00    +0.000 A 
ATOM     34  C   LIG    1       25.234 -24.894  13.825  0.00  0.00    +0.000 A 
ATOM     35  C   LIG    1       24.176 -25.804  13.838  0.00  0.00    +0.006 A 
ENDBRANCH  23  30
ENDBRANCH  22  23
ENDBRANCH   4  22
TORSDOF 10
ENDMDL
MODEL 6
REMARK VINA RESULT:      -9.6      2.898      6.597
REMARK  Name = *****
REMARK                            x       y       z     vdW  Elec       q    Type
REMARK                         _______ _______ _______ _____ _____    ______ ____
ROOT
ATOM      1  N   LIG    1       25.242 -31.543   8.471  0.00  0.00    -0.302 NA
ATOM      2  C   LIG    1       23.888 -32.107   8.426  0.00  0.00    +0.087 C 
ATOM      3  C   LIG    1       23.433 -32.786   9.710  0.00  0.00    +0.047 C 
ATOM      4  C   LIG    1       23.522 -31.822  10.887  0.00  0.00    +0.122 C 
ATOM      5  C   LIG    1       25.005 -31.458  11.013  0.00  0.00    +0.047 C 
ATOM      6  C   LIG    1       25.576 -30.843   9.728  0.00  0.00    +0.087 C 
ENDROOT
BRANCH   1   7
ATOM      7  C   LIG    1       25.494 -30.643   7.315  0.00  0.00    +0.085 C 
BRANCH   7   8
ATOM      8  C   LIG    1       24.530 -29.446   7.204  0.00  0.00    +0.023 C 
BRANCH   8   9
ATOM      9  C   LIG    1       25.262 -28.105   7.251  0.00  0.00    +0.081 C 
BRANCH   9  10
ATOM     10  C   LIG    1       24.717 -27.153   6.174  0.00  0.00    +0.163 C 
ATOM     11  O   LIG    1       24.228 -27.577   5.145  0.00  0.00    -0.292 OA
BRANCH  10  15
ATOM     12  C   LIG    1       24.882 -22.859   6.911  0.00  0.00    -0.042 A 
ATOM     13  C   LIG    1       26.031 -23.660   6.887  0.00  0.00    +0.005 A 
ATOM     14  C   LIG    1       25.972 -25.032   6.651  0.00  0.00    +0.012 A 
ATOM     15  C   LIG    1       24.767 -25.672   6.431  0.00  0.00    +0.017 A 
ATOM     16  C   LIG    1       23.588 -24.902   6.458  0.00  0.00    +0.012 A 
ATOM     17  C   LIG    1       23.653 -23.509   6.692  0.00  0.00    +0.005 A 
BRANCH  12  19
ATOM     18  C   LIG    1       23.600 -20.648   7.169  0.00  0.00    +0.015 C 
ATOM     19  C   LIG    1       24.986 -21.342   7.169  0.00  0.00    -0.013 C 
ATOM     20  C   LIG    1       25.621 -21.059   8.545  0.00  0.00    +0.015 C 
ATOM     21  C   LIG    1       25.854 -20.662   6.090  0.00  0.00    +0.015 C 
ENDBRANCH  12  19
ENDBRANCH  10  15
ENDBRANCH   9  10
ENDBRANCH   8   9
ENDBRANCH   7   8
ENDBRANCH   1   7
BRANCH   4  22
ATOM     22  O   LIG    1       22.704 -30.633  10.756  0.00  0.00    -0.364 OA
BRANCH  22  23
ATOM     23  C   LIG    1       21.911 -30.302  11.922  0.00  0.00    +0.179 C 
BRANCH  23  24
ATOM     24  C   LIG    1       20.425 -30.639  11.734  0.00  0.00    -0.015 A 
ATOM     25  C   LIG    1       19.924 -30.824  10.430  0.00  0.00    +0.006 A 
ATOM     26  C   LIG    1       18.653 -31.367  10.210  0.00  0.00    +0.000 A 
ATOM     27  C   LIG    1       17.839 -31.693  11.290  0.00  0.00    +0.000 A 
ATOM     28  C   LIG    1       18.277 -31.428  12.586  0.00  0.00    +0.000 A 
ATOM     29  C   LIG    1       19.555 -30.897  12.808  0.00  0.00    +0.006 A 
ENDBRANCH  23  24
BRANCH  23  30
ATOM     30  C   LIG    1       22.155 -28.889  12.456  0.00  0.00    -0.015 A 
ATOM     31  C   LIG    1       21.071 -28.014  12.651  0.00  0.00    +0.006 A 
ATOM     32  C   LIG    1       21.267 -26.750  13.213  0.00  0.00    +0.000 A 
ATOM     33  C   LIG    1       22.549 -26.340  13.573  0.00  0.00    +0.000 A 
ATOM     34  C   LIG    1       23.638 -27.177  13.341  0.00  0.00    +0.000 A 
ATOM     35  C   LIG    1       23.445 -28.438  12.774  0.00  0.00    +0.006 A 
ENDBRANCH  23  30
ENDBRANCH  22  23
ENDBRANCH   4  22
TORSDOF 10
ENDMDL
MODEL 7
REMARK VINA RESULT:      -9.5      2.962      6.490
REMARK  Name = *****
REMARK                            x       y       z     vdW  Elec       q    Type
REMARK                         _______ _______ _______ _____ _____    ______ ____
ROOT
ATOM      1  N   LIG    1       25.017 -30.773   8.710  0.00  0.00    -0.302 NA
ATOM      2  C   LIG    1       24.437 -30.995  10.039  0.00  0.00    +0.087 C 
ATOM      3  C   LIG    1       25.449 -31.109  11.170  0.00  0.00    +0.047 C 
ATOM      4  C   LIG    1       26.334 -29.871  11.224  0.00  0.00    +0.122 C 
ATOM      5  C   LIG    1       27.082 -29.836   9.887  0.00  0.00    +0.047 C 
ATOM      6  C   LIG    1       26.135 -29.808   8.680  0.00  0.00    +0.087 C 
ENDROOT
BRANCH   1   7
ATOM      7  C   LIG    1       23.980 -30.368   7.725  0.00  0.00    +0.085 C 
BRANCH   7   8
ATOM      8  C   LIG    1       24.528 -29.755   6.422  0.00  0.00    +0.023 C 
BRANCH   8   9
ATOM      9  C   LIG    1       23.994 -28.343   6.175  0.00  0.00    +0.081 C 
BRANCH   9  10
ATOM     10  C   LIG    1       25.129 -27.403   5.740  0.00  0.00    +0.163 C 
ATOM     11  O   LIG    1       26.061 -27.805   5.070  0.00  0.00    -0.292 OA
BRANCH  10  15
ATOM     12  C   LIG    1       24.886 -23.201   6.880  0.00  0.00    -0.042 A 
ATOM     13  C   LIG    1       23.747 -23.972   6.607  0.00  0.00    +0.005 A 
ATOM     14  C   LIG    1       23.832 -25.314   6.244  0.00  0.00    +0.012 A 
ATOM     15  C   LIG    1       25.052 -25.953   6.131  0.00  0.00    +0.017 A 
ATOM     16  C   LIG    1       26.221 -25.209   6.387  0.00  0.00    +0.012 A 
ATOM     17  C   LIG    1       26.131 -23.848   6.760  0.00  0.00    +0.005 A 
BRANCH  12  19
ATOM     18  C   LIG    1       25.273 -20.759   6.185  0.00  0.00    +0.015 C 
ATOM     19  C   LIG    1       24.754 -21.720   7.285  0.00  0.00    -0.013 C 
ATOM     20  C   LIG    1       23.280 -21.346   7.538  0.00  0.00    +0.015 C 
ATOM     21  C   LIG    1       25.551 -21.433   8.575  0.00  0.00    +0.015 C 
ENDBRANCH  12  19
ENDBRANCH  10  15
ENDBRANCH   9  10
ENDBRANCH   8   9
ENDBRANCH   7   8
ENDBRANCH   1   7
BRANCH   4  22
ATOM     22  O   LIG    1       25.622 -28.629  11.454  0.00  0.00    -0.364 OA
BRANCH  22  23
ATOM     23  C   LIG    1       25.273 -28.368  12.834  0.00  0.00    +0.179 C 
BRANCH  23  24
ATOM     24  C   LIG    1       23.781 -28.050  13.011  0.00  0.00    -0.015 A 
ATOM     25  C   LIG    1       23.405 -26.786  13.509  0.00  0.00    +0.006 A 
ATOM     26  C   LIG    1       22.075 -26.354  13.462  0.00  0.00    +0.000 A 
ATOM     27  C   LIG    1       21.088 -27.193  12.958  0.00  0.00    +0.000 A 
ATOM     28  C   LIG    1       21.423 -28.483  12.550  0.00  0.00    +0.000 A 
ATOM     29  C   LIG    1       22.756 -28.913  12.584  0.00  0.00    +0.006 A 
ENDBRANCH  23  24
BRANCH  23  30
ATOM     30  C   LIG    1       26.198 -27.367  13.529  0.00  0.00    -0.015 A 
ATOM     31  C   LIG    1       26.547 -26.167  12.883  0.00  0.00    +0.006 A 
ATOM     32  C   LIG    1       27.325 -25.206  13.535  0.00  0.00    +0.000 A 
ATOM     33  C   LIG    1       27.775 -25.439  14.832  0.00  0.00    +0.000 A 
ATOM     34  C   LIG    1       27.478 -26.644  15.466  0.00  0.00    +0.000 A 
ATOM     35  C   LIG    1       26.706 -27.607  14.815  0.00  0.00    +0.006 A 
ENDBRANCH  23  30
ENDBRANCH  22  23
ENDBRANCH   4  22
TORSDOF 10
ENDMDL
MODEL 8
REMARK VINA RESULT:      -9.3      2.012      9.474
REMARK  Name = *****
REMARK                            x       y       z     vdW  Elec       q    Type
REMARK                         _______ _______ _______ _____ _____    ______ ____
ROOT
ATOM      1  N   LIG    1       24.671 -26.499   5.911  0.00  0.00    -0.302 NA
ATOM      2  C   LIG    1       25.513 -25.795   4.937  0.00  0.00    +0.087 C 
ATOM      3  C   LIG    1       24.890 -24.541   4.340  0.00  0.00    +0.047 C 
ATOM      4  C   LIG    1       24.494 -23.564   5.439  0.00  0.00    +0.122 C 
ATOM      5  C   LIG    1       23.440 -24.291   6.280  0.00  0.00    +0.047 C 
ATOM      6  C   LIG    1       23.954 -25.618   6.855  0.00  0.00    +0.087 C 
ENDROOT
BRANCH   1   7
ATOM      7  C   LIG    1       25.449 -27.515   6.668  0.00  0.00    +0.085 C 
BRANCH   7   8
ATOM      8  C   LIG    1       24.643 -28.753   7.108  0.00  0.00    +0.023 C 
BRANCH   8   9
ATOM      9  C   LIG    1       25.467 -30.039   7.031  0.00  0.00    +0.081 C 
BRANCH   9  10
ATOM     10  C   LIG    1       25.531 -30.723   8.405  0.00  0.00    +0.163 C 
ATOM     11  O   LIG    1       25.542 -31.935   8.508  0.00  0.00    -0.292 OA
BRANCH  10  15
ATOM     12  C   LIG    1       25.796 -28.213  11.960  0.00  0.00    -0.042 A 
ATOM     13  C   LIG    1       26.778 -28.203  10.961  0.00  0.00    +0.005 A 
ATOM     14  C   LIG    1       26.687 -29.008   9.827  0.00  0.00    +0.012 A 
ATOM     15  C   LIG    1       25.618 -29.863   9.635  0.00  0.00    +0.017 A 
ATOM     16  C   LIG    1       24.616 -29.908  10.623  0.00  0.00    +0.012 A 
ATOM     17  C   LIG    1       24.708 -29.087  11.770  0.00  0.00    +0.005 A 
BRANCH  12  19
ATOM     18  C   LIG    1       26.803 -26.056  12.925  0.00  0.00    +0.015 C 
ATOM     19  C   LIG    1       25.926 -27.305  13.199  0.00  0.00    -0.013 C 
ATOM     20  C   LIG    1       24.546 -26.784  13.648  0.00  0.00    +0.015 C 
ATOM     21  C   LIG    1       26.557 -28.074  14.378  0.00  0.00    +0.015 C 
ENDBRANCH  12  19
ENDBRANCH  10  15
ENDBRANCH   9  10
ENDBRANCH   8   9
ENDBRANCH   7   8
ENDBRANCH   1   7
BRANCH   4  22
ATOM     22  O   LIG    1       25.593 -23.106   6.265  0.00  0.00    -0.364 OA
BRANCH  22  23
ATOM     23  C   LIG    1       25.587 -21.689   6.564  0.00  0.00    +0.179 C 
BRANCH  23  24
ATOM     24  C   LIG    1       24.667 -20.896   5.624  0.00  0.00    -0.015 A 
ATOM     25  C   LIG    1       23.406 -20.476   6.094  0.00  0.00    +0.006 A 
ATOM     26  C   LIG    1       22.636 -19.552   5.379  0.00  0.00    +0.000 A 
ATOM     27  C   LIG    1       23.089 -19.065   4.158  0.00  0.00    +0.000 A 
ATOM     28  C   LIG    1       24.288 -19.540   3.629  0.00  0.00    +0.000 A 
ATOM     29  C   LIG    1       25.068 -20.454   4.350  0.00  0.00    +0.006 A 
ENDBRANCH  23  24
BRANCH  23  30
ATOM     30  C   LIG    1       26.983 -21.080   6.710  0.00  0.00    -0.015 A 
ATOM     31  C   LIG    1       27.882 -21.602   7.658  0.00  0.00    +0.006 A 
ATOM     32  C   LIG    1       29.187 -21.111   7.749  0.00  0.00    +0.000 A 
ATOM     33  C   LIG    1       29.604 -20.084   6.905  0.00  0.00    +0.000 A 
ATOM     34  C   LIG    1       28.710 -19.525   5.995  0.00  0.00    +0.000 A 
ATOM     35  C   LIG    1       27.404 -20.010   5.906  0.00  0.00    +0.006 A 
ENDBRANCH  23  30
ENDBRANCH  22  23
ENDBRANCH   4  22
TORSDOF 10
ENDMDL
MODEL 9
REMARK VINA RESULT:      -8.5      2.939      6.214
REMARK  Name = *****
REMARK                            x       y       z     vdW  Elec       q    Type
REMARK                         _______ _______ _______ _____ _____    ______ ____
ROOT
ATOM      1  N   LIG    1       25.040 -30.158   8.068  0.00  0.00    -0.302 NA
ATOM      2  C   LIG    1       23.734 -30.151   8.737  0.00  0.00    +0.087 C 
ATOM      3  C   LIG    1       23.442 -31.381   9.586  0.00  0.00    +0.047 C 
ATOM      4  C   LIG    1       24.528 -31.577  10.636  0.00  0.00    +0.122 C 
ATOM      5  C   LIG    1       25.825 -31.807   9.854  0.00  0.00    +0.047 C 
ATOM      6  C   LIG    1       26.156 -30.650   8.902  0.00  0.00    +0.087 C 
ENDROOT
BRANCH   1   7
ATOM      7  C   LIG    1       25.377 -28.817   7.523  0.00  0.00    +0.085 C 
BRANCH   7   8
ATOM      8  C   LIG    1       24.356 -28.252   6.516  0.00  0.00    +0.023 C 
BRANCH   8   9
ATOM      9  C   LIG    1       24.964 -28.041   5.129  0.00  0.00    +0.081 C 
BRANCH   9  10
ATOM     10  C   LIG    1       26.064 -26.969   5.176  0.00  0.00    +0.163 C 
ATOM     11  O   LIG    1       27.211 -27.226   4.865  0.00  0.00    -0.292 OA
BRANCH  10  15
ATOM     12  C   LIG    1       24.962 -22.916   6.346  0.00  0.00    -0.042 A 
ATOM     13  C   LIG    1       24.623 -23.455   5.097  0.00  0.00    +0.005 A 
ATOM     14  C   LIG    1       24.978 -24.751   4.730  0.00  0.00    +0.012 A 
ATOM     15  C   LIG    1       25.690 -25.571   5.584  0.00  0.00    +0.017 A 
ATOM     16  C   LIG    1       26.058 -25.062   6.845  0.00  0.00    +0.012 A 
ATOM     17  C   LIG    1       25.691 -23.748   7.217  0.00  0.00    +0.005 A 
BRANCH  12  19
ATOM     18  C   LIG    1       24.243 -20.609   5.475  0.00  0.00    +0.015 C 
ATOM     19  C   LIG    1       24.546 -21.480   6.722  0.00  0.00    -0.013 C 
ATOM     20  C   LIG    1       23.265 -21.482   7.579  0.00  0.00    +0.015 C 
ATOM     21  C   LIG    1       25.662 -20.781   7.525  0.00  0.00    +0.015 C 
ENDBRANCH  12  19
ENDBRANCH  10  15
ENDBRANCH   9  10
ENDBRANCH   8   9
ENDBRANCH   7   8
ENDBRANCH   1   7
BRANCH   4  22
ATOM     22  O   LIG    1       24.671 -30.476  11.569  0.00  0.00    -0.364 OA
BRANCH  22  23
ATOM     23  C   LIG    1       23.454 -30.085  12.249  0.00  0.00    +0.179 C 
BRANCH  23  24
ATOM     24  C   LIG    1       23.454 -28.601  12.643  0.00  0.00    -0.015 A 
ATOM     25  C   LIG    1       22.224 -27.957  12.883  0.00  0.00    +0.006 A 
ATOM     26  C   LIG    1       22.171 -26.690  13.475  0.00  0.00    +0.000 A 
ATOM     27  C   LIG    1       23.348 -26.023  13.798  0.00  0.00    +0.000 A 
ATOM     28  C   LIG    1       24.576 -26.600  13.481  0.00  0.00    +0.000 A 
ATOM     29  C   LIG    1       24.631 -27.875  12.900  0.00  0.00    +0.006 A 
ENDBRANCH  23  24
BRANCH  23  30
ATOM     30  C   LIG    1       23.055 -31.021  13.392  0.00  0.00    -0.015 A 
ATOM     31  C   LIG    1       21.827 -31.706  13.344  0.00  0.00    +0.006 A 
ATOM     32  C   LIG    1       21.484 -32.624  14.339  0.00  0.00    +0.000 A 
ATOM     33  C   LIG    1       22.355 -32.858  15.401  0.00  0.00    +0.000 A 
ATOM     34  C   LIG    1       23.553 -32.151  15.487  0.00  0.00    +0.000 A 
ATOM     35  C   LIG    1       23.895 -31.229  14.497  0.00  0.00    +0.006 A 
ENDBRANCH  23  30
ENDBRANCH  22  23
ENDBRANCH   4  22
TORSDOF 10
ENDMDL
