MODEL 1
REMARK VINA RESULT:      -7.5      0.000      0.000
REMARK  Name = *****
REMARK                            x       y       z     vdW  Elec       q    Type
REMARK                         _______ _______ _______ _____ _____    ______ ____
ROOT
ATOM      1  C   LIG    1       30.598 -19.392   8.983  0.00  0.00    +0.179 C 
ATOM      2  C   LIG    1       30.773 -20.259   7.730  0.00  0.00    +0.179 C 
ATOM      3  C   LIG    1       29.618 -19.785   6.855  0.00  0.00    +0.202 C 
ATOM      4  C   LIG    1       28.522 -19.611   7.912  0.00  0.00    +0.293 C 
ATOM      5  O   LIG    1       29.198 -19.000   9.020  0.00  0.00    -0.340 OA
ENDROOT
BRANCH   2   6
ATOM      6  O   LIG    1       30.592 -21.654   8.023  0.00  0.00    -0.386 OA
ATOM      7  H   LIG    1       29.978 -22.027   7.360  0.00  0.00    +0.210 HD
ENDBRANCH   2   6
BRANCH   3   8
ATOM      8  O   LIG    1       29.301 -20.677   5.789  0.00  0.00    -0.384 OA
ATOM      9  H   LIG    1       28.493 -21.170   6.079  0.00  0.00    +0.210 HD
ENDBRANCH   3   8
BRANCH   1  10
ATOM     10  C   LIG    1       31.438 -18.114   8.937  0.00  0.00    +0.206 C 
BRANCH  10  11
ATOM     11  O   LIG    1       32.199 -18.008  10.132  0.00  0.00    -0.284 OA
BRANCH  11  13
ATOM     12  O   LIG    1       31.806 -17.366  12.653  0.00  0.00    -0.228 OA
ATOM     13  P   LIG    1       31.686 -16.959  11.224  0.00  0.00    +0.472 P 
BRANCH  13  14
ATOM     14  O   LIG    1       32.488 -15.626  10.875  0.00  0.00    -0.303 OA
ATOM     15  H   LIG    1       31.994 -14.835  11.157  0.00  0.00    +0.222 HD
ENDBRANCH  13  14
BRANCH  13  16
ATOM     16  O   LIG    1       30.209 -16.593  10.768  0.00  0.00    -0.303 OA
ATOM     17  H   LIG    1       29.753 -16.075  11.455  0.00  0.00    +0.222 HD
ENDBRANCH  13  16
ENDBRANCH  11  13
ENDBRANCH  10  11
ENDBRANCH   1  10
BRANCH   4  18
ATOM     18  O   LIG    1       27.990 -20.830   8.385  0.00  0.00    -0.254 OA
BRANCH  18  19
ATOM     19  P   LIG    1       26.432 -21.144   8.227  0.00  0.00    +0.486 P 
ATOM     20  O   LIG    1       26.094 -22.603   8.251  0.00  0.00    -0.227 OA
BRANCH  19  21
ATOM     21  O   LIG    1       25.872 -20.451   9.559  0.00  0.00    -0.302 OA
ATOM     22  H   LIG    1       26.152 -19.519   9.602  0.00  0.00    +0.222 HD
ENDBRANCH  19  21
BRANCH  19  23
ATOM     23  O   LIG    1       25.833 -20.259   7.071  0.00  0.00    -0.186 OA
BRANCH  23  24
ATOM     24  P   LIG    1       25.465 -20.721   5.599  0.00  0.00    +0.481 P 
ATOM     25  O   LIG    1       24.113 -20.365   5.097  0.00  0.00    -0.227 OA
BRANCH  24  26
ATOM     26  O   LIG    1       25.697 -22.302   5.652  0.00  0.00    -0.302 OA
ATOM     27  H   LIG    1       26.628 -22.511   5.844  0.00  0.00    +0.222 HD
ENDBRANCH  24  26
BRANCH  24  28
ATOM     28  O   LIG    1       26.657 -20.245   4.657  0.00  0.00    -0.302 OA
ATOM     29  H   LIG    1       26.336 -19.608   3.977  0.00  0.00    +0.222 HD
ENDBRANCH  24  28
ENDBRANCH  23  24
ENDBRANCH  19  23
ENDBRANCH  18  19
ENDBRANCH   4  18
TORSDOF 14
ENDMDL
MODEL 2
REMARK VINA RESULT:      -7.5      3.322      5.073
REMARK  Name = *****
REMARK                            x       y       z     vdW  Elec       q    Type
REMARK                         _______ _______ _______ _____ _____    ______ ____
ROOT
ATOM      1  C   LIG    1       27.691 -20.883   6.924  0.00  0.00    +0.179 C 
ATOM      2  C   LIG    1       26.267 -20.329   7.059  0.00  0.00    +0.179 C 
ATOM      3  C   LIG    1       25.633 -21.325   8.023  0.00  0.00    +0.202 C 
ATOM      4  C   LIG    1       26.246 -22.634   7.514  0.00  0.00    +0.293 C 
ATOM      5  O   LIG    1       27.615 -22.299   7.247  0.00  0.00    -0.340 OA
ENDROOT
BRANCH   2   6
ATOM      6  O   LIG    1       25.560 -20.377   5.809  0.00  0.00    -0.386 OA
ATOM      7  H   LIG    1       26.217 -20.469   5.091  0.00  0.00    +0.210 HD
ENDBRANCH   2   6
BRANCH   3   8
ATOM      8  O   LIG    1       24.208 -21.284   8.036  0.00  0.00    -0.384 OA
ATOM      9  H   LIG    1       23.909 -22.050   7.484  0.00  0.00    +0.210 HD
ENDBRANCH   3   8
BRANCH   1  10
ATOM     10  C   LIG    1       28.671 -20.234   7.903  0.00  0.00    +0.206 C 
BRANCH  10  11
ATOM     11  O   LIG    1       29.554 -21.226   8.410  0.00  0.00    -0.284 OA
BRANCH  11  13
ATOM     12  O   LIG    1       31.946 -21.783   9.351  0.00  0.00    -0.228 OA
ATOM     13  P   LIG    1       31.039 -20.755   8.770  0.00  0.00    +0.472 P 
BRANCH  13  14
ATOM     14  O   LIG    1       31.580 -20.130   7.407  0.00  0.00    -0.303 OA
ATOM     15  H   LIG    1       32.258 -20.700   7.003  0.00  0.00    +0.222 HD
ENDBRANCH  13  14
BRANCH  13  16
ATOM     16  O   LIG    1       30.843 -19.464   9.677  0.00  0.00    -0.303 OA
ATOM     17  H   LIG    1       31.243 -18.682   9.258  0.00  0.00    +0.222 HD
ENDBRANCH  13  16
ENDBRANCH  11  13
ENDBRANCH  10  11
ENDBRANCH   1  10
BRANCH   4  18
ATOM     18  O   LIG    1       25.694 -23.083   6.295  0.00  0.00    -0.254 OA
BRANCH  18  19
ATOM     19  P   LIG    1       24.740 -24.365   6.266  0.00  0.00    +0.486 P 
ATOM     20  O   LIG    1       23.335 -24.094   6.707  0.00  0.00    -0.227 OA
BRANCH  19  21
ATOM     21  O   LIG    1       24.749 -24.684   4.696  0.00  0.00    -0.302 OA
ATOM     22  H   LIG    1       25.403 -24.125   4.238  0.00  0.00    +0.222 HD
ENDBRANCH  19  21
BRANCH  19  23
ATOM     23  O   LIG    1       25.496 -25.594   6.897  0.00  0.00    -0.186 OA
BRANCH  23  24
ATOM     24  P   LIG    1       25.725 -27.020   6.243  0.00  0.00    +0.481 P 
ATOM     25  O   LIG    1       24.564 -27.646   5.561  0.00  0.00    -0.227 OA
BRANCH  24  26
ATOM     26  O   LIG    1       26.253 -27.897   7.472  0.00  0.00    -0.302 OA
ATOM     27  H   LIG    1       25.687 -28.675   7.613  0.00  0.00    +0.222 HD
ENDBRANCH  24  26
BRANCH  24  28
ATOM     28  O   LIG    1       27.030 -26.905   5.337  0.00  0.00    -0.302 OA
ATOM     29  H   LIG    1       27.839 -26.827   5.893  0.00  0.00    +0.222 HD
ENDBRANCH  24  28
ENDBRANCH  23  24
ENDBRANCH  19  23
ENDBRANCH  18  19
ENDBRANCH   4  18
TORSDOF 14
ENDMDL
MODEL 3
REMARK VINA RESULT:      -7.5      2.237      3.342
REMARK  Name = *****
REMARK                            x       y       z     vdW  Elec       q    Type
REMARK                         _______ _______ _______ _____ _____    ______ ____
ROOT
ATOM      1  C   LIG    1       28.914 -19.916   7.989  0.00  0.00    +0.179 C 
ATOM      2  C   LIG    1       28.975 -20.130   6.472  0.00  0.00    +0.179 C 
ATOM      3  C   LIG    1       27.550 -19.797   6.049  0.00  0.00    +0.202 C 
ATOM      4  C   LIG    1       26.763 -20.426   7.204  0.00  0.00    +0.293 C 
ATOM      5  O   LIG    1       27.521 -20.082   8.373  0.00  0.00    -0.340 OA
ENDROOT
BRANCH   2   6
ATOM      6  O   LIG    1       29.250 -21.501   6.142  0.00  0.00    -0.386 OA
ATOM      7  H   LIG    1       28.397 -21.954   5.985  0.00  0.00    +0.210 HD
ENDBRANCH   2   6
BRANCH   3   8
ATOM      8  O   LIG    1       27.209 -20.274   4.750  0.00  0.00    -0.384 OA
ATOM      9  H   LIG    1       28.051 -20.269   4.229  0.00  0.00    +0.210 HD
ENDBRANCH   3   8
BRANCH   1  10
ATOM     10  C   LIG    1       29.347 -18.509   8.404  0.00  0.00    +0.206 C 
BRANCH  10  11
ATOM     11  O   LIG    1       30.109 -18.585   9.602  0.00  0.00    -0.284 OA
BRANCH  11  13
ATOM     12  O   LIG    1       32.400 -17.719  10.560  0.00  0.00    -0.228 OA
ATOM     13  P   LIG    1       31.694 -18.433   9.460  0.00  0.00    +0.472 P 
BRANCH  13  14
ATOM     14  O   LIG    1       32.201 -19.930   9.247  0.00  0.00    -0.303 OA
ATOM     15  H   LIG    1       32.633 -20.272  10.051  0.00  0.00    +0.222 HD
ENDBRANCH  13  14
BRANCH  13  16
ATOM     16  O   LIG    1       31.910 -17.798   8.019  0.00  0.00    -0.303 OA
ATOM     17  H   LIG    1       31.492 -16.921   7.961  0.00  0.00    +0.222 HD
ENDBRANCH  13  16
ENDBRANCH  11  13
ENDBRANCH  10  11
ENDBRANCH   1  10
BRANCH   4  18
ATOM     18  O   LIG    1       26.713 -21.836   7.156  0.00  0.00    -0.254 OA
BRANCH  18  19
ATOM     19  P   LIG    1       25.341 -22.582   6.819  0.00  0.00    +0.486 P 
ATOM     20  O   LIG    1       24.165 -22.088   7.604  0.00  0.00    -0.227 OA
BRANCH  19  21
ATOM     21  O   LIG    1       25.165 -22.162   5.283  0.00  0.00    -0.302 OA
ATOM     22  H   LIG    1       25.307 -21.205   5.173  0.00  0.00    +0.222 HD
ENDBRANCH  19  21
BRANCH  19  23
ATOM     23  O   LIG    1       25.592 -24.135   6.751  0.00  0.00    -0.186 OA
BRANCH  23  24
ATOM     24  P   LIG    1       24.640 -25.236   6.120  0.00  0.00    +0.481 P 
ATOM     25  O   LIG    1       24.907 -26.650   6.484  0.00  0.00    -0.227 OA
BRANCH  24  26
ATOM     26  O   LIG    1       24.784 -24.976   4.549  0.00  0.00    -0.302 OA
ATOM     27  H   LIG    1       25.652 -25.272   4.225  0.00  0.00    +0.222 HD
ENDBRANCH  24  26
BRANCH  24  28
ATOM     28  O   LIG    1       23.145 -24.762   6.396  0.00  0.00    -0.302 OA
ATOM     29  H   LIG    1       23.131 -23.915   6.898  0.00  0.00    +0.222 HD
ENDBRANCH  24  28
ENDBRANCH  23  24
ENDBRANCH  19  23
ENDBRANCH  18  19
ENDBRANCH   4  18
TORSDOF 14
ENDMDL
MODEL 4
REMARK VINA RESULT:      -7.3      4.605      6.913
REMARK  Name = *****
REMARK                            x       y       z     vdW  Elec       q    Type
REMARK                         _______ _______ _______ _____ _____    ______ ____
ROOT
ATOM      1  C   LIG    1       25.556 -21.820   6.262  0.00  0.00    +0.179 C 
ATOM      2  C   LIG    1       24.055 -21.963   5.982  0.00  0.00    +0.179 C 
ATOM      3  C   LIG    1       23.678 -23.138   6.877  0.00  0.00    +0.202 C 
ATOM      4  C   LIG    1       24.908 -24.034   6.692  0.00  0.00    +0.293 C 
ATOM      5  O   LIG    1       26.015 -23.120   6.726  0.00  0.00    -0.340 OA
ENDROOT
BRANCH   2   6
ATOM      6  O   LIG    1       23.804 -22.321   4.613  0.00  0.00    -0.386 OA
ATOM      7  H   LIG    1       24.666 -22.451   4.170  0.00  0.00    +0.210 HD
ENDBRANCH   2   6
BRANCH   3   8
ATOM      8  O   LIG    1       22.430 -23.740   6.539  0.00  0.00    -0.384 OA
ATOM      9  H   LIG    1       21.771 -23.003   6.512  0.00  0.00    +0.210 HD
ENDBRANCH   3   8
BRANCH   1  10
ATOM     10  C   LIG    1       25.855 -20.802   7.364  0.00  0.00    +0.206 C 
BRANCH  10  11
ATOM     11  O   LIG    1       27.023 -20.068   7.022  0.00  0.00    -0.284 OA
BRANCH  11  13
ATOM     12  O   LIG    1       29.092 -19.402   8.503  0.00  0.00    -0.228 OA
ATOM     13  P   LIG    1       28.378 -20.480   7.763  0.00  0.00    +0.472 P 
BRANCH  13  14
ATOM     14  O   LIG    1       27.948 -21.706   8.687  0.00  0.00    -0.303 OA
ATOM     15  H   LIG    1       28.581 -22.443   8.610  0.00  0.00    +0.222 HD
ENDBRANCH  13  14
BRANCH  13  16
ATOM     16  O   LIG    1       29.250 -21.194   6.642  0.00  0.00    -0.303 OA
ATOM     17  H   LIG    1       29.965 -21.718   7.041  0.00  0.00    +0.222 HD
ENDBRANCH  13  16
ENDBRANCH  11  13
ENDBRANCH  10  11
ENDBRANCH   1  10
BRANCH   4  18
ATOM     18  O   LIG    1       24.956 -24.682   5.438  0.00  0.00    -0.254 OA
BRANCH  18  19
ATOM     19  P   LIG    1       25.417 -26.208   5.338  0.00  0.00    +0.486 P 
ATOM     20  O   LIG    1       26.021 -26.581   4.019  0.00  0.00    -0.227 OA
BRANCH  19  21
ATOM     21  O   LIG    1       26.555 -26.230   6.465  0.00  0.00    -0.302 OA
ATOM     22  H   LIG    1       26.385 -26.942   7.108  0.00  0.00    +0.222 HD
ENDBRANCH  19  21
BRANCH  19  23
ATOM     23  O   LIG    1       24.291 -27.135   5.931  0.00  0.00    -0.186 OA
BRANCH  23  24
ATOM     24  P   LIG    1       24.378 -28.694   6.211  0.00  0.00    +0.481 P 
ATOM     25  O   LIG    1       24.363 -29.129   7.630  0.00  0.00    -0.227 OA
BRANCH  24  26
ATOM     26  O   LIG    1       25.725 -29.118   5.460  0.00  0.00    -0.302 OA
ATOM     27  H   LIG    1       26.415 -28.442   5.575  0.00  0.00    +0.222 HD
ENDBRANCH  24  26
BRANCH  24  28
ATOM     28  O   LIG    1       23.266 -29.385   5.305  0.00  0.00    -0.302 OA
ATOM     29  H   LIG    1       22.368 -29.256   5.689  0.00  0.00    +0.222 HD
ENDBRANCH  24  28
ENDBRANCH  23  24
ENDBRANCH  19  23
ENDBRANCH  18  19
ENDBRANCH   4  18
TORSDOF 14
ENDMDL
MODEL 5
REMARK VINA RESULT:      -7.3      5.459      9.176
REMARK  Name = *****
REMARK                            x       y       z     vdW  Elec       q    Type
REMARK                         _______ _______ _______ _____ _____    ______ ____
ROOT
ATOM      1  C   LIG    1       24.901 -26.394   6.777  0.00  0.00    +0.179 C 
ATOM      2  C   LIG    1       24.149 -25.638   5.674  0.00  0.00    +0.179 C 
ATOM      3  C   LIG    1       25.216 -24.672   5.172  0.00  0.00    +0.202 C 
ATOM      4  C   LIG    1       25.883 -24.282   6.496  0.00  0.00    +0.293 C 
ATOM      5  O   LIG    1       25.975 -25.518   7.219  0.00  0.00    -0.340 OA
ENDROOT
BRANCH   2   6
ATOM      6  O   LIG    1       23.049 -24.882   6.206  0.00  0.00    -0.386 OA
ATOM      7  H   LIG    1       22.575 -25.446   6.849  0.00  0.00    +0.210 HD
ENDBRANCH   2   6
BRANCH   3   8
ATOM      8  O   LIG    1       24.694 -23.585   4.410  0.00  0.00    -0.384 OA
ATOM      9  H   LIG    1       25.373 -22.867   4.460  0.00  0.00    +0.210 HD
ENDBRANCH   3   8
BRANCH   1  10
ATOM     10  C   LIG    1       25.537 -27.691   6.274  0.00  0.00    +0.206 C 
BRANCH  10  11
ATOM     11  O   LIG    1       25.025 -28.787   7.021  0.00  0.00    -0.284 OA
BRANCH  11  13
ATOM     12  O   LIG    1       25.410 -30.788   5.358  0.00  0.00    -0.228 OA
ATOM     13  P   LIG    1       24.440 -30.019   6.187  0.00  0.00    +0.472 P 
BRANCH  13  14
ATOM     14  O   LIG    1       23.702 -30.905   7.287  0.00  0.00    -0.303 OA
ATOM     15  H   LIG    1       23.844 -31.856   7.126  0.00  0.00    +0.222 HD
ENDBRANCH  13  14
BRANCH  13  16
ATOM     16  O   LIG    1       23.219 -29.410   5.372  0.00  0.00    -0.303 OA
ATOM     17  H   LIG    1       23.133 -28.455   5.538  0.00  0.00    +0.222 HD
ENDBRANCH  13  16
ENDBRANCH  11  13
ENDBRANCH  10  11
ENDBRANCH   1  10
BRANCH   4  18
ATOM     18  O   LIG    1       25.107 -23.406   7.287  0.00  0.00    -0.254 OA
BRANCH  18  19
ATOM     19  P   LIG    1       25.618 -21.922   7.581  0.00  0.00    +0.486 P 
ATOM     20  O   LIG    1       26.402 -21.783   8.849  0.00  0.00    -0.227 OA
BRANCH  19  21
ATOM     21  O   LIG    1       26.595 -21.710   6.330  0.00  0.00    -0.302 OA
ATOM     22  H   LIG    1       26.722 -20.760   6.153  0.00  0.00    +0.222 HD
ENDBRANCH  19  21
BRANCH  19  23
ATOM     23  O   LIG    1       24.447 -20.903   7.313  0.00  0.00    -0.186 OA
BRANCH  23  24
ATOM     24  P   LIG    1       23.559 -20.782   6.005  0.00  0.00    +0.481 P 
ATOM     25  O   LIG    1       22.621 -19.633   5.928  0.00  0.00    -0.227 OA
BRANCH  24  26
ATOM     26  O   LIG    1       22.800 -22.189   5.957  0.00  0.00    -0.302 OA
ATOM     27  H   LIG    1       22.732 -22.578   6.846  0.00  0.00    +0.222 HD
ENDBRANCH  24  26
BRANCH  24  28
ATOM     28  O   LIG    1       24.550 -20.900   4.765  0.00  0.00    -0.302 OA
ATOM     29  H   LIG    1       25.380 -20.394   4.927  0.00  0.00    +0.222 HD
ENDBRANCH  24  28
ENDBRANCH  23  24
ENDBRANCH  19  23
ENDBRANCH  18  19
ENDBRANCH   4  18
TORSDOF 14
ENDMDL
MODEL 6
REMARK VINA RESULT:      -7.2      2.432      7.191
REMARK  Name = *****
REMARK                            x       y       z     vdW  Elec       q    Type
REMARK                         _______ _______ _______ _____ _____    ______ ____
ROOT
ATOM      1  C   LIG    1       26.728 -21.901   7.449  0.00  0.00    +0.179 C 
ATOM      2  C   LIG    1       26.932 -20.380   7.464  0.00  0.00    +0.179 C 
ATOM      3  C   LIG    1       28.222 -20.228   6.666  0.00  0.00    +0.202 C 
ATOM      4  C   LIG    1       29.012 -21.436   7.182  0.00  0.00    +0.293 C 
ATOM      5  O   LIG    1       28.041 -22.491   7.241  0.00  0.00    -0.340 OA
ENDROOT
BRANCH   2   6
ATOM      6  O   LIG    1       27.149 -19.889   8.796  0.00  0.00    -0.386 OA
ATOM      7  H   LIG    1       27.613 -20.583   9.305  0.00  0.00    +0.210 HD
ENDBRANCH   2   6
BRANCH   3   8
ATOM      8  O   LIG    1       28.859 -18.965   6.839  0.00  0.00    -0.384 OA
ATOM      9  H   LIG    1       28.150 -18.284   6.720  0.00  0.00    +0.210 HD
ENDBRANCH   3   8
BRANCH   1  10
ATOM     10  C   LIG    1       25.824 -22.363   6.304  0.00  0.00    +0.206 C 
BRANCH  10  11
ATOM     11  O   LIG    1       24.781 -23.174   6.827  0.00  0.00    -0.284 OA
BRANCH  11  13
ATOM     12  O   LIG    1       22.982 -21.586   7.906  0.00  0.00    -0.228 OA
ATOM     13  P   LIG    1       23.309 -22.550   6.818  0.00  0.00    +0.472 P 
BRANCH  13  14
ATOM     14  O   LIG    1       23.168 -21.930   5.357  0.00  0.00    -0.303 OA
ATOM     15  H   LIG    1       22.508 -21.214   5.341  0.00  0.00    +0.222 HD
ENDBRANCH  13  14
BRANCH  13  16
ATOM     16  O   LIG    1       22.339 -23.808   6.744  0.00  0.00    -0.303 OA
ATOM     17  H   LIG    1       22.336 -24.190   5.849  0.00  0.00    +0.222 HD
ENDBRANCH  13  16
ENDBRANCH  11  13
ENDBRANCH  10  11
ENDBRANCH   1  10
BRANCH   4  18
ATOM     18  O   LIG    1       29.511 -21.271   8.493  0.00  0.00    -0.254 OA
BRANCH  18  19
ATOM     19  P   LIG    1       31.077 -21.076   8.740  0.00  0.00    +0.486 P 
ATOM     20  O   LIG    1       31.830 -22.355   8.937  0.00  0.00    -0.227 OA
BRANCH  19  21
ATOM     21  O   LIG    1       31.501 -20.423   7.340  0.00  0.00    -0.302 OA
ATOM     22  H   LIG    1       32.470 -20.419   7.245  0.00  0.00    +0.222 HD
ENDBRANCH  19  21
BRANCH  19  23
ATOM     23  O   LIG    1       31.303 -19.911   9.775  0.00  0.00    -0.186 OA
BRANCH  23  24
ATOM     24  P   LIG    1       31.099 -18.357   9.533  0.00  0.00    +0.481 P 
ATOM     25  O   LIG    1       31.871 -17.738   8.426  0.00  0.00    -0.227 OA
BRANCH  24  26
ATOM     26  O   LIG    1       31.461 -17.723  10.956  0.00  0.00    -0.302 OA
ATOM     27  H   LIG    1       30.848 -17.002  11.182  0.00  0.00    +0.222 HD
ENDBRANCH  24  26
BRANCH  24  28
ATOM     28  O   LIG    1       29.528 -18.108   9.453  0.00  0.00    -0.302 OA
ATOM     29  H   LIG    1       29.323 -17.332   8.881  0.00  0.00    +0.222 HD
ENDBRANCH  24  28
ENDBRANCH  23  24
ENDBRANCH  19  23
ENDBRANCH  18  19
ENDBRANCH   4  18
TORSDOF 14
ENDMDL
MODEL 7
REMARK VINA RESULT:      -7.2      3.497      7.966
REMARK  Name = *****
REMARK                            x       y       z     vdW  Elec       q    Type
REMARK                         _______ _______ _______ _____ _____    ______ ____
ROOT
ATOM      1  C   LIG    1       24.411 -23.017   7.354  0.00  0.00    +0.179 C 
ATOM      2  C   LIG    1       24.367 -21.537   6.951  0.00  0.00    +0.179 C 
ATOM      3  C   LIG    1       25.517 -21.447   5.956  0.00  0.00    +0.202 C 
ATOM      4  C   LIG    1       26.546 -22.357   6.637  0.00  0.00    +0.293 C 
ATOM      5  O   LIG    1       25.771 -23.470   7.107  0.00  0.00    -0.340 OA
ENDROOT
BRANCH   2   6
ATOM      6  O   LIG    1       24.648 -20.677   8.067  0.00  0.00    -0.386 OA
ATOM      7  H   LIG    1       25.525 -20.918   8.424  0.00  0.00    +0.210 HD
ENDBRANCH   2   6
BRANCH   3   8
ATOM      8  O   LIG    1       25.956 -20.114   5.704  0.00  0.00    -0.384 OA
ATOM      9  H   LIG    1       25.616 -19.882   4.804  0.00  0.00    +0.210 HD
ENDBRANCH   3   8
BRANCH   1  10
ATOM     10  C   LIG    1       23.473 -23.885   6.514  0.00  0.00    +0.206 C 
BRANCH  10  11
ATOM     11  O   LIG    1       23.748 -25.256   6.767  0.00  0.00    -0.284 OA
BRANCH  11  13
ATOM     12  O   LIG    1       24.159 -27.359   5.242  0.00  0.00    -0.228 OA
ATOM     13  P   LIG    1       24.645 -26.024   5.689  0.00  0.00    +0.472 P 
BRANCH  13  14
ATOM     14  O   LIG    1       24.793 -24.972   4.501  0.00  0.00    -0.303 OA
ATOM     15  H   LIG    1       24.737 -25.411   3.633  0.00  0.00    +0.222 HD
ENDBRANCH  13  14
BRANCH  13  16
ATOM     16  O   LIG    1       26.106 -26.032   6.314  0.00  0.00    -0.303 OA
ATOM     17  H   LIG    1       26.599 -25.236   6.052  0.00  0.00    +0.222 HD
ENDBRANCH  13  16
ENDBRANCH  11  13
ENDBRANCH  10  11
ENDBRANCH   1  10
BRANCH   4  18
ATOM     18  O   LIG    1       27.154 -21.778   7.772  0.00  0.00    -0.254 OA
BRANCH  18  19
ATOM     19  P   LIG    1       28.509 -20.946   7.623  0.00  0.00    +0.486 P 
ATOM     20  O   LIG    1       28.871 -20.610   6.209  0.00  0.00    -0.227 OA
BRANCH  19  21
ATOM     21  O   LIG    1       28.099 -19.605   8.396  0.00  0.00    -0.302 OA
ATOM     22  H   LIG    1       27.345 -19.173   7.955  0.00  0.00    +0.222 HD
ENDBRANCH  19  21
BRANCH  19  23
ATOM     23  O   LIG    1       29.617 -21.581   8.545  0.00  0.00    -0.186 OA
BRANCH  23  24
ATOM     24  P   LIG    1       31.067 -21.010   8.837  0.00  0.00    +0.481 P 
ATOM     25  O   LIG    1       32.057 -21.946   9.427  0.00  0.00    -0.227 OA
BRANCH  24  26
ATOM     26  O   LIG    1       30.774 -19.757   9.787  0.00  0.00    -0.302 OA
ATOM     27  H   LIG    1       31.552 -19.175   9.846  0.00  0.00    +0.222 HD
ENDBRANCH  24  26
BRANCH  24  28
ATOM     28  O   LIG    1       31.558 -20.300   7.499  0.00  0.00    -0.302 OA
ATOM     29  H   LIG    1       32.027 -20.937   6.913  0.00  0.00    +0.222 HD
ENDBRANCH  24  28
ENDBRANCH  23  24
ENDBRANCH  19  23
ENDBRANCH  18  19
ENDBRANCH   4  18
TORSDOF 14
ENDMDL
MODEL 8
REMARK VINA RESULT:      -7.1      2.532      7.378
REMARK  Name = *****
REMARK                            x       y       z     vdW  Elec       q    Type
REMARK                         _______ _______ _______ _____ _____    ______ ____
ROOT
ATOM      1  C   LIG    1       26.777 -21.891   7.660  0.00  0.00    +0.179 C 
ATOM      2  C   LIG    1       26.963 -20.377   7.502  0.00  0.00    +0.179 C 
ATOM      3  C   LIG    1       28.224 -20.302   6.650  0.00  0.00    +0.202 C 
ATOM      4  C   LIG    1       29.046 -21.438   7.269  0.00  0.00    +0.293 C 
ATOM      5  O   LIG    1       28.090 -22.489   7.475  0.00  0.00    -0.340 OA
ENDROOT
BRANCH   2   6
ATOM      6  O   LIG    1       27.215 -19.740   8.765  0.00  0.00    -0.386 OA
ATOM      7  H   LIG    1       26.481 -19.966   9.371  0.00  0.00    +0.210 HD
ENDBRANCH   2   6
BRANCH   3   8
ATOM      8  O   LIG    1       28.851 -19.021   6.663  0.00  0.00    -0.384 OA
ATOM      9  H   LIG    1       29.280 -18.938   7.551  0.00  0.00    +0.210 HD
ENDBRANCH   3   8
BRANCH   1  10
ATOM     10  C   LIG    1       25.844 -22.484   6.603  0.00  0.00    +0.206 C 
BRANCH  10  11
ATOM     11  O   LIG    1       25.406 -23.768   7.028  0.00  0.00    -0.284 OA
BRANCH  11  13
ATOM     12  O   LIG    1       26.371 -25.834   5.717  0.00  0.00    -0.228 OA
ATOM     13  P   LIG    1       25.237 -24.885   5.897  0.00  0.00    +0.472 P 
BRANCH  13  14
ATOM     14  O   LIG    1       23.864 -25.602   6.275  0.00  0.00    -0.303 OA
ATOM     15  H   LIG    1       23.153 -25.346   5.659  0.00  0.00    +0.222 HD
ENDBRANCH  13  14
BRANCH  13  16
ATOM     16  O   LIG    1       24.844 -24.075   4.587  0.00  0.00    -0.303 OA
ATOM     17  H   LIG    1       24.402 -23.239   4.816  0.00  0.00    +0.222 HD
ENDBRANCH  13  16
ENDBRANCH  11  13
ENDBRANCH  10  11
ENDBRANCH   1  10
BRANCH   4  18
ATOM     18  O   LIG    1       29.583 -21.126   8.537  0.00  0.00    -0.254 OA
BRANCH  18  19
ATOM     19  P   LIG    1       31.159 -20.944   8.721  0.00  0.00    +0.486 P 
ATOM     20  O   LIG    1       31.913 -22.230   8.858  0.00  0.00    -0.227 OA
BRANCH  19  21
ATOM     21  O   LIG    1       31.527 -20.263   7.319  0.00  0.00    -0.302 OA
ATOM     22  H   LIG    1       32.038 -20.878   6.764  0.00  0.00    +0.222 HD
ENDBRANCH  19  21
BRANCH  19  23
ATOM     23  O   LIG    1       31.436 -19.802   9.770  0.00  0.00    -0.186 OA
BRANCH  23  24
ATOM     24  P   LIG    1       31.125 -18.255   9.612  0.00  0.00    +0.481 P 
ATOM     25  O   LIG    1       31.357 -17.393  10.798  0.00  0.00    -0.227 OA
BRANCH  24  26
ATOM     26  O   LIG    1       29.596 -18.244   9.142  0.00  0.00    -0.302 OA
ATOM     27  H   LIG    1       29.440 -18.908   8.448  0.00  0.00    +0.222 HD
ENDBRANCH  24  26
BRANCH  24  28
ATOM     28  O   LIG    1       31.876 -17.769   8.295  0.00  0.00    -0.302 OA
ATOM     29  H   LIG    1       32.829 -18.018   8.320  0.00  0.00    +0.222 HD
ENDBRANCH  24  28
ENDBRANCH  23  24
ENDBRANCH  19  23
ENDBRANCH  18  19
ENDBRANCH   4  18
TORSDOF 14
ENDMDL
MODEL 9
REMARK VINA RESULT:      -7.1      2.249      7.366
REMARK  Name = *****
REMARK                            x       y       z     vdW  Elec       q    Type
REMARK                         _______ _______ _______ _____ _____    ______ ____
ROOT
ATOM      1  C   LIG    1       25.887 -20.570   7.491  0.00  0.00    +0.179 C 
ATOM      2  C   LIG    1       26.877 -20.826   6.347  0.00  0.00    +0.179 C 
ATOM      3  C   LIG    1       28.055 -21.452   7.084  0.00  0.00    +0.202 C 
ATOM      4  C   LIG    1       28.066 -20.604   8.361  0.00  0.00    +0.293 C 
ATOM      5  O   LIG    1       26.679 -20.475   8.707  0.00  0.00    -0.340 OA
ENDROOT
BRANCH   2   6
ATOM      6  O   LIG    1       27.309 -19.598   5.737  0.00  0.00    -0.386 OA
ATOM      7  H   LIG    1       26.617 -18.924   5.889  0.00  0.00    +0.210 HD
ENDBRANCH   2   6
BRANCH   3   8
ATOM      8  O   LIG    1       29.270 -21.443   6.338  0.00  0.00    -0.384 OA
ATOM      9  H   LIG    1       29.767 -20.642   6.638  0.00  0.00    +0.210 HD
ENDBRANCH   3   8
BRANCH   1  10
ATOM     10  C   LIG    1       24.890 -21.716   7.674  0.00  0.00    +0.206 C 
BRANCH  10  11
ATOM     11  O   LIG    1       24.561 -22.260   6.402  0.00  0.00    -0.284 OA
BRANCH  11  13
ATOM     12  O   LIG    1       25.706 -24.527   7.088  0.00  0.00    -0.228 OA
ATOM     13  P   LIG    1       24.687 -23.845   6.241  0.00  0.00    +0.472 P 
BRANCH  13  14
ATOM     14  O   LIG    1       23.202 -24.371   6.488  0.00  0.00    -0.303 OA
ATOM     15  H   LIG    1       22.939 -24.256   7.418  0.00  0.00    +0.222 HD
ENDBRANCH  13  14
BRANCH  13  16
ATOM     16  O   LIG    1       24.871 -24.078   4.679  0.00  0.00    -0.303 OA
ATOM     17  H   LIG    1       25.544 -23.477   4.317  0.00  0.00    +0.222 HD
ENDBRANCH  13  16
ENDBRANCH  11  13
ENDBRANCH  10  11
ENDBRANCH   1  10
BRANCH   4  18
ATOM     18  O   LIG    1       28.560 -19.296   8.171  0.00  0.00    -0.254 OA
BRANCH  18  19
ATOM     19  P   LIG    1       30.134 -19.028   8.126  0.00  0.00    +0.486 P 
ATOM     20  O   LIG    1       30.970 -20.229   8.443  0.00  0.00    -0.227 OA
BRANCH  19  21
ATOM     21  O   LIG    1       30.308 -18.656   6.578  0.00  0.00    -0.302 OA
ATOM     22  H   LIG    1       29.835 -19.297   6.017  0.00  0.00    +0.222 HD
ENDBRANCH  19  21
BRANCH  19  23
ATOM     23  O   LIG    1       30.456 -17.677   8.869  0.00  0.00    -0.186 OA
BRANCH  23  24
ATOM     24  P   LIG    1       31.122 -17.501  10.297  0.00  0.00    +0.481 P 
ATOM     25  O   LIG    1       32.594 -17.311  10.340  0.00  0.00    -0.227 OA
BRANCH  24  26
ATOM     26  O   LIG    1       30.657 -18.819  11.074  0.00  0.00    -0.302 OA
ATOM     27  H   LIG    1       31.409 -19.417  11.226  0.00  0.00    +0.222 HD
ENDBRANCH  24  26
BRANCH  24  28
ATOM     28  O   LIG    1       30.296 -16.367  11.051  0.00  0.00    -0.302 OA
ATOM     29  H   LIG    1       30.275 -16.532  12.022  0.00  0.00    +0.222 HD
ENDBRANCH  24  28
ENDBRANCH  23  24
ENDBRANCH  19  23
ENDBRANCH  18  19
ENDBRANCH   4  18
TORSDOF 14
ENDMDL
