MODEL 1
REMARK VINA RESULT:      -8.2      0.000      0.000
REMARK  Name = *****
REMARK                            x       y       z     vdW  Elec       q    Type
REMARK                         _______ _______ _______ _____ _____    ______ ____
ROOT
ATOM      1  C   LIG    1       29.280 -19.938   6.718  0.00  0.00    +0.162 A 
ATOM      2  C   LIG    1       28.016 -19.800   6.175  0.00  0.00    +0.167 A 
ATOM      3  O   LIG    1       27.515 -19.179   5.062  0.00  0.00    -0.476 OA
ATOM      4  C   LIG    1       26.299 -19.925   4.758  0.00  0.00    +0.253 C 
ATOM      5  C   LIG    1       25.486 -20.119   6.031  0.00  0.00    +0.075 C 
ATOM      6  C   LIG    1       24.152 -21.311   5.855  0.00  0.00    +0.096 C 
ATOM      7  C   LIG    1       24.433 -22.777   7.132  0.00  0.00    +0.093 C 
ATOM      8  N   LIG    1       25.273 -23.678   6.461  0.00  0.00    -0.299 NA
ATOM      9  C   LIG    1       26.068 -22.514   6.170  0.00  0.00    +0.085 C 
ATOM     10  C   LIG    1       24.699 -24.439   5.381  0.00  0.00    +0.105 C 
ATOM     11  C   LIG    1       25.807 -22.545   8.489  0.00  0.00    +0.057 C 
ATOM     12  C   LIG    1       27.259 -21.531   8.030  0.00  0.00    -0.038 A 
ATOM     13  C   LIG    1       28.531 -21.640   8.515  0.00  0.00    +0.008 A 
ATOM     14  C   LIG    1       23.909 -21.497   4.332  0.00  0.00    +0.045 C 
ATOM     15  C   LIG    1       23.972 -20.130   3.599  0.00  0.00    +0.081 C 
ATOM     16  C   LIG    1       25.378 -20.907   7.152  0.00  0.00    +0.034 C 
ATOM     17  C   LIG    1       25.284 -19.347   3.775  0.00  0.00    +0.174 C 
ATOM     18  O   LIG    1       25.496 -18.324   3.122  0.00  0.00    -0.293 OA
ATOM     19  C   LIG    1       27.040 -20.492   6.820  0.00  0.00    +0.014 A 
ATOM     20  C   LIG    1       29.507 -20.827   7.856  0.00  0.00    +0.050 A 
ENDROOT
BRANCH   1  22
ATOM     21  C   LIG    1       31.466 -19.157   7.221  0.00  0.00    +0.277 C 
ATOM     22  O   LIG    1       30.429 -19.336   6.265  0.00  0.00    -0.491 OA
ENDBRANCH   1  22
BRANCH   6  23
ATOM     23  O   LIG    1       22.905 -20.658   6.270  0.00  0.00    -0.386 OA
ATOM     24  H   LIG    1       22.728 -19.945   5.630  0.00  0.00    +0.210 HD
ENDBRANCH   6  23
TORSDOF 2
ENDMDL
MODEL 2
REMARK VINA RESULT:      -6.4      7.196      9.505
REMARK  Name = *****
REMARK                            x       y       z     vdW  Elec       q    Type
REMARK                         _______ _______ _______ _____ _____    ______ ____
ROOT
ATOM      1  C   LIG    1       26.397 -29.451  10.980  0.00  0.00    +0.162 A 
ATOM      2  C   LIG    1       25.967 -28.985   9.751  0.00  0.00    +0.167 A 
ATOM      3  O   LIG    1       26.240 -27.873   9.000  0.00  0.00    -0.476 OA
ATOM      4  C   LIG    1       25.975 -28.298   7.630  0.00  0.00    +0.253 C 
ATOM      5  C   LIG    1       24.639 -29.027   7.570  0.00  0.00    +0.075 C 
ATOM      6  C   LIG    1       24.366 -29.895   6.019  0.00  0.00    +0.096 C 
ATOM      7  C   LIG    1       24.137 -31.809   6.392  0.00  0.00    +0.093 C 
ATOM      8  N   LIG    1       25.440 -32.329   6.407  0.00  0.00    -0.299 NA
ATOM      9  C   LIG    1       25.726 -31.225   7.284  0.00  0.00    +0.085 C 
ATOM     10  C   LIG    1       26.125 -32.435   5.144  0.00  0.00    +0.105 C 
ATOM     11  C   LIG    1       23.924 -32.352   8.247  0.00  0.00    +0.057 C 
ATOM     12  C   LIG    1       24.784 -31.341   9.507  0.00  0.00    -0.038 A 
ATOM     13  C   LIG    1       25.251 -31.755  10.722  0.00  0.00    +0.008 A 
ATOM     14  C   LIG    1       25.370 -29.306   4.989  0.00  0.00    +0.045 C 
ATOM     15  C   LIG    1       25.456 -27.763   5.131  0.00  0.00    +0.081 C 
ATOM     16  C   LIG    1       24.048 -30.248   7.786  0.00  0.00    +0.034 C 
ATOM     17  C   LIG    1       25.857 -27.251   6.525  0.00  0.00    +0.174 C 
ATOM     18  O   LIG    1       26.097 -26.057   6.709  0.00  0.00    -0.293 OA
ATOM     19  C   LIG    1       25.153 -29.835   9.072  0.00  0.00    +0.014 A 
ATOM     20  C   LIG    1       26.033 -30.792  11.436  0.00  0.00    +0.050 A 
ENDROOT
BRANCH   1  22
ATOM     21  C   LIG    1       26.673 -27.602  12.444  0.00  0.00    +0.277 C 
ATOM     22  O   LIG    1       27.211 -28.783  11.862  0.00  0.00    -0.491 OA
ENDBRANCH   1  22
BRANCH   6  23
ATOM     23  O   LIG    1       23.085 -29.442   5.467  0.00  0.00    -0.386 OA
ATOM     24  H   LIG    1       22.381 -29.898   5.964  0.00  0.00    +0.210 HD
ENDBRANCH   6  23
TORSDOF 2
ENDMDL
MODEL 3
REMARK VINA RESULT:      -6.2      7.483     10.203
REMARK  Name = *****
REMARK                            x       y       z     vdW  Elec       q    Type
REMARK                         _______ _______ _______ _____ _____    ______ ____
ROOT
ATOM      1  C   LIG    1       25.578 -27.279   6.834  0.00  0.00    +0.162 A 
ATOM      2  C   LIG    1       25.948 -28.079   7.900  0.00  0.00    +0.167 A 
ATOM      3  O   LIG    1       26.607 -27.857   9.079  0.00  0.00    -0.476 OA
ATOM      4  C   LIG    1       26.114 -28.907   9.963  0.00  0.00    +0.253 C 
ATOM      5  C   LIG    1       26.149 -30.245   9.238  0.00  0.00    +0.075 C 
ATOM      6  C   LIG    1       25.250 -31.547  10.091  0.00  0.00    +0.096 C 
ATOM      7  C   LIG    1       23.817 -32.205   8.920  0.00  0.00    +0.093 C 
ATOM      8  N   LIG    1       22.733 -31.349   9.167  0.00  0.00    -0.299 NA
ATOM      9  C   LIG    1       23.694 -30.295   8.980  0.00  0.00    +0.085 C 
ATOM     10  C   LIG    1       22.057 -31.485  10.433  0.00  0.00    +0.105 C 
ATOM     11  C   LIG    1       23.823 -31.622   7.065  0.00  0.00    +0.057 C 
ATOM     12  C   LIG    1       24.496 -29.955   6.725  0.00  0.00    -0.038 A 
ATOM     13  C   LIG    1       24.150 -29.115   5.705  0.00  0.00    +0.008 A 
ATOM     14  C   LIG    1       25.049 -31.071  11.557  0.00  0.00    +0.045 C 
ATOM     15  C   LIG    1       26.338 -30.395  12.093  0.00  0.00    +0.081 C 
ATOM     16  C   LIG    1       25.451 -31.026   8.349  0.00  0.00    +0.034 C 
ATOM     17  C   LIG    1       26.843 -29.194  11.273  0.00  0.00    +0.174 C 
ATOM     18  O   LIG    1       27.770 -28.498  11.688  0.00  0.00    -0.293 OA
ATOM     19  C   LIG    1       25.502 -29.360   7.833  0.00  0.00    +0.014 A 
ATOM     20  C   LIG    1       24.714 -27.802   5.777  0.00  0.00    +0.050 A 
ENDROOT
BRANCH   1  22
ATOM     21  C   LIG    1       25.457 -25.351   5.452  0.00  0.00    +0.277 C 
ATOM     22  O   LIG    1       25.911 -25.958   6.656  0.00  0.00    -0.491 OA
ENDBRANCH   1  22
BRANCH   6  23
ATOM     23  O   LIG    1       26.162 -32.680  10.276  0.00  0.00    -0.386 OA
ATOM     24  H   LIG    1       25.822 -33.203  11.025  0.00  0.00    +0.210 HD
ENDBRANCH   6  23
TORSDOF 2
ENDMDL
MODEL 4
REMARK VINA RESULT:      -5.3      9.477     11.427
REMARK  Name = *****
REMARK                            x       y       z     vdW  Elec       q    Type
REMARK                         _______ _______ _______ _____ _____    ______ ____
ROOT
ATOM      1  C   LIG    1       21.460 -27.143  13.237  0.00  0.00    +0.162 A 
ATOM      2  C   LIG    1       22.798 -26.794  13.236  0.00  0.00    +0.167 A 
ATOM      3  O   LIG    1       23.497 -25.684  13.629  0.00  0.00    -0.476 OA
ATOM      4  C   LIG    1       24.827 -26.196  13.941  0.00  0.00    +0.253 C 
ATOM      5  C   LIG    1       25.298 -27.114  12.822  0.00  0.00    +0.075 C 
ATOM      6  C   LIG    1       26.758 -28.072  13.247  0.00  0.00    +0.096 C 
ATOM      7  C   LIG    1       26.323 -29.984  13.131  0.00  0.00    +0.093 C 
ATOM      8  N   LIG    1       25.793 -30.306  14.390  0.00  0.00    -0.299 NA
ATOM      9  C   LIG    1       24.975 -29.139  14.197  0.00  0.00    +0.085 C 
ATOM     10  C   LIG    1       26.711 -30.360  15.500  0.00  0.00    +0.105 C 
ATOM     11  C   LIG    1       24.627 -30.479  12.318  0.00  0.00    +0.057 C 
ATOM     12  C   LIG    1       23.238 -29.305  12.523  0.00  0.00    -0.038 A 
ATOM     13  C   LIG    1       21.905 -29.598  12.556  0.00  0.00    +0.008 A 
ATOM     14  C   LIG    1       27.407 -27.384  14.480  0.00  0.00    +0.045 C 
ATOM     15  C   LIG    1       27.383 -25.841  14.319  0.00  0.00    +0.081 C 
ATOM     16  C   LIG    1       25.200 -28.399  12.346  0.00  0.00    +0.034 C 
ATOM     17  C   LIG    1       25.990 -25.221  14.113  0.00  0.00    +0.174 C 
ATOM     18  O   LIG    1       25.840 -23.999  14.120  0.00  0.00    -0.293 OA
ATOM     19  C   LIG    1       23.645 -27.780  12.840  0.00  0.00    +0.014 A 
ATOM     20  C   LIG    1       21.048 -28.504  12.897  0.00  0.00    +0.050 A 
ENDROOT
BRANCH   1  22
ATOM     21  C   LIG    1       19.531 -26.823  14.585  0.00  0.00    +0.277 C 
ATOM     22  O   LIG    1       20.409 -26.330  13.580  0.00  0.00    -0.491 OA
ENDBRANCH   1  22
BRANCH   6  23
ATOM     23  O   LIG    1       27.772 -27.833  12.214  0.00  0.00    -0.386 OA
ATOM     24  H   LIG    1       27.337 -27.956  11.351  0.00  0.00    +0.210 HD
ENDBRANCH   6  23
TORSDOF 2
ENDMDL
MODEL 5
REMARK VINA RESULT:      -5.3      2.649      5.276
REMARK  Name = *****
REMARK                            x       y       z     vdW  Elec       q    Type
REMARK                         _______ _______ _______ _____ _____    ______ ____
ROOT
ATOM      1  C   LIG    1       25.813 -25.963   6.013  0.00  0.00    +0.162 A 
ATOM      2  C   LIG    1       26.180 -24.738   6.537  0.00  0.00    +0.167 A 
ATOM      3  O   LIG    1       27.374 -24.095   6.723  0.00  0.00    -0.476 OA
ATOM      4  C   LIG    1       27.020 -22.680   6.713  0.00  0.00    +0.253 C 
ATOM      5  C   LIG    1       25.811 -22.449   7.609  0.00  0.00    +0.075 C 
ATOM      6  C   LIG    1       25.071 -20.822   7.410  0.00  0.00    +0.096 C 
ATOM      7  C   LIG    1       23.208 -21.036   6.827  0.00  0.00    +0.093 C 
ATOM      8  N   LIG    1       23.281 -21.131   5.429  0.00  0.00    -0.299 NA
ATOM      9  C   LIG    1       24.308 -22.106   5.681  0.00  0.00    +0.085 C 
ATOM     10  C   LIG    1       23.599 -19.929   4.700  0.00  0.00    +0.105 C 
ATOM     11  C   LIG    1       22.441 -22.822   6.883  0.00  0.00    +0.057 C 
ATOM     12  C   LIG    1       23.583 -24.222   6.598  0.00  0.00    -0.038 A 
ATOM     13  C   LIG    1       23.280 -25.442   6.062  0.00  0.00    +0.008 A 
ATOM     14  C   LIG    1       26.126 -19.930   6.699  0.00  0.00    +0.045 C 
ATOM     15  C   LIG    1       27.541 -20.189   7.281  0.00  0.00    +0.081 C 
ATOM     16  C   LIG    1       24.439 -22.524   7.638  0.00  0.00    +0.034 C 
ATOM     17  C   LIG    1       28.030 -21.646   7.206  0.00  0.00    +0.174 C 
ATOM     18  O   LIG    1       29.189 -21.935   7.504  0.00  0.00    -0.293 OA
ATOM     19  C   LIG    1       25.142 -23.930   6.879  0.00  0.00    +0.014 A 
ATOM     20  C   LIG    1       24.404 -26.288   5.799  0.00  0.00    +0.050 A 
ENDROOT
BRANCH   1  22
ATOM     21  C   LIG    1       26.059 -28.118   5.045  0.00  0.00    +0.277 C 
ATOM     22  O   LIG    1       26.665 -26.960   5.605  0.00  0.00    -0.491 OA
ENDBRANCH   1  22
BRANCH   6  23
ATOM     23  O   LIG    1       25.003 -20.192   8.733  0.00  0.00    -0.386 OA
ATOM     24  H   LIG    1       24.091 -20.307   9.059  0.00  0.00    +0.210 HD
ENDBRANCH   6  23
TORSDOF 2
ENDMDL
