MODEL 1
REMARK VINA RESULT:      -3.3      0.000      0.000
REMARK  Name = *****
REMARK                            x       y       z     vdW  Elec       q    Type
REMARK                         _______ _______ _______ _____ _____    ______ ____
ROOT
ATOM      1  C   LIG    1       23.591 -20.135   4.805  0.00  0.00    +0.127 C 
ATOM      2  C   LIG    1       24.670 -20.955   4.101  0.00  0.00    +0.234 C 
ATOM      3  O   LIG    1       24.582 -21.364   2.946  0.00  0.00    -0.274 OA
ATOM      4  N   LIG    1       25.830 -21.130   4.793  0.00  0.00    -0.266 N 
ATOM      5  H   LIG    1       26.609 -21.557   4.309  0.00  0.00    +0.157 HD
ATOM      6  C   LIG    1       25.947 -20.814   6.098  0.00  0.00    +0.150 C 
ATOM      7  N   LIG    1       24.990 -20.416   6.855  0.00  0.00    -0.158 NA
ATOM      8  C   LIG    1       23.726 -20.360   6.320  0.00  0.00    +0.254 C 
ATOM      9  O   LIG    1       22.736 -20.415   7.052  0.00  0.00    -0.273 OA
ENDROOT
BRANCH   1  10
ATOM     10  C   LIG    1       23.849 -18.591   4.505  0.00  0.00    +0.010 C 
ATOM     11  C   LIG    1       22.550 -17.766   4.410  0.00  0.00    +0.009 C 
BRANCH  10  12
ATOM     12  C   LIG    1       24.702 -18.348   3.224  0.00  0.00    +0.004 C 
BRANCH  12  14
ATOM     13  C   LIG    1       26.015 -16.180   3.227  0.00  0.00    +0.004 C 
ATOM     14  C   LIG    1       26.054 -17.677   3.497  0.00  0.00    -0.003 C 
ENDBRANCH  12  14
ENDBRANCH  10  12
ENDBRANCH   1  10
BRANCH   1  15
ATOM     15  C   LIG    1       22.190 -20.588   4.309  0.00  0.00    +0.022 C 
ATOM     16  C   LIG    1       21.449 -21.566   5.223  0.00  0.00    +0.005 C 
ENDBRANCH   1  15
BRANCH   6  17
ATOM     17  S   LIG    1       27.556 -20.977   6.707  0.00  0.00    -0.110 S 
ATOM     18  H   LIG    1       27.218 -21.760   7.742  0.00  0.00    +0.110 HD
ENDBRANCH   6  17
TORSDOF 5
ENDMDL
MODEL 2
REMARK VINA RESULT:      -3.0      5.032      7.235
REMARK  Name = *****
REMARK                            x       y       z     vdW  Elec       q    Type
REMARK                         _______ _______ _______ _____ _____    ______ ____
ROOT
ATOM      1  C   LIG    1       24.923 -13.788   3.511  0.00  0.00    +0.127 C 
ATOM      2  C   LIG    1       24.890 -12.756   4.636  0.00  0.00    +0.234 C 
ATOM      3  O   LIG    1       23.897 -12.101   4.942  0.00  0.00    -0.274 OA
ATOM      4  N   LIG    1       26.020 -12.664   5.391  0.00  0.00    -0.266 N 
ATOM      5  H   LIG    1       25.988 -12.084   6.220  0.00  0.00    +0.157 HD
ATOM      6  C   LIG    1       27.175 -13.260   5.039  0.00  0.00    +0.150 C 
ATOM      7  N   LIG    1       27.382 -13.887   3.938  0.00  0.00    -0.158 NA
ATOM      8  C   LIG    1       26.372 -13.907   3.008  0.00  0.00    +0.254 C 
ATOM      9  O   LIG    1       26.625 -14.089   1.816  0.00  0.00    -0.273 OA
ENDROOT
BRANCH   1  10
ATOM     10  C   LIG    1       24.484 -15.201   4.104  0.00  0.00    +0.010 C 
ATOM     11  C   LIG    1       25.181 -16.391   3.415  0.00  0.00    +0.009 C 
BRANCH  10  12
ATOM     12  C   LIG    1       22.943 -15.426   4.075  0.00  0.00    +0.004 C 
BRANCH  12  14
ATOM     13  C   LIG    1       22.140 -17.789   4.522  0.00  0.00    +0.004 C 
ATOM     14  C   LIG    1       22.442 -16.426   5.127  0.00  0.00    -0.003 C 
ENDBRANCH  12  14
ENDBRANCH  10  12
ENDBRANCH   1  10
BRANCH   1  15
ATOM     15  C   LIG    1       23.983 -13.332   2.362  0.00  0.00    +0.022 C 
ATOM     16  C   LIG    1       24.242 -11.928   1.812  0.00  0.00    +0.005 C 
ENDBRANCH   1  15
BRANCH   6  17
ATOM     17  S   LIG    1       28.414 -13.130   6.236  0.00  0.00    -0.110 S 
ATOM     18  H   LIG    1       29.024 -12.077   5.670  0.00  0.00    +0.110 HD
ENDBRANCH   6  17
TORSDOF 5
ENDMDL
MODEL 3
REMARK VINA RESULT:      -2.5      0.972      1.802
REMARK  Name = *****
REMARK                            x       y       z     vdW  Elec       q    Type
REMARK                         _______ _______ _______ _____ _____    ______ ____
ROOT
ATOM      1  C   LIG    1       23.213 -20.282   4.690  0.00  0.00    +0.127 C 
ATOM      2  C   LIG    1       24.299 -21.017   3.908  0.00  0.00    +0.234 C 
ATOM      3  O   LIG    1       24.116 -21.572   2.827  0.00  0.00    -0.274 OA
ATOM      4  N   LIG    1       25.558 -20.939   4.422  0.00  0.00    -0.266 N 
ATOM      5  H   LIG    1       26.319 -21.305   3.865  0.00  0.00    +0.157 HD
ATOM      6  C   LIG    1       25.806 -20.454   5.655  0.00  0.00    +0.150 C 
ATOM      7  N   LIG    1       24.914 -20.108   6.511  0.00  0.00    -0.158 NA
ATOM      8  C   LIG    1       23.595 -20.300   6.180  0.00  0.00    +0.254 C 
ATOM      9  O   LIG    1       22.741 -20.408   7.060  0.00  0.00    -0.273 OA
ENDROOT
BRANCH   1  10
ATOM     10  C   LIG    1       23.175 -18.765   4.204  0.00  0.00    +0.010 C 
ATOM     11  C   LIG    1       24.530 -18.266   3.662  0.00  0.00    +0.009 C 
BRANCH  10  12
ATOM     12  C   LIG    1       22.672 -17.780   5.302  0.00  0.00    +0.004 C 
BRANCH  12  14
ATOM     13  C   LIG    1       23.019 -15.333   4.737  0.00  0.00    +0.004 C 
ATOM     14  C   LIG    1       22.040 -16.498   4.743  0.00  0.00    -0.003 C 
ENDBRANCH  12  14
ENDBRANCH  10  12
ENDBRANCH   1  10
BRANCH   1  15
ATOM     15  C   LIG    1       21.848 -20.988   4.469  0.00  0.00    +0.022 C 
ATOM     16  C   LIG    1       20.689 -20.077   4.058  0.00  0.00    +0.005 C 
ENDBRANCH   1  15
BRANCH   6  17
ATOM     17  S   LIG    1       27.490 -20.309   6.014  0.00  0.00    -0.110 S 
ATOM     18  H   LIG    1       27.649 -19.131   5.391  0.00  0.00    +0.110 HD
ENDBRANCH   6  17
TORSDOF 5
ENDMDL
MODEL 4
REMARK VINA RESULT:      -2.1      5.319      7.135
REMARK  Name = *****
REMARK                            x       y       z     vdW  Elec       q    Type
REMARK                         _______ _______ _______ _____ _____    ______ ____
ROOT
ATOM      1  C   LIG    1       26.082 -14.576   3.817  0.00  0.00    +0.127 C 
ATOM      2  C   LIG    1       26.479 -13.952   2.481  0.00  0.00    +0.234 C 
ATOM      3  O   LIG    1       27.445 -14.312   1.812  0.00  0.00    -0.274 OA
ATOM      4  N   LIG    1       25.624 -13.016   1.984  0.00  0.00    -0.266 N 
ATOM      5  H   LIG    1       25.789 -12.677   1.045  0.00  0.00    +0.157 HD
ATOM      6  C   LIG    1       24.621 -12.493   2.716  0.00  0.00    +0.150 C 
ATOM      7  N   LIG    1       24.408 -12.726   3.960  0.00  0.00    -0.158 NA
ATOM      8  C   LIG    1       25.305 -13.524   4.628  0.00  0.00    +0.254 C 
ATOM      9  O   LIG    1       25.422 -13.442   5.852  0.00  0.00    -0.273 OA
ENDROOT
BRANCH   1  10
ATOM     10  C   LIG    1       25.108 -15.806   3.535  0.00  0.00    +0.010 C 
ATOM     11  C   LIG    1       23.895 -15.850   4.485  0.00  0.00    +0.009 C 
BRANCH  10  12
ATOM     12  C   LIG    1       25.834 -17.184   3.570  0.00  0.00    +0.004 C 
BRANCH  12  14
ATOM     13  C   LIG    1       25.450 -19.662   3.942  0.00  0.00    +0.004 C 
ATOM     14  C   LIG    1       24.905 -18.381   3.328  0.00  0.00    -0.003 C 
ENDBRANCH  12  14
ENDBRANCH  10  12
ENDBRANCH   1  10
BRANCH   1  15
ATOM     15  C   LIG    1       27.358 -15.020   4.582  0.00  0.00    +0.022 C 
ATOM     16  C   LIG    1       28.445 -13.954   4.731  0.00  0.00    +0.005 C 
ENDBRANCH   1  15
BRANCH   6  17
ATOM     17  S   LIG    1       23.580 -11.448   1.815  0.00  0.00    -0.110 S 
ATOM     18  H   LIG    1       23.387 -12.308   0.803  0.00  0.00    +0.110 HD
ENDBRANCH   6  17
TORSDOF 5
ENDMDL
MODEL 5
REMARK VINA RESULT:      -2.1      4.612      6.396
REMARK  Name = *****
REMARK                            x       y       z     vdW  Elec       q    Type
REMARK                         _______ _______ _______ _____ _____    ______ ____
ROOT
ATOM      1  C   LIG    1       25.336 -13.990   3.774  0.00  0.00    +0.127 C 
ATOM      2  C   LIG    1       26.269 -14.698   2.794  0.00  0.00    +0.234 C 
ATOM      3  O   LIG    1       27.086 -14.122   2.081  0.00  0.00    -0.274 OA
ATOM      4  N   LIG    1       26.237 -16.059   2.822  0.00  0.00    -0.266 N 
ATOM      5  H   LIG    1       26.930 -16.559   2.280  0.00  0.00    +0.157 HD
ATOM      6  C   LIG    1       25.288 -16.746   3.487  0.00  0.00    +0.150 C 
ATOM      7  N   LIG    1       24.272 -16.229   4.077  0.00  0.00    -0.158 NA
ATOM      8  C   LIG    1       24.092 -14.871   3.978  0.00  0.00    +0.254 C 
ATOM      9  O   LIG    1       22.972 -14.378   4.125  0.00  0.00    -0.273 OA
ENDROOT
BRANCH   1  10
ATOM     10  C   LIG    1       26.082 -13.848   5.175  0.00  0.00    +0.010 C 
ATOM     11  C   LIG    1       25.750 -12.533   5.909  0.00  0.00    +0.009 C 
BRANCH  10  12
ATOM     12  C   LIG    1       27.629 -13.993   5.065  0.00  0.00    +0.004 C 
BRANCH  12  14
ATOM     13  C   LIG    1       29.198 -12.393   3.880  0.00  0.00    +0.004 C 
ATOM     14  C   LIG    1       28.385 -12.659   5.138  0.00  0.00    -0.003 C 
ENDBRANCH  12  14
ENDBRANCH  10  12
ENDBRANCH   1  10
BRANCH   1  15
ATOM     15  C   LIG    1       24.933 -12.605   3.197  0.00  0.00    +0.022 C 
ATOM     16  C   LIG    1       24.284 -12.628   1.812  0.00  0.00    +0.005 C 
ENDBRANCH   1  15
BRANCH   6  17
ATOM     17  S   LIG    1       25.555 -18.453   3.505  0.00  0.00    -0.110 S 
ATOM     18  H   LIG    1       26.744 -18.387   4.123  0.00  0.00    +0.110 HD
ENDBRANCH   6  17
TORSDOF 5
ENDMDL
MODEL 6
REMARK VINA RESULT:      -1.7      1.635      2.287
REMARK  Name = *****
REMARK                            x       y       z     vdW  Elec       q    Type
REMARK                         _______ _______ _______ _____ _____    ______ ____
ROOT
ATOM      1  C   LIG    1       23.809 -20.516   4.724  0.00  0.00    +0.127 C 
ATOM      2  C   LIG    1       24.999 -20.612   3.771  0.00  0.00    +0.234 C 
ATOM      3  O   LIG    1       24.899 -20.792   2.559  0.00  0.00    -0.274 OA
ATOM      4  N   LIG    1       26.221 -20.372   4.320  0.00  0.00    -0.266 N 
ATOM      5  H   LIG    1       27.014 -20.302   3.695  0.00  0.00    +0.157 HD
ATOM      6  C   LIG    1       26.412 -20.289   5.651  0.00  0.00    +0.150 C 
ATOM      7  N   LIG    1       25.519 -20.515   6.545  0.00  0.00    -0.158 NA
ATOM      8  C   LIG    1       24.281 -20.937   6.127  0.00  0.00    +0.254 C 
ATOM      9  O   LIG    1       23.547 -21.569   6.888  0.00  0.00    -0.273 OA
ENDROOT
BRANCH   1  10
ATOM     10  C   LIG    1       23.334 -18.997   4.793  0.00  0.00    +0.010 C 
ATOM     11  C   LIG    1       22.514 -18.674   6.058  0.00  0.00    +0.009 C 
BRANCH  10  12
ATOM     12  C   LIG    1       22.530 -18.548   3.536  0.00  0.00    +0.004 C 
BRANCH  12  14
ATOM     13  C   LIG    1       20.031 -18.637   3.121  0.00  0.00    +0.004 C 
ATOM     14  C   LIG    1       21.160 -17.936   3.861  0.00  0.00    -0.003 C 
ENDBRANCH  12  14
ENDBRANCH  10  12
ENDBRANCH   1  10
BRANCH   1  15
ATOM     15  C   LIG    1       22.672 -21.451   4.229  0.00  0.00    +0.022 C 
ATOM     16  C   LIG    1       21.452 -21.553   5.147  0.00  0.00    +0.005 C 
ENDBRANCH   1  15
BRANCH   6  17
ATOM     17  S   LIG    1       28.015 -19.819   6.092  0.00  0.00    -0.110 S 
ATOM     18  H   LIG    1       28.542 -21.048   5.973  0.00  0.00    +0.110 HD
ENDBRANCH   6  17
TORSDOF 5
ENDMDL
MODEL 7
REMARK VINA RESULT:      -1.2      5.686      7.264
REMARK  Name = *****
REMARK                            x       y       z     vdW  Elec       q    Type
REMARK                         _______ _______ _______ _____ _____    ______ ____
ROOT
ATOM      1  C   LIG    1       26.675 -13.354   3.400  0.00  0.00    +0.127 C 
ATOM      2  C   LIG    1       28.120 -13.705   3.749  0.00  0.00    +0.234 C 
ATOM      3  O   LIG    1       29.022 -12.879   3.862  0.00  0.00    -0.274 OA
ATOM      4  N   LIG    1       28.357 -15.012   4.050  0.00  0.00    -0.266 N 
ATOM      5  H   LIG    1       29.272 -15.255   4.408  0.00  0.00    +0.157 HD
ATOM      6  C   LIG    1       27.447 -15.981   3.830  0.00  0.00    +0.150 C 
ATOM      7  N   LIG    1       26.319 -15.822   3.240  0.00  0.00    -0.158 NA
ATOM      8  C   LIG    1       26.029 -14.580   2.731  0.00  0.00    +0.254 C 
ATOM      9  O   LIG    1       25.216 -14.456   1.813  0.00  0.00    -0.273 OA
ENDROOT
BRANCH   1  10
ATOM     10  C   LIG    1       25.885 -13.050   4.750  0.00  0.00    +0.010 C 
ATOM     11  C   LIG    1       26.696 -13.388   6.017  0.00  0.00    +0.009 C 
BRANCH  10  12
ATOM     12  C   LIG    1       24.501 -13.761   4.826  0.00  0.00    +0.004 C 
BRANCH  12  14
ATOM     13  C   LIG    1       23.534 -11.447   5.191  0.00  0.00    +0.004 C 
ATOM     14  C   LIG    1       23.308 -12.826   4.588  0.00  0.00    -0.003 C 
ENDBRANCH  12  14
ENDBRANCH  10  12
ENDBRANCH   1  10
BRANCH   1  15
ATOM     15  C   LIG    1       26.656 -12.135   2.438  0.00  0.00    +0.022 C 
ATOM     16  C   LIG    1       25.269 -11.624   2.044  0.00  0.00    +0.005 C 
ENDBRANCH   1  15
BRANCH   6  17
ATOM     17  S   LIG    1       27.922 -17.526   4.443  0.00  0.00    -0.110 S 
ATOM     18  H   LIG    1       28.070 -17.116   5.712  0.00  0.00    +0.110 HD
ENDBRANCH   6  17
TORSDOF 5
ENDMDL
MODEL 8
REMARK VINA RESULT:      -1.1      5.148      7.217
REMARK  Name = *****
REMARK                            x       y       z     vdW  Elec       q    Type
REMARK                         _______ _______ _______ _____ _____    ______ ____
ROOT
ATOM      1  C   LIG    1       24.995 -13.768   4.136  0.00  0.00    +0.127 C 
ATOM      2  C   LIG    1       25.897 -13.214   5.236  0.00  0.00    +0.234 C 
ATOM      3  O   LIG    1       25.510 -12.935   6.369  0.00  0.00    -0.274 OA
ATOM      4  N   LIG    1       27.223 -13.140   4.937  0.00  0.00    -0.266 N 
ATOM      5  H   LIG    1       27.863 -12.898   5.683  0.00  0.00    +0.157 HD
ATOM      6  C   LIG    1       27.693 -13.314   3.686  0.00  0.00    +0.150 C 
ATOM      7  N   LIG    1       26.971 -13.468   2.636  0.00  0.00    -0.158 NA
ATOM      8  C   LIG    1       25.607 -13.390   2.776  0.00  0.00    +0.254 C 
ATOM      9  O   LIG    1       24.897 -13.097   1.812  0.00  0.00    -0.273 OA
ENDROOT
BRANCH   1  10
ATOM     10  C   LIG    1       24.975 -15.358   4.248  0.00  0.00    +0.010 C 
ATOM     11  C   LIG    1       25.896 -16.051   3.224  0.00  0.00    +0.009 C 
BRANCH  10  12
ATOM     12  C   LIG    1       23.543 -15.963   4.136  0.00  0.00    +0.004 C 
BRANCH  12  14
ATOM     13  C   LIG    1       22.405 -18.178   4.610  0.00  0.00    +0.004 C 
ATOM     14  C   LIG    1       23.527 -17.473   3.861  0.00  0.00    -0.003 C 
ENDBRANCH  12  14
ENDBRANCH  10  12
ENDBRANCH   1  10
BRANCH   1  15
ATOM     15  C   LIG    1       23.571 -13.166   4.279  0.00  0.00    +0.022 C 
ATOM     16  C   LIG    1       23.451 -11.670   3.978  0.00  0.00    +0.005 C 
ENDBRANCH   1  15
BRANCH   6  17
ATOM     17  S   LIG    1       29.418 -13.331   3.592  0.00  0.00    -0.110 S 
ATOM     18  H   LIG    1       29.595 -12.237   4.348  0.00  0.00    +0.110 HD
ENDBRANCH   6  17
TORSDOF 5
ENDMDL
MODEL 9
REMARK VINA RESULT:      -0.9      4.699      6.629
REMARK  Name = *****
REMARK                            x       y       z     vdW  Elec       q    Type
REMARK                         _______ _______ _______ _____ _____    ______ ____
ROOT
ATOM      1  C   LIG    1       25.418 -14.207   3.537  0.00  0.00    +0.127 C 
ATOM      2  C   LIG    1       25.639 -15.705   3.333  0.00  0.00    +0.234 C 
ATOM      3  O   LIG    1       26.675 -16.195   2.889  0.00  0.00    -0.274 OA
ATOM      4  N   LIG    1       24.645 -16.519   3.783  0.00  0.00    -0.266 N 
ATOM      5  H   LIG    1       24.814 -17.517   3.780  0.00  0.00    +0.157 HD
ATOM      6  C   LIG    1       23.442 -16.047   4.167  0.00  0.00    +0.150 C 
ATOM      7  N   LIG    1       23.057 -14.827   4.068  0.00  0.00    -0.158 NA
ATOM      8  C   LIG    1       23.907 -13.929   3.469  0.00  0.00    +0.254 C 
ATOM      9  O   LIG    1       23.466 -12.898   2.959  0.00  0.00    -0.273 OA
ENDROOT
BRANCH   1  10
ATOM     10  C   LIG    1       25.932 -13.811   4.992  0.00  0.00    +0.010 C 
ATOM     11  C   LIG    1       25.483 -12.403   5.432  0.00  0.00    +0.009 C 
BRANCH  10  12
ATOM     12  C   LIG    1       27.478 -13.925   5.150  0.00  0.00    +0.004 C 
BRANCH  12  14
ATOM     13  C   LIG    1       29.092 -12.048   4.603  0.00  0.00    +0.004 C 
ATOM     14  C   LIG    1       28.269 -13.203   4.051  0.00  0.00    -0.003 C 
ENDBRANCH  12  14
ENDBRANCH  10  12
ENDBRANCH   1  10
BRANCH   1  15
ATOM     15  C   LIG    1       26.168 -13.417   2.430  0.00  0.00    +0.022 C 
ATOM     16  C   LIG    1       25.457 -12.165   1.913  0.00  0.00    +0.005 C 
ENDBRANCH   1  15
BRANCH   6  17
ATOM     17  S   LIG    1       22.411 -17.255   4.848  0.00  0.00    -0.110 S 
ATOM     18  H   LIG    1       22.079 -16.537   5.932  0.00  0.00    +0.110 HD
ENDBRANCH   6  17
TORSDOF 5
ENDMDL
