MODEL 1
REMARK VINA RESULT:      -9.5      0.000      0.000
REMARK  Name = *****
REMARK                            x       y       z     vdW  Elec       q    Type
REMARK                         _______ _______ _______ _____ _____    ______ ____
ROOT
ATOM      1  C   LIG    1       24.545 -21.330   7.329  0.00  0.00    +0.190 C 
ENDROOT
BRANCH   1   2
ATOM      2  C   LIG    1       24.452 -20.300   6.147  0.00  0.00    +0.036 C 
ATOM      3  C   LIG    1       25.131 -20.787   4.841  0.00  0.00    +0.007 C 
ATOM      4  C   LIG    1       24.315 -21.795   4.034  0.00  0.00    +0.000 C 
ATOM      5  C   LIG    1       22.927 -21.262   3.709  0.00  0.00    +0.000 C 
ATOM      6  C   LIG    1       22.185 -20.795   4.955  0.00  0.00    +0.000 C 
ATOM      7  C   LIG    1       23.014 -19.829   5.807  0.00  0.00    +0.007 C 
ENDBRANCH   1   2
BRANCH   1   8
ATOM      8  C   LIG    1       24.629 -22.796   6.864  0.00  0.00    -0.005 A 
ATOM      9  C   LIG    1       23.467 -23.565   6.677  0.00  0.00    +0.007 A 
ATOM     10  C   LIG    1       23.541 -24.939   6.439  0.00  0.00    +0.000 A 
ATOM     11  C   LIG    1       24.779 -25.570   6.358  0.00  0.00    +0.000 A 
ATOM     12  C   LIG    1       25.944 -24.821   6.482  0.00  0.00    +0.000 A 
ATOM     13  C   LIG    1       25.871 -23.447   6.725  0.00  0.00    +0.007 A 
ENDBRANCH   1   8
BRANCH   1  14
ATOM     14  C   LIG    1       25.769 -21.066   8.270  0.00  0.00    +0.345 C 
ATOM     15  O   LIG    1       25.841 -21.539   9.411  0.00  0.00    -0.247 OA
BRANCH  14  16
ATOM     16  O   LIG    1       26.706 -20.259   7.709  0.00  0.00    -0.450 OA
BRANCH  16  17
ATOM     17  C   LIG    1       27.817 -20.934   7.126  0.00  0.00    +0.359 C 
BRANCH  17  20
ATOM     18  C   LIG    1       29.335 -18.710   5.883  0.00  0.00    +0.276 C 
ATOM     19  N   LIG    1       29.888 -19.451   7.003  0.00  0.00    -0.224 N 
ATOM     20  C   LIG    1       29.241 -20.525   7.607  0.00  0.00    +0.321 C 
ATOM     21  N   LIG    1       29.762 -21.273   8.525  0.00  0.00    -0.084 NA
ATOM     22  C   LIG    1       31.122 -20.984   8.978  0.00  0.00    +0.294 C 
ATOM     23  C   LIG    1       31.483 -19.519   8.829  0.00  0.00    +0.093 C 
ATOM     24  C   LIG    1       31.251 -19.115   7.388  0.00  0.00    +0.229 C 
ENDBRANCH  17  20
ENDBRANCH  16  17
ENDBRANCH  14  16
ENDBRANCH   1  14
BRANCH   1  25
ATOM     25  O   LIG    1       23.358 -21.170   8.136  0.00  0.00    -0.373 OA
ATOM     26  H   LIG    1       23.537 -20.421   8.739  0.00  0.00    +0.211 HD
ENDBRANCH   1  25
TORSDOF 7
ENDMDL
MODEL 2
REMARK VINA RESULT:      -8.8      0.673      1.416
REMARK  Name = *****
REMARK                            x       y       z     vdW  Elec       q    Type
REMARK                         _______ _______ _______ _____ _____    ______ ____
ROOT
ATOM      1  C   LIG    1       24.596 -21.379   7.328  0.00  0.00    +0.190 C 
ENDROOT
BRANCH   1   2
ATOM      2  C   LIG    1       24.515 -20.347   6.147  0.00  0.00    +0.036 C 
ATOM      3  C   LIG    1       25.185 -20.842   4.840  0.00  0.00    +0.007 C 
ATOM      4  C   LIG    1       24.354 -21.838   4.034  0.00  0.00    +0.000 C 
ATOM      5  C   LIG    1       22.972 -21.286   3.711  0.00  0.00    +0.000 C 
ATOM      6  C   LIG    1       22.239 -20.811   4.959  0.00  0.00    +0.000 C 
ATOM      7  C   LIG    1       23.082 -19.857   5.811  0.00  0.00    +0.007 C 
ENDBRANCH   1   2
BRANCH   1   8
ATOM      8  C   LIG    1       24.654 -22.847   6.862  0.00  0.00    -0.005 A 
ATOM      9  C   LIG    1       23.479 -23.592   6.667  0.00  0.00    +0.007 A 
ATOM     10  C   LIG    1       23.527 -24.967   6.427  0.00  0.00    +0.000 A 
ATOM     11  C   LIG    1       24.753 -25.622   6.353  0.00  0.00    +0.000 A 
ATOM     12  C   LIG    1       25.931 -24.897   6.485  0.00  0.00    +0.000 A 
ATOM     13  C   LIG    1       25.884 -23.521   6.729  0.00  0.00    +0.007 A 
ENDBRANCH   1   8
BRANCH   1  14
ATOM     14  C   LIG    1       25.829 -21.136   8.264  0.00  0.00    +0.345 C 
ATOM     15  O   LIG    1       25.831 -21.469   9.455  0.00  0.00    -0.247 OA
BRANCH  14  16
ATOM     16  O   LIG    1       26.858 -20.514   7.635  0.00  0.00    -0.450 OA
BRANCH  16  17
ATOM     17  C   LIG    1       28.133 -21.124   7.808  0.00  0.00    +0.359 C 
BRANCH  17  20
ATOM     18  C   LIG    1       30.662 -22.081   9.026  0.00  0.00    +0.276 C 
ATOM     19  N   LIG    1       30.527 -20.705   8.583  0.00  0.00    -0.224 N 
ATOM     20  C   LIG    1       29.356 -20.186   8.036  0.00  0.00    +0.321 C 
ATOM     21  N   LIG    1       29.172 -18.940   7.744  0.00  0.00    -0.084 NA
ATOM     22  C   LIG    1       30.259 -17.993   7.993  0.00  0.00    +0.294 C 
ATOM     23  C   LIG    1       31.625 -18.647   7.919  0.00  0.00    +0.093 C 
ATOM     24  C   LIG    1       31.644 -19.820   8.878  0.00  0.00    +0.229 C 
ENDBRANCH  17  20
ENDBRANCH  16  17
ENDBRANCH  14  16
ENDBRANCH   1  14
BRANCH   1  25
ATOM     25  O   LIG    1       23.416 -21.201   8.140  0.00  0.00    -0.373 OA
ATOM     26  H   LIG    1       23.395 -21.958   8.761  0.00  0.00    +0.211 HD
ENDBRANCH   1  25
TORSDOF 7
ENDMDL
MODEL 3
REMARK VINA RESULT:      -8.7      1.272      1.913
REMARK  Name = *****
REMARK                            x       y       z     vdW  Elec       q    Type
REMARK                         _______ _______ _______ _____ _____    ______ ____
ROOT
ATOM      1  C   LIG    1       24.138 -22.284   6.096  0.00  0.00    +0.190 C 
ENDROOT
BRANCH   1   2
ATOM      2  C   LIG    1       23.446 -21.828   4.762  0.00  0.00    +0.036 C 
ATOM      3  C   LIG    1       22.177 -20.965   4.982  0.00  0.00    +0.007 C 
ATOM      4  C   LIG    1       22.450 -19.508   5.345  0.00  0.00    +0.000 C 
ATOM      5  C   LIG    1       23.345 -18.830   4.316  0.00  0.00    +0.000 C 
ATOM      6  C   LIG    1       24.632 -19.608   4.075  0.00  0.00    +0.000 C 
ATOM      7  C   LIG    1       24.379 -21.087   3.768  0.00  0.00    +0.007 C 
ENDBRANCH   1   2
BRANCH   1   8
ATOM      8  C   LIG    1       24.862 -23.640   5.983  0.00  0.00    -0.005 A 
ATOM      9  C   LIG    1       24.827 -24.382   4.790  0.00  0.00    +0.007 A 
ATOM     10  C   LIG    1       25.320 -25.687   4.738  0.00  0.00    +0.000 A 
ATOM     11  C   LIG    1       25.879 -26.271   5.871  0.00  0.00    +0.000 A 
ATOM     12  C   LIG    1       25.977 -25.537   7.048  0.00  0.00    +0.000 A 
ATOM     13  C   LIG    1       25.481 -24.232   7.103  0.00  0.00    +0.007 A 
ENDBRANCH   1   8
BRANCH   1  14
ATOM     14  C   LIG    1       25.179 -21.240   6.628  0.00  0.00    +0.345 C 
ATOM     15  O   LIG    1       24.862 -20.321   7.394  0.00  0.00    -0.247 OA
BRANCH  14  16
ATOM     16  O   LIG    1       26.430 -21.445   6.145  0.00  0.00    -0.450 OA
BRANCH  16  17
ATOM     17  C   LIG    1       27.259 -20.287   6.097  0.00  0.00    +0.359 C 
BRANCH  17  20
ATOM     18  C   LIG    1       29.456 -18.375   5.539  0.00  0.00    +0.276 C 
ATOM     19  N   LIG    1       29.606 -19.401   6.555  0.00  0.00    -0.224 N 
ATOM     20  C   LIG    1       28.627 -20.349   6.840  0.00  0.00    +0.321 C 
ATOM     21  N   LIG    1       28.782 -21.342   7.654  0.00  0.00    -0.084 NA
ATOM     22  C   LIG    1       30.065 -21.495   8.338  0.00  0.00    +0.294 C 
ATOM     23  C   LIG    1       30.780 -20.172   8.533  0.00  0.00    +0.093 C 
ATOM     24  C   LIG    1       30.916 -19.501   7.182  0.00  0.00    +0.229 C 
ENDBRANCH  17  20
ENDBRANCH  16  17
ENDBRANCH  14  16
ENDBRANCH   1  14
BRANCH   1  25
ATOM     25  O   LIG    1       23.109 -22.395   7.102  0.00  0.00    -0.373 OA
ATOM     26  H   LIG    1       23.301 -23.215   7.600  0.00  0.00    +0.211 HD
ENDBRANCH   1  25
TORSDOF 7
ENDMDL
MODEL 4
REMARK VINA RESULT:      -8.7      0.770      1.734
REMARK  Name = *****
REMARK                            x       y       z     vdW  Elec       q    Type
REMARK                         _______ _______ _______ _____ _____    ______ ____
ROOT
ATOM      1  C   LIG    1       24.665 -21.080   7.332  0.00  0.00    +0.190 C 
ENDROOT
BRANCH   1   2
ATOM      2  C   LIG    1       24.651 -20.233   6.009  0.00  0.00    +0.036 C 
ATOM      3  C   LIG    1       25.260 -20.971   4.789  0.00  0.00    +0.007 C 
ATOM      4  C   LIG    1       24.340 -22.005   4.144  0.00  0.00    +0.000 C 
ATOM      5  C   LIG    1       23.002 -21.396   3.745  0.00  0.00    +0.000 C 
ATOM      6  C   LIG    1       22.328 -20.682   4.909  0.00  0.00    +0.000 C 
ATOM      7  C   LIG    1       23.257 -19.684   5.606  0.00  0.00    +0.007 C 
ENDBRANCH   1   2
BRANCH   1   8
ATOM      8  C   LIG    1       24.640 -22.602   7.089  0.00  0.00    -0.005 A 
ATOM      9  C   LIG    1       25.832 -23.329   6.928  0.00  0.00    +0.007 A 
ATOM     10  C   LIG    1       25.812 -24.666   6.525  0.00  0.00    +0.000 A 
ATOM     11  C   LIG    1       24.600 -25.311   6.298  0.00  0.00    +0.000 A 
ATOM     12  C   LIG    1       23.406 -24.630   6.507  0.00  0.00    +0.000 A 
ATOM     13  C   LIG    1       23.425 -23.291   6.906  0.00  0.00    +0.007 A 
ENDBRANCH   1   8
BRANCH   1  14
ATOM     14  C   LIG    1       25.906 -20.771   8.237  0.00  0.00    +0.345 C 
ATOM     15  O   LIG    1       25.906 -20.985   9.456  0.00  0.00    -0.247 OA
BRANCH  14  16
ATOM     16  O   LIG    1       26.945 -20.233   7.549  0.00  0.00    -0.450 OA
BRANCH  16  17
ATOM     17  C   LIG    1       28.201 -20.876   7.744  0.00  0.00    +0.359 C 
BRANCH  17  20
ATOM     18  C   LIG    1       30.694 -21.973   8.917  0.00  0.00    +0.276 C 
ATOM     19  N   LIG    1       30.579 -20.558   8.610  0.00  0.00    -0.224 N 
ATOM     20  C   LIG    1       29.425 -19.977   8.091  0.00  0.00    +0.321 C 
ATOM     21  N   LIG    1       29.256 -18.706   7.921  0.00  0.00    -0.084 NA
ATOM     22  C   LIG    1       30.344 -17.799   8.286  0.00  0.00    +0.294 C 
ATOM     23  C   LIG    1       31.707 -18.455   8.179  0.00  0.00    +0.093 C 
ATOM     24  C   LIG    1       31.695 -19.717   9.016  0.00  0.00    +0.229 C 
ENDBRANCH  17  20
ENDBRANCH  16  17
ENDBRANCH  14  16
ENDBRANCH   1  14
BRANCH   1  25
ATOM     25  O   LIG    1       23.494 -20.716   8.092  0.00  0.00    -0.373 OA
ATOM     26  H   LIG    1       23.264 -19.805   7.820  0.00  0.00    +0.211 HD
ENDBRANCH   1  25
TORSDOF 7
ENDMDL
MODEL 5
REMARK VINA RESULT:      -8.6      0.988      3.495
REMARK  Name = *****
REMARK                            x       y       z     vdW  Elec       q    Type
REMARK                         _______ _______ _______ _____ _____    ______ ____
ROOT
ATOM      1  C   LIG    1       25.284 -21.739   6.675  0.00  0.00    +0.190 C 
ENDROOT
BRANCH   1   2
ATOM      2  C   LIG    1       24.567 -22.905   7.446  0.00  0.00    +0.036 C 
ATOM      3  C   LIG    1       23.346 -23.492   6.692  0.00  0.00    +0.007 C 
ATOM      4  C   LIG    1       23.696 -24.451   5.557  0.00  0.00    +0.000 C 
ATOM      5  C   LIG    1       24.583 -25.591   6.038  0.00  0.00    +0.000 C 
ATOM      6  C   LIG    1       25.826 -25.085   6.760  0.00  0.00    +0.000 C 
ATOM      7  C   LIG    1       25.496 -24.075   7.863  0.00  0.00    +0.007 C 
ENDBRANCH   1   2
BRANCH   1   8
ATOM      8  C   LIG    1       24.343 -20.935   5.757  0.00  0.00    -0.005 A 
ATOM      9  C   LIG    1       24.667 -20.705   4.409  0.00  0.00    +0.007 A 
ATOM     10  C   LIG    1       23.916 -19.826   3.626  0.00  0.00    +0.000 A 
ATOM     11  C   LIG    1       22.810 -19.177   4.167  0.00  0.00    +0.000 A 
ATOM     12  C   LIG    1       22.435 -19.432   5.481  0.00  0.00    +0.000 A 
ATOM     13  C   LIG    1       23.189 -20.308   6.267  0.00  0.00    +0.007 A 
ENDBRANCH   1   8
BRANCH   1  14
ATOM     14  C   LIG    1       25.987 -20.719   7.634  0.00  0.00    +0.345 C 
ATOM     15  O   LIG    1       25.637 -20.569   8.811  0.00  0.00    -0.247 OA
BRANCH  14  16
ATOM     16  O   LIG    1       26.983 -20.022   7.030  0.00  0.00    -0.450 OA
BRANCH  16  17
ATOM     17  C   LIG    1       28.158 -20.773   6.737  0.00  0.00    +0.359 C 
BRANCH  17  20
ATOM     18  C   LIG    1       29.731 -18.424   5.841  0.00  0.00    +0.276 C 
ATOM     19  N   LIG    1       30.157 -19.209   6.986  0.00  0.00    -0.224 N 
ATOM     20  C   LIG    1       29.482 -20.341   7.435  0.00  0.00    +0.321 C 
ATOM     21  N   LIG    1       29.904 -21.122   8.375  0.00  0.00    -0.084 NA
ATOM     22  C   LIG    1       31.174 -20.809   9.029  0.00  0.00    +0.294 C 
ATOM     23  C   LIG    1       31.486 -19.325   9.012  0.00  0.00    +0.093 C 
ATOM     24  C   LIG    1       31.437 -18.846   7.576  0.00  0.00    +0.229 C 
ENDBRANCH  17  20
ENDBRANCH  16  17
ENDBRANCH  14  16
ENDBRANCH   1  14
BRANCH   1  25
ATOM     25  O   LIG    1       26.322 -22.331   5.864  0.00  0.00    -0.373 OA
ATOM     26  H   LIG    1       25.951 -22.411   4.962  0.00  0.00    +0.211 HD
ENDBRANCH   1  25
TORSDOF 7
ENDMDL
MODEL 6
REMARK VINA RESULT:      -8.3      1.232      3.652
REMARK  Name = *****
REMARK                            x       y       z     vdW  Elec       q    Type
REMARK                         _______ _______ _______ _____ _____    ______ ____
ROOT
ATOM      1  C   LIG    1       25.533 -21.972   6.815  0.00  0.00    +0.190 C 
ENDROOT
BRANCH   1   2
ATOM      2  C   LIG    1       24.742 -23.302   7.085  0.00  0.00    +0.036 C 
ATOM      3  C   LIG    1       23.822 -23.730   5.913  0.00  0.00    +0.007 C 
ATOM      4  C   LIG    1       24.545 -24.390   4.741  0.00  0.00    +0.000 C 
ATOM      5  C   LIG    1       25.370 -25.588   5.193  0.00  0.00    +0.000 C 
ATOM      6  C   LIG    1       26.326 -25.231   6.324  0.00  0.00    +0.000 C 
ATOM      7  C   LIG    1       25.627 -24.513   7.482  0.00  0.00    +0.007 C 
ENDBRANCH   1   2
BRANCH   1   8
ATOM      8  C   LIG    1       24.742 -20.943   5.984  0.00  0.00    -0.005 A 
ATOM      9  C   LIG    1       23.473 -20.501   6.396  0.00  0.00    +0.007 A 
ATOM     10  C   LIG    1       22.676 -19.716   5.560  0.00  0.00    +0.000 A 
ATOM     11  C   LIG    1       23.139 -19.337   4.304  0.00  0.00    +0.000 A 
ATOM     12  C   LIG    1       24.414 -19.714   3.897  0.00  0.00    +0.000 A 
ATOM     13  C   LIG    1       25.211 -20.503   4.731  0.00  0.00    +0.007 A 
ENDBRANCH   1   8
BRANCH   1  14
ATOM     14  C   LIG    1       25.989 -21.258   8.133  0.00  0.00    +0.345 C 
ATOM     15  O   LIG    1       25.453 -21.482   9.226  0.00  0.00    -0.247 OA
BRANCH  14  16
ATOM     16  O   LIG    1       26.998 -20.373   7.936  0.00  0.00    -0.450 OA
BRANCH  16  17
ATOM     17  C   LIG    1       28.305 -20.940   7.903  0.00  0.00    +0.359 C 
BRANCH  17  20
ATOM     18  C   LIG    1       30.865 -21.919   9.036  0.00  0.00    +0.276 C 
ATOM     19  N   LIG    1       30.695 -20.520   8.686  0.00  0.00    -0.224 N 
ATOM     20  C   LIG    1       29.509 -19.992   8.183  0.00  0.00    +0.321 C 
ATOM     21  N   LIG    1       29.296 -18.734   7.976  0.00  0.00    -0.084 NA
ATOM     22  C   LIG    1       30.363 -17.782   8.279  0.00  0.00    +0.294 C 
ATOM     23  C   LIG    1       31.743 -18.399   8.152  0.00  0.00    +0.093 C 
ATOM     24  C   LIG    1       31.796 -19.632   9.030  0.00  0.00    +0.229 C 
ENDBRANCH  17  20
ENDBRANCH  16  17
ENDBRANCH  14  16
ENDBRANCH   1  14
BRANCH   1  25
ATOM     25  O   LIG    1       26.733 -22.320   6.094  0.00  0.00    -0.373 OA
ATOM     26  H   LIG    1       26.747 -23.297   6.041  0.00  0.00    +0.211 HD
ENDBRANCH   1  25
TORSDOF 7
ENDMDL
MODEL 7
REMARK VINA RESULT:      -7.8      3.422      6.338
REMARK  Name = *****
REMARK                            x       y       z     vdW  Elec       q    Type
REMARK                         _______ _______ _______ _____ _____    ______ ____
ROOT
ATOM      1  C   LIG    1       24.272 -22.576   5.920  0.00  0.00    +0.190 C 
ENDROOT
BRANCH   1   2
ATOM      2  C   LIG    1       22.953 -21.879   6.410  0.00  0.00    +0.036 C 
ATOM      3  C   LIG    1       23.143 -20.392   6.806  0.00  0.00    +0.007 C 
ATOM      4  C   LIG    1       23.224 -19.423   5.629  0.00  0.00    +0.000 C 
ATOM      5  C   LIG    1       22.013 -19.547   4.714  0.00  0.00    +0.000 C 
ATOM      6  C   LIG    1       21.785 -20.982   4.256  0.00  0.00    +0.000 C 
ATOM      7  C   LIG    1       21.762 -21.976   5.421  0.00  0.00    +0.007 C 
ENDBRANCH   1   2
BRANCH   1   8
ATOM      8  C   LIG    1       25.553 -21.958   6.514  0.00  0.00    -0.005 A 
ATOM      9  C   LIG    1       25.916 -22.190   7.852  0.00  0.00    +0.007 A 
ATOM     10  C   LIG    1       26.967 -21.489   8.446  0.00  0.00    +0.000 A 
ATOM     11  C   LIG    1       27.693 -20.558   7.709  0.00  0.00    +0.000 A 
ATOM     12  C   LIG    1       27.390 -20.352   6.368  0.00  0.00    +0.000 A 
ATOM     13  C   LIG    1       26.336 -21.050   5.773  0.00  0.00    +0.007 A 
ENDBRANCH   1   8
BRANCH   1  14
ATOM     14  C   LIG    1       24.302 -24.110   6.236  0.00  0.00    +0.345 C 
ATOM     15  O   LIG    1       23.367 -24.686   6.805  0.00  0.00    -0.247 OA
BRANCH  14  16
ATOM     16  O   LIG    1       25.453 -24.711   5.842  0.00  0.00    -0.450 OA
BRANCH  16  17
ATOM     17  C   LIG    1       25.927 -25.740   6.706  0.00  0.00    +0.359 C 
BRANCH  17  20
ATOM     18  C   LIG    1       26.346 -27.943   8.647  0.00  0.00    +0.276 C 
ATOM     19  N   LIG    1       25.620 -28.172   7.411  0.00  0.00    -0.224 N 
ATOM     20  C   LIG    1       25.420 -27.190   6.444  0.00  0.00    +0.321 C 
ATOM     21  N   LIG    1       24.882 -27.398   5.287  0.00  0.00    -0.084 NA
ATOM     22  C   LIG    1       24.441 -28.752   4.952  0.00  0.00    +0.294 C 
ATOM     23  C   LIG    1       24.056 -29.557   6.178  0.00  0.00    +0.093 C 
ATOM     24  C   LIG    1       25.226 -29.547   7.140  0.00  0.00    +0.229 C 
ENDBRANCH  17  20
ENDBRANCH  16  17
ENDBRANCH  14  16
ENDBRANCH   1  14
BRANCH   1  25
ATOM     25  O   LIG    1       24.322 -22.446   4.483  0.00  0.00    -0.373 OA
ATOM     26  H   LIG    1       23.396 -22.495   4.172  0.00  0.00    +0.211 HD
ENDBRANCH   1  25
TORSDOF 7
ENDMDL
MODEL 8
REMARK VINA RESULT:      -7.7      1.281      2.016
REMARK  Name = *****
REMARK                            x       y       z     vdW  Elec       q    Type
REMARK                         _______ _______ _______ _____ _____    ______ ____
ROOT
ATOM      1  C   LIG    1       25.101 -22.474   7.207  0.00  0.00    +0.190 C 
ENDROOT
BRANCH   1   2
ATOM      2  C   LIG    1       23.630 -22.029   7.536  0.00  0.00    +0.036 C 
ATOM      3  C   LIG    1       23.393 -20.504   7.387  0.00  0.00    +0.007 C 
ATOM      4  C   LIG    1       23.224 -20.021   5.949  0.00  0.00    +0.000 C 
ATOM      5  C   LIG    1       22.113 -20.773   5.230  0.00  0.00    +0.000 C 
ATOM      6  C   LIG    1       22.301 -22.283   5.305  0.00  0.00    +0.000 C 
ATOM      7  C   LIG    1       22.532 -22.778   6.736  0.00  0.00    +0.007 C 
ENDBRANCH   1   2
BRANCH   1   8
ATOM      8  C   LIG    1       25.194 -23.874   6.572  0.00  0.00    -0.005 A 
ATOM      9  C   LIG    1       25.667 -24.974   7.308  0.00  0.00    +0.007 A 
ATOM     10  C   LIG    1       25.929 -26.198   6.689  0.00  0.00    +0.000 A 
ATOM     11  C   LIG    1       25.700 -26.356   5.326  0.00  0.00    +0.000 A 
ATOM     12  C   LIG    1       25.178 -25.301   4.587  0.00  0.00    +0.000 A 
ATOM     13  C   LIG    1       24.919 -24.074   5.204  0.00  0.00    +0.007 A 
ENDBRANCH   1   8
BRANCH   1  14
ATOM     14  C   LIG    1       25.838 -21.476   6.251  0.00  0.00    +0.345 C 
ATOM     15  O   LIG    1       25.585 -21.410   5.041  0.00  0.00    -0.247 OA
BRANCH  14  16
ATOM     16  O   LIG    1       26.776 -20.728   6.884  0.00  0.00    -0.450 OA
BRANCH  16  17
ATOM     17  C   LIG    1       28.034 -20.643   6.221  0.00  0.00    +0.359 C 
BRANCH  17  20
ATOM     18  C   LIG    1       29.823 -18.332   5.714  0.00  0.00    +0.276 C 
ATOM     19  N   LIG    1       30.073 -19.234   6.824  0.00  0.00    -0.224 N 
ATOM     20  C   LIG    1       29.292 -20.355   7.094  0.00  0.00    +0.321 C 
ATOM     21  N   LIG    1       29.561 -21.236   8.001  0.00  0.00    -0.084 NA
ATOM     22  C   LIG    1       30.763 -21.060   8.816  0.00  0.00    +0.294 C 
ATOM     23  C   LIG    1       31.154 -19.602   8.964  0.00  0.00    +0.093 C 
ATOM     24  C   LIG    1       31.295 -19.004   7.580  0.00  0.00    +0.229 C 
ENDBRANCH  17  20
ENDBRANCH  16  17
ENDBRANCH  14  16
ENDBRANCH   1  14
BRANCH   1  25
ATOM     25  O   LIG    1       25.838 -22.482   8.448  0.00  0.00    -0.373 OA
ATOM     26  H   LIG    1       26.648 -21.956   8.288  0.00  0.00    +0.211 HD
ENDBRANCH   1  25
TORSDOF 7
ENDMDL
MODEL 9
REMARK VINA RESULT:      -7.6      2.421      6.087
REMARK  Name = *****
REMARK                            x       y       z     vdW  Elec       q    Type
REMARK                         _______ _______ _______ _____ _____    ______ ____
ROOT
ATOM      1  C   LIG    1       26.978 -20.646   7.157  0.00  0.00    +0.190 C 
ENDROOT
BRANCH   1   2
ATOM      2  C   LIG    1       28.380 -20.762   6.457  0.00  0.00    +0.036 C 
ATOM      3  C   LIG    1       28.946 -19.405   5.966  0.00  0.00    +0.007 C 
ATOM      4  C   LIG    1       29.558 -18.534   7.060  0.00  0.00    +0.000 C 
ATOM      5  C   LIG    1       30.640 -19.278   7.832  0.00  0.00    +0.000 C 
ATOM      6  C   LIG    1       30.141 -20.611   8.376  0.00  0.00    +0.000 C 
ATOM      7  C   LIG    1       29.470 -21.472   7.302  0.00  0.00    +0.007 C 
ENDBRANCH   1   2
BRANCH   1   8
ATOM      8  C   LIG    1       25.826 -20.339   6.181  0.00  0.00    -0.005 A 
ATOM      9  C   LIG    1       24.487 -20.550   6.553  0.00  0.00    +0.007 A 
ATOM     10  C   LIG    1       23.454 -20.452   5.618  0.00  0.00    +0.000 A 
ATOM     11  C   LIG    1       23.736 -20.118   4.296  0.00  0.00    +0.000 A 
ATOM     12  C   LIG    1       25.046 -19.849   3.917  0.00  0.00    +0.000 A 
ATOM     13  C   LIG    1       26.080 -19.950   4.851  0.00  0.00    +0.007 A 
ENDBRANCH   1   8
BRANCH   1  14
ATOM     14  C   LIG    1       26.587 -21.939   7.951  0.00  0.00    +0.345 C 
ATOM     15  O   LIG    1       26.275 -21.911   9.148  0.00  0.00    -0.247 OA
BRANCH  14  16
ATOM     16  O   LIG    1       26.652 -23.065   7.197  0.00  0.00    -0.450 OA
BRANCH  16  17
ATOM     17  C   LIG    1       25.632 -24.026   7.451  0.00  0.00    +0.359 C 
BRANCH  17  20
ATOM     18  C   LIG    1       24.775 -23.972   4.612  0.00  0.00    +0.276 C 
ATOM     19  N   LIG    1       25.227 -25.207   5.228  0.00  0.00    -0.224 N 
ATOM     20  C   LIG    1       25.608 -25.305   6.563  0.00  0.00    +0.321 C 
ATOM     21  N   LIG    1       25.900 -26.413   7.164  0.00  0.00    -0.084 NA
ATOM     22  C   LIG    1       25.836 -27.661   6.404  0.00  0.00    +0.294 C 
ATOM     23  C   LIG    1       26.094 -27.452   4.924  0.00  0.00    +0.093 C 
ATOM     24  C   LIG    1       25.121 -26.409   4.414  0.00  0.00    +0.229 C 
ENDBRANCH  17  20
ENDBRANCH  16  17
ENDBRANCH  14  16
ENDBRANCH   1  14
BRANCH   1  25
ATOM     25  O   LIG    1       27.063 -19.575   8.121  0.00  0.00    -0.373 OA
ATOM     26  H   LIG    1       26.361 -18.936   7.881  0.00  0.00    +0.211 HD
ENDBRANCH   1  25
TORSDOF 7
ENDMDL
