MODEL 1
REMARK VINA RESULT:      -6.0      0.000      0.000
REMARK  Name = *****
REMARK                            x       y       z     vdW  Elec       q    Type
REMARK                         _______ _______ _______ _____ _____    ______ ____
ROOT
ATOM      1  C   LIG    1       24.905 -23.241   6.448  0.00  0.00    +0.268 C 
ENDROOT
BRANCH   1   2
ATOM      2  P   LIG    1       23.249 -22.534   6.744  0.00  0.00    +0.371 P 
ATOM      3  O   LIG    1       23.039 -21.625   7.911  0.00  0.00    -0.255 OA
BRANCH   2   4
ATOM      4  O   LIG    1       22.174 -23.720   6.732  0.00  0.00    -0.322 OA
ATOM      5  H   LIG    1       21.764 -23.878   7.603  0.00  0.00    +0.220 HD
ENDBRANCH   2   4
BRANCH   2   6
ATOM      6  O   LIG    1       22.854 -21.756   5.397  0.00  0.00    -0.322 OA
ATOM      7  H   LIG    1       23.624 -21.566   4.830  0.00  0.00    +0.220 HD
ENDBRANCH   2   6
ENDBRANCH   1   2
BRANCH   1   8
ATOM      8  P   LIG    1       24.903 -24.958   5.794  0.00  0.00    +0.371 P 
ATOM      9  O   LIG    1       23.934 -25.963   6.333  0.00  0.00    -0.255 OA
BRANCH   8  10
ATOM     10  O   LIG    1       26.408 -25.512   5.929  0.00  0.00    -0.322 OA
ATOM     11  H   LIG    1       26.548 -26.030   6.743  0.00  0.00    +0.220 HD
ENDBRANCH   8  10
BRANCH   8  12
ATOM     12  O   LIG    1       24.837 -24.856   4.194  0.00  0.00    -0.322 OA
ATOM     13  H   LIG    1       25.513 -24.258   3.820  0.00  0.00    +0.220 HD
ENDBRANCH   8  12
ENDBRANCH   1   8
BRANCH   1  14
ATOM     14  O   LIG    1       25.504 -22.418   5.401  0.00  0.00    -0.367 OA
ATOM     15  H   LIG    1       25.895 -21.649   5.862  0.00  0.00    +0.212 HD
ENDBRANCH   1  14
BRANCH   1  16
ATOM     16  C   LIG    1       25.823 -23.171   7.686  0.00  0.00    +0.075 C 
BRANCH  16  17
ATOM     17  C   LIG    1       26.459 -21.802   7.927  0.00  0.00    +0.081 C 
BRANCH  17  18
ATOM     18  N   LIG    1       25.905 -21.192   9.137  0.00  0.00    -0.330 NA
ATOM     19  H   LIG    1       26.656 -20.792   9.698  0.00  0.00    +0.118 HD
ATOM     20  H   LIG    1       25.315 -20.404   8.865  0.00  0.00    +0.118 HD
ENDBRANCH  17  18
ENDBRANCH  16  17
ENDBRANCH   1  16
TORSDOF 10
ENDMDL
MODEL 2
REMARK VINA RESULT:      -5.8      1.622      3.663
REMARK  Name = *****
REMARK                            x       y       z     vdW  Elec       q    Type
REMARK                         _______ _______ _______ _____ _____    ______ ____
ROOT
ATOM      1  C   LIG    1       24.138 -21.626   6.653  0.00  0.00    +0.268 C 
ENDROOT
BRANCH   1   2
ATOM      2  P   LIG    1       24.445 -23.395   6.321  0.00  0.00    +0.371 P 
ATOM      3  O   LIG    1       25.476 -24.121   7.122  0.00  0.00    -0.255 OA
BRANCH   2   4
ATOM      4  O   LIG    1       24.689 -23.587   4.751  0.00  0.00    -0.322 OA
ATOM      5  H   LIG    1       25.593 -23.355   4.469  0.00  0.00    +0.220 HD
ENDBRANCH   2   4
BRANCH   2   6
ATOM      6  O   LIG    1       23.029 -24.130   6.499  0.00  0.00    -0.322 OA
ATOM      7  H   LIG    1       22.304 -23.670   6.037  0.00  0.00    +0.220 HD
ENDBRANCH   2   6
ENDBRANCH   1   2
BRANCH   1   8
ATOM      8  P   LIG    1       23.091 -20.779   5.404  0.00  0.00    +0.371 P 
ATOM      9  O   LIG    1       22.548 -19.413   5.685  0.00  0.00    -0.255 OA
BRANCH   8  10
ATOM     10  O   LIG    1       21.893 -21.787   5.036  0.00  0.00    -0.322 OA
ATOM     11  H   LIG    1       22.104 -22.363   4.277  0.00  0.00    +0.220 HD
ENDBRANCH   8  10
BRANCH   8  12
ATOM     12  O   LIG    1       23.879 -20.836   4.007  0.00  0.00    -0.322 OA
ATOM     13  H   LIG    1       23.553 -21.539   3.411  0.00  0.00    +0.220 HD
ENDBRANCH   8  12
ENDBRANCH   1   8
BRANCH   1  14
ATOM     14  O   LIG    1       23.381 -21.585   7.900  0.00  0.00    -0.367 OA
ATOM     15  H   LIG    1       22.506 -21.216   7.665  0.00  0.00    +0.212 HD
ENDBRANCH   1  14
BRANCH   1  16
ATOM     16  C   LIG    1       25.435 -20.816   6.861  0.00  0.00    +0.075 C 
BRANCH  16  17
ATOM     17  C   LIG    1       25.782 -20.539   8.324  0.00  0.00    +0.081 C 
BRANCH  17  18
ATOM     18  N   LIG    1       26.377 -21.728   8.937  0.00  0.00    -0.330 NA
ATOM     19  H   LIG    1       26.774 -22.327   8.215  0.00  0.00    +0.118 HD
ATOM     20  H   LIG    1       27.164 -21.436   9.519  0.00  0.00    +0.118 HD
ENDBRANCH  17  18
ENDBRANCH  16  17
ENDBRANCH   1  16
TORSDOF 10
ENDMDL
MODEL 3
REMARK VINA RESULT:      -5.7      0.154      1.703
REMARK  Name = *****
REMARK                            x       y       z     vdW  Elec       q    Type
REMARK                         _______ _______ _______ _____ _____    ______ ____
ROOT
ATOM      1  C   LIG    1       24.959 -23.205   6.480  0.00  0.00    +0.268 C 
ENDROOT
BRANCH   1   2
ATOM      2  P   LIG    1       23.222 -22.670   6.648  0.00  0.00    +0.371 P 
ATOM      3  O   LIG    1       22.156 -23.698   6.850  0.00  0.00    -0.255 OA
BRANCH   2   4
ATOM      4  O   LIG    1       22.865 -21.695   5.430  0.00  0.00    -0.322 OA
ATOM      5  H   LIG    1       22.004 -21.894   5.017  0.00  0.00    +0.220 HD
ENDBRANCH   2   4
BRANCH   2   6
ATOM      6  O   LIG    1       23.195 -21.639   7.878  0.00  0.00    -0.322 OA
ATOM      7  H   LIG    1       22.676 -20.835   7.685  0.00  0.00    +0.220 HD
ENDBRANCH   2   6
ENDBRANCH   1   2
BRANCH   1   8
ATOM      8  P   LIG    1       25.181 -24.895   5.795  0.00  0.00    +0.371 P 
ATOM      9  O   LIG    1       26.483 -25.610   5.976  0.00  0.00    -0.255 OA
BRANCH   8  10
ATOM     10  O   LIG    1       24.801 -24.821   4.234  0.00  0.00    -0.322 OA
ATOM     11  H   LIG    1       24.327 -24.002   4.000  0.00  0.00    +0.220 HD
ENDBRANCH   8  10
BRANCH   8  12
ATOM     12  O   LIG    1       23.937 -25.777   6.296  0.00  0.00    -0.322 OA
ATOM     13  H   LIG    1       23.088 -25.501   5.897  0.00  0.00    +0.220 HD
ENDBRANCH   8  12
ENDBRANCH   1   8
BRANCH   1  14
ATOM     14  O   LIG    1       25.557 -22.299   5.504  0.00  0.00    -0.367 OA
ATOM     15  H   LIG    1       24.848 -21.673   5.255  0.00  0.00    +0.212 HD
ENDBRANCH   1  14
BRANCH   1  16
ATOM     16  C   LIG    1       25.760 -23.080   7.793  0.00  0.00    +0.075 C 
BRANCH  16  17
ATOM     17  C   LIG    1       26.497 -21.751   7.963  0.00  0.00    +0.081 C 
BRANCH  17  18
ATOM     18  N   LIG    1       25.958 -21.015   9.107  0.00  0.00    -0.330 NA
ATOM     19  H   LIG    1       25.216 -20.389   8.797  0.00  0.00    +0.118 HD
ATOM     20  H   LIG    1       25.512 -21.680   9.742  0.00  0.00    +0.118 HD
ENDBRANCH  17  18
ENDBRANCH  16  17
ENDBRANCH   1  16
TORSDOF 10
ENDMDL
MODEL 4
REMARK VINA RESULT:      -5.7      1.681      2.241
REMARK  Name = *****
REMARK                            x       y       z     vdW  Elec       q    Type
REMARK                         _______ _______ _______ _____ _____    ______ ____
ROOT
ATOM      1  C   LIG    1       24.706 -21.730   6.149  0.00  0.00    +0.268 C 
ENDROOT
BRANCH   1   2
ATOM      2  P   LIG    1       23.497 -21.030   4.973  0.00  0.00    +0.371 P 
ATOM      3  O   LIG    1       23.378 -19.546   4.843  0.00  0.00    -0.255 OA
BRANCH   2   4
ATOM      4  O   LIG    1       22.071 -21.705   5.242  0.00  0.00    -0.322 OA
ATOM      5  H   LIG    1       21.808 -22.340   4.550  0.00  0.00    +0.220 HD
ENDBRANCH   2   4
BRANCH   2   6
ATOM      6  O   LIG    1       23.861 -21.655   3.541  0.00  0.00    -0.322 OA
ATOM      7  H   LIG    1       23.573 -22.582   3.449  0.00  0.00    +0.220 HD
ENDBRANCH   2   6
ENDBRANCH   1   2
BRANCH   1   8
ATOM      8  P   LIG    1       24.737 -23.565   6.220  0.00  0.00    +0.371 P 
ATOM      9  O   LIG    1       25.692 -24.262   7.137  0.00  0.00    -0.255 OA
BRANCH   8  10
ATOM     10  O   LIG    1       24.934 -24.089   4.712  0.00  0.00    -0.322 OA
ATOM     11  H   LIG    1       25.865 -24.070   4.424  0.00  0.00    +0.220 HD
ENDBRANCH   8  10
BRANCH   8  12
ATOM     12  O   LIG    1       23.225 -24.057   6.441  0.00  0.00    -0.322 OA
ATOM     13  H   LIG    1       23.109 -24.583   7.257  0.00  0.00    +0.220 HD
ENDBRANCH   8  12
ENDBRANCH   1   8
BRANCH   1  14
ATOM     14  O   LIG    1       26.018 -21.329   5.650  0.00  0.00    -0.367 OA
ATOM     15  H   LIG    1       26.277 -20.551   6.184  0.00  0.00    +0.212 HD
ENDBRANCH   1  14
BRANCH   1  16
ATOM     16  C   LIG    1       24.554 -21.169   7.578  0.00  0.00    +0.075 C 
BRANCH  16  17
ATOM     17  C   LIG    1       25.830 -20.563   8.162  0.00  0.00    +0.081 C 
BRANCH  17  18
ATOM     18  N   LIG    1       26.669 -21.613   8.742  0.00  0.00    -0.330 NA
ATOM     19  H   LIG    1       26.184 -22.052   9.523  0.00  0.00    +0.118 HD
ATOM     20  H   LIG    1       26.799 -22.350   8.046  0.00  0.00    +0.118 HD
ENDBRANCH  17  18
ENDBRANCH  16  17
ENDBRANCH   1  16
TORSDOF 10
ENDMDL
MODEL 5
REMARK VINA RESULT:      -5.6      2.529      3.889
REMARK  Name = *****
REMARK                            x       y       z     vdW  Elec       q    Type
REMARK                         _______ _______ _______ _____ _____    ______ ____
ROOT
ATOM      1  C   LIG    1       24.890 -22.815   6.193  0.00  0.00    +0.268 C 
ENDROOT
BRANCH   1   2
ATOM      2  P   LIG    1       26.130 -21.547   6.625  0.00  0.00    +0.371 P 
ATOM      3  O   LIG    1       27.450 -21.973   7.180  0.00  0.00    -0.255 OA
BRANCH   2   4
ATOM      4  O   LIG    1       25.436 -20.447   7.558  0.00  0.00    -0.322 OA
ATOM      5  H   LIG    1       25.993 -20.173   8.311  0.00  0.00    +0.220 HD
ENDBRANCH   2   4
BRANCH   2   6
ATOM      6  O   LIG    1       26.374 -20.695   5.287  0.00  0.00    -0.322 OA
ATOM      7  H   LIG    1       27.305 -20.705   4.997  0.00  0.00    +0.220 HD
ENDBRANCH   2   6
ENDBRANCH   1   2
BRANCH   1   8
ATOM      8  P   LIG    1       23.175 -22.428   6.726  0.00  0.00    +0.371 P 
ATOM      9  O   LIG    1       22.937 -21.695   8.009  0.00  0.00    -0.255 OA
BRANCH   8  10
ATOM     10  O   LIG    1       22.359 -23.814   6.719  0.00  0.00    -0.322 OA
ATOM     11  H   LIG    1       21.495 -23.741   6.272  0.00  0.00    +0.220 HD
ENDBRANCH   8  10
BRANCH   8  12
ATOM     12  O   LIG    1       22.441 -21.721   5.486  0.00  0.00    -0.322 OA
ATOM     13  H   LIG    1       21.663 -22.220   5.166  0.00  0.00    +0.220 HD
ENDBRANCH   8  12
ENDBRANCH   1   8
BRANCH   1  14
ATOM     14  O   LIG    1       24.854 -22.851   4.734  0.00  0.00    -0.367 OA
ATOM     15  H   LIG    1       25.109 -23.762   4.486  0.00  0.00    +0.212 HD
ENDBRANCH   1  14
BRANCH   1  16
ATOM     16  C   LIG    1       25.269 -24.225   6.690  0.00  0.00    +0.075 C 
BRANCH  16  17
ATOM     17  C   LIG    1       25.420 -25.269   5.583  0.00  0.00    +0.081 C 
BRANCH  17  18
ATOM     18  N   LIG    1       24.111 -25.806   5.211  0.00  0.00    -0.330 NA
ATOM     19  H   LIG    1       23.920 -25.604   4.231  0.00  0.00    +0.118 HD
ATOM     20  H   LIG    1       24.143 -26.824   5.282  0.00  0.00    +0.118 HD
ENDBRANCH  17  18
ENDBRANCH  16  17
ENDBRANCH   1  16
TORSDOF 10
ENDMDL
MODEL 6
REMARK VINA RESULT:      -5.5      7.138      8.550
REMARK  Name = *****
REMARK                            x       y       z     vdW  Elec       q    Type
REMARK                         _______ _______ _______ _____ _____    ______ ____
ROOT
ATOM      1  C   LIG    1       30.708 -19.281   7.946  0.00  0.00    +0.268 C 
ENDROOT
BRANCH   1   2
ATOM      2  P   LIG    1       30.863 -20.934   8.704  0.00  0.00    +0.371 P 
ATOM      3  O   LIG    1       30.764 -21.071  10.189  0.00  0.00    -0.255 OA
BRANCH   2   4
ATOM      4  O   LIG    1       32.191 -21.632   8.145  0.00  0.00    -0.322 OA
ATOM      5  H   LIG    1       32.201 -21.720   7.174  0.00  0.00    +0.220 HD
ENDBRANCH   2   4
BRANCH   2   6
ATOM      6  O   LIG    1       29.733 -21.843   8.017  0.00  0.00    -0.322 OA
ATOM      7  H   LIG    1       30.018 -22.219   7.164  0.00  0.00    +0.220 HD
ENDBRANCH   2   6
ENDBRANCH   1   2
BRANCH   1   8
ATOM      8  P   LIG    1       31.170 -17.883   9.046  0.00  0.00    +0.371 P 
ATOM      9  O   LIG    1       30.117 -16.943   9.543  0.00  0.00    -0.255 OA
BRANCH   8  10
ATOM     10  O   LIG    1       32.335 -17.065   8.298  0.00  0.00    -0.322 OA
ATOM     11  H   LIG    1       32.872 -16.529   8.910  0.00  0.00    +0.220 HD
ENDBRANCH   8  10
BRANCH   8  12
ATOM     12  O   LIG    1       32.046 -18.493  10.244  0.00  0.00    -0.322 OA
ATOM     13  H   LIG    1       31.595 -18.447  11.110  0.00  0.00    +0.220 HD
ENDBRANCH   8  12
ENDBRANCH   1   8
BRANCH   1  14
ATOM     14  O   LIG    1       31.671 -19.258   6.849  0.00  0.00    -0.367 OA
ATOM     15  H   LIG    1       32.154 -18.412   6.939  0.00  0.00    +0.212 HD
ENDBRANCH   1  14
BRANCH   1  16
ATOM     16  C   LIG    1       29.309 -19.018   7.351  0.00  0.00    +0.075 C 
BRANCH  16  17
ATOM     17  C   LIG    1       29.214 -19.221   5.839  0.00  0.00    +0.081 C 
BRANCH  17  18
ATOM     18  N   LIG    1       29.452 -17.956   5.142  0.00  0.00    -0.330 NA
ATOM     19  H   LIG    1       28.589 -17.634   4.706  0.00  0.00    +0.118 HD
ATOM     20  H   LIG    1       29.696 -17.244   5.832  0.00  0.00    +0.118 HD
ENDBRANCH  17  18
ENDBRANCH  16  17
ENDBRANCH   1  16
TORSDOF 10
ENDMDL
MODEL 7
REMARK VINA RESULT:      -5.5      2.834      3.771
REMARK  Name = *****
REMARK                            x       y       z     vdW  Elec       q    Type
REMARK                         _______ _______ _______ _____ _____    ______ ____
ROOT
ATOM      1  C   LIG    1       24.522 -21.680   6.979  0.00  0.00    +0.268 C 
ENDROOT
BRANCH   1   2
ATOM      2  P   LIG    1       25.978 -21.199   7.969  0.00  0.00    +0.371 P 
ATOM      3  O   LIG    1       25.810 -20.906   9.425  0.00  0.00    -0.255 OA
BRANCH   2   4
ATOM      4  O   LIG    1       26.735 -20.004   7.221  0.00  0.00    -0.322 OA
ATOM      5  H   LIG    1       26.128 -19.353   6.821  0.00  0.00    +0.220 HD
ENDBRANCH   2   4
BRANCH   2   6
ATOM      6  O   LIG    1       27.043 -22.387   7.794  0.00  0.00    -0.322 OA
ATOM      7  H   LIG    1       27.628 -22.260   7.023  0.00  0.00    +0.220 HD
ENDBRANCH   2   6
ENDBRANCH   1   2
BRANCH   1   8
ATOM      8  P   LIG    1       24.527 -23.423   6.398  0.00  0.00    +0.371 P 
ATOM      9  O   LIG    1       25.466 -24.414   7.012  0.00  0.00    -0.255 OA
BRANCH   8  10
ATOM     10  O   LIG    1       24.728 -23.383   4.803  0.00  0.00    -0.322 OA
ATOM     11  H   LIG    1       25.459 -23.954   4.500  0.00  0.00    +0.220 HD
ENDBRANCH   8  10
BRANCH   8  12
ATOM     12  O   LIG    1       23.007 -23.937   6.428  0.00  0.00    -0.322 OA
ATOM     13  H   LIG    1       22.357 -23.217   6.306  0.00  0.00    +0.220 HD
ENDBRANCH   8  12
ENDBRANCH   1   8
BRANCH   1  14
ATOM     14  O   LIG    1       23.378 -21.564   7.879  0.00  0.00    -0.367 OA
ATOM     15  H   LIG    1       22.810 -20.867   7.495  0.00  0.00    +0.212 HD
ENDBRANCH   1  14
BRANCH   1  16
ATOM     16  C   LIG    1       24.272 -20.745   5.777  0.00  0.00    +0.075 C 
BRANCH  16  17
ATOM     17  C   LIG    1       22.817 -20.309   5.604  0.00  0.00    +0.081 C 
BRANCH  17  18
ATOM     18  N   LIG    1       22.036 -21.386   4.993  0.00  0.00    -0.330 NA
ATOM     19  H   LIG    1       22.282 -21.476   4.008  0.00  0.00    +0.118 HD
ATOM     20  H   LIG    1       22.303 -22.271   5.427  0.00  0.00    +0.118 HD
ENDBRANCH  17  18
ENDBRANCH  16  17
ENDBRANCH   1  16
TORSDOF 10
ENDMDL
MODEL 8
REMARK VINA RESULT:      -5.4      1.688      2.154
REMARK  Name = *****
REMARK                            x       y       z     vdW  Elec       q    Type
REMARK                         _______ _______ _______ _____ _____    ______ ____
ROOT
ATOM      1  C   LIG    1       24.845 -22.325   5.914  0.00  0.00    +0.268 C 
ENDROOT
BRANCH   1   2
ATOM      2  P   LIG    1       23.282 -21.514   6.399  0.00  0.00    +0.371 P 
ATOM      3  O   LIG    1       23.102 -20.055   6.134  0.00  0.00    -0.255 OA
BRANCH   2   4
ATOM      4  O   LIG    1       22.975 -21.867   7.929  0.00  0.00    -0.322 OA
ATOM      5  H   LIG    1       22.072 -21.626   8.207  0.00  0.00    +0.220 HD
ENDBRANCH   2   4
BRANCH   2   6
ATOM      6  O   LIG    1       22.114 -22.330   5.661  0.00  0.00    -0.322 OA
ATOM      7  H   LIG    1       21.224 -22.001   5.885  0.00  0.00    +0.220 HD
ENDBRANCH   2   6
ENDBRANCH   1   2
BRANCH   1   8
ATOM      8  P   LIG    1       24.819 -24.159   5.999  0.00  0.00    +0.371 P 
ATOM      9  O   LIG    1       25.886 -24.889   6.752  0.00  0.00    -0.255 OA
BRANCH   8  10
ATOM     10  O   LIG    1       24.744 -24.696   4.485  0.00  0.00    -0.322 OA
ATOM     11  H   LIG    1       25.302 -25.482   4.334  0.00  0.00    +0.220 HD
ENDBRANCH   8  10
BRANCH   8  12
ATOM     12  O   LIG    1       23.347 -24.592   6.471  0.00  0.00    -0.322 OA
ATOM     13  H   LIG    1       22.680 -24.517   5.761  0.00  0.00    +0.220 HD
ENDBRANCH   8  12
ENDBRANCH   1   8
BRANCH   1  14
ATOM     14  O   LIG    1       25.039 -21.994   4.506  0.00  0.00    -0.367 OA
ATOM     15  H   LIG    1       25.156 -21.023   4.476  0.00  0.00    +0.212 HD
ENDBRANCH   1  14
BRANCH   1  16
ATOM     16  C   LIG    1       26.067 -21.798   6.695  0.00  0.00    +0.075 C 
BRANCH  16  17
ATOM     17  C   LIG    1       26.462 -20.359   6.361  0.00  0.00    +0.081 C 
BRANCH  17  18
ATOM     18  N   LIG    1       27.303 -20.331   5.163  0.00  0.00    -0.330 NA
ATOM     19  H   LIG    1       28.274 -20.507   5.418  0.00  0.00    +0.118 HD
ATOM     20  H   LIG    1       27.032 -21.106   4.555  0.00  0.00    +0.118 HD
ENDBRANCH  17  18
ENDBRANCH  16  17
ENDBRANCH   1  16
TORSDOF 10
ENDMDL
MODEL 9
REMARK VINA RESULT:      -5.4      2.809      4.035
REMARK  Name = *****
REMARK                            x       y       z     vdW  Elec       q    Type
REMARK                         _______ _______ _______ _____ _____    ______ ____
ROOT
ATOM      1  C   LIG    1       24.907 -21.790   6.561  0.00  0.00    +0.268 C 
ENDROOT
BRANCH   1   2
ATOM      2  P   LIG    1       24.735 -23.585   6.281  0.00  0.00    +0.371 P 
ATOM      3  O   LIG    1       25.562 -24.534   7.087  0.00  0.00    -0.255 OA
BRANCH   2   4
ATOM      4  O   LIG    1       24.880 -23.877   4.714  0.00  0.00    -0.322 OA
ATOM      5  H   LIG    1       25.806 -23.964   4.422  0.00  0.00    +0.220 HD
ENDBRANCH   2   4
BRANCH   2   6
ATOM      6  O   LIG    1       23.182 -23.920   6.508  0.00  0.00    -0.322 OA
ATOM      7  H   LIG    1       22.989 -24.224   7.414  0.00  0.00    +0.220 HD
ENDBRANCH   2   6
ENDBRANCH   1   2
BRANCH   1   8
ATOM      8  P   LIG    1       26.206 -21.320   7.771  0.00  0.00    +0.371 P 
ATOM      9  O   LIG    1       25.854 -21.135   9.214  0.00  0.00    -0.255 OA
BRANCH   8  10
ATOM     10  O   LIG    1       26.921 -19.997   7.201  0.00  0.00    -0.322 OA
ATOM     11  H   LIG    1       26.586 -19.179   7.614  0.00  0.00    +0.220 HD
ENDBRANCH   8  10
BRANCH   8  12
ATOM     12  O   LIG    1       27.427 -22.344   7.578  0.00  0.00    -0.322 OA
ATOM     13  H   LIG    1       27.148 -23.281   7.606  0.00  0.00    +0.220 HD
ENDBRANCH   8  12
ENDBRANCH   1   8
BRANCH   1  14
ATOM     14  O   LIG    1       25.334 -21.231   5.281  0.00  0.00    -0.367 OA
ATOM     15  H   LIG    1       25.265 -20.260   5.381  0.00  0.00    +0.212 HD
ENDBRANCH   1  14
BRANCH   1  16
ATOM     16  C   LIG    1       23.579 -21.109   6.952  0.00  0.00    +0.075 C 
BRANCH  16  17
ATOM     17  C   LIG    1       22.880 -20.374   5.807  0.00  0.00    +0.081 C 
BRANCH  17  18
ATOM     18  N   LIG    1       22.148 -21.323   4.969  0.00  0.00    -0.330 NA
ATOM     19  H   LIG    1       22.803 -21.943   4.494  0.00  0.00    +0.118 HD
ATOM     20  H   LIG    1       21.585 -21.926   5.572  0.00  0.00    +0.118 HD
ENDBRANCH  17  18
ENDBRANCH  16  17
ENDBRANCH   1  16
TORSDOF 10
ENDMDL
