MODEL 1
REMARK VINA RESULT:       9.5      0.000      0.000
REMARK  Name = *****
REMARK                            x       y       z     vdW  Elec       q    Type
REMARK                         _______ _______ _______ _____ _____    ______ ____
ROOT
ATOM      1  C   LIG    1       21.456 -26.921  13.085  0.00  0.00    +0.150 C 
ATOM      2  C   LIG    1       20.749 -28.343  12.899  0.00  0.00    +0.060 C 
ATOM      3  C   LIG    1       21.698 -29.209  12.059  0.00  0.00    +0.014 C 
ATOM      4  C   LIG    1       19.274 -28.290  12.277  0.00  0.00    +0.187 C 
ATOM      5  C   LIG    1       18.639 -29.638  11.673  0.00  0.00    +0.056 C 
ATOM      6  C   LIG    1       17.945 -29.219  10.328  0.00  0.00    +0.014 C 
ATOM      7  C   LIG    1       17.554 -30.595  12.366  0.00  0.00    +0.126 C 
ATOM      8  C   LIG    1       17.615 -31.322  13.754  0.00  0.00    +0.044 C 
ATOM      9  C   LIG    1       16.406 -31.014  14.661  0.00  0.00    +0.013 C 
ATOM     10  C   LIG    1       18.958 -31.199  14.458  0.00  0.00    +0.126 C 
ATOM     11  C   LIG    1       19.434 -32.424  15.313  0.00  0.00    +0.037 C 
ATOM     12  C   LIG    1       19.113 -33.808  14.744  0.00  0.00    +0.014 C 
ATOM     13  C   LIG    1       20.933 -32.222  15.500  0.00  0.00    -0.021 C 
ATOM     14  C   LIG    1       21.839 -32.473  14.535  0.00  0.00    -0.003 C 
ATOM     15  C   LIG    1       23.095 -31.769  14.526  0.00  0.00    +0.008 C 
ATOM     16  C   LIG    1       24.014 -31.611  13.545  0.00  0.00    +0.011 C 
ATOM     17  C   LIG    1       24.913 -30.438  13.804  0.00  0.00    +0.049 C 
ATOM     18  C   LIG    1       23.991 -32.375  12.225  0.00  0.00    +0.244 C 
ATOM     19  O   LIG    1       22.988 -33.028  11.918  0.00  0.00    -0.270 OA
ATOM     20  N   LIG    1       25.011 -32.426  11.284  0.00  0.00    -0.278 N 
ATOM     21  H   LIG    1       24.576 -32.722  10.404  0.00  0.00    +0.155 HD
ATOM     22  C   LIG    1       26.058 -31.495  11.099  0.00  0.00    +0.089 A 
ATOM     23  C   LIG    1       27.089 -31.419  12.042  0.00  0.00    +0.150 A 
ATOM     24  C   LIG    1       27.712 -30.185  12.324  0.00  0.00    +0.071 A 
ATOM     25  C   LIG    1       27.340 -29.089  11.505  0.00  0.00    +0.046 A 
ATOM     26  C   LIG    1       26.642 -29.320  10.292  0.00  0.00    +0.136 A 
ATOM     27  C   LIG    1       27.475 -27.836  12.109  0.00  0.00    +0.079 A 
ATOM     28  C   LIG    1       26.744 -26.619  11.816  0.00  0.00    +0.251 C 
ATOM     29  C   LIG    1       26.412 -25.991  13.163  0.00  0.00    +0.314 C 
ATOM     30  O   LIG    1       27.576 -26.438  13.954  0.00  0.00    -0.444 OA
ATOM     31  C   LIG    1       26.415 -24.475  13.137  0.00  0.00    +0.114 C 
ATOM     32  O   LIG    1       25.213 -26.529  13.751  0.00  0.00    -0.453 OA
ATOM     33  C   LIG    1       24.010 -26.416  13.091  0.00  0.00    +0.190 C 
ATOM     34  O   LIG    1       26.457 -26.250  10.703  0.00  0.00    -0.284 OA
ATOM     35  C   LIG    1       27.942 -27.649  13.399  0.00  0.00    +0.143 A 
ATOM     36  C   LIG    1       28.554 -28.669  14.098  0.00  0.00    +0.034 A 
ATOM     37  C   LIG    1       29.075 -28.471  15.490  0.00  0.00    +0.051 C 
ATOM     38  C   LIG    1       28.439 -29.950  13.535  0.00  0.00    +0.135 A 
ATOM     39  C   LIG    1       25.977 -30.527  10.095  0.00  0.00    +0.061 A 
ATOM     40  C   LIG    1       22.901 -26.974  13.606  0.00  0.00    +0.042 C 
ENDROOT
BRANCH   1  42
ATOM     41  C   LIG    1       20.892 -26.176  15.322  0.00  0.00    +0.194 C 
ATOM     42  O   LIG    1       20.713 -26.021  13.919  0.00  0.00    -0.375 OA
ENDBRANCH   1  42
BRANCH   7  43
ATOM     43  O   LIG    1       17.537 -31.764  11.473  0.00  0.00    -0.391 OA
ATOM     44  H   LIG    1       18.416 -31.874  11.079  0.00  0.00    +0.210 HD
ENDBRANCH   7  43
BRANCH  10  45
ATOM     45  O   LIG    1       18.918 -30.030  15.287  0.00  0.00    -0.391 OA
ATOM     46  H   LIG    1       19.217 -29.280  14.750  0.00  0.00    +0.210 HD
ENDBRANCH  10  45
BRANCH  26  47
ATOM     47  O   LIG    1       26.519 -28.374   9.311  0.00  0.00    -0.505 OA
ATOM     48  H   LIG    1       25.588 -28.105   9.169  0.00  0.00    +0.292 HD
ENDBRANCH  26  47
BRANCH  38  49
ATOM     49  O   LIG    1       28.876 -30.998  14.310  0.00  0.00    -0.506 OA
ATOM     50  H   LIG    1       29.853 -30.943  14.362  0.00  0.00    +0.292 HD
ENDBRANCH  38  49
BRANCH  23  51
ATOM     51  O   LIG    1       27.303 -32.500  12.871  0.00  0.00    -0.504 OA
ATOM     52  H   LIG    1       28.271 -32.545  13.022  0.00  0.00    +0.292 HD
ENDBRANCH  23  51
BRANCH  39  53
ATOM     53  C   LIG    1       25.091 -30.670   8.914  0.00  0.00    +0.143 C 
ATOM     54  N   LIG    1       25.597 -30.841   7.732  0.00  0.00    -0.192 NA
BRANCH  54  55
ATOM     55  N   LIG    1       24.677 -30.932   6.716  0.00  0.00    -0.253 N 
ATOM     56  C   LIG    1       23.496 -30.027   6.782  0.00  0.00    +0.141 C 
ATOM     57  C   LIG    1       23.885 -28.535   6.689  0.00  0.00    +0.105 C 
ATOM     58  N   LIG    1       24.638 -28.181   5.463  0.00  0.00    -0.296 NA
ATOM     59  C   LIG    1       25.687 -29.194   5.184  0.00  0.00    +0.105 C 
ATOM     60  C   LIG    1       25.268 -30.672   5.380  0.00  0.00    +0.141 C 
BRANCH  58  61
ATOM     61  C   LIG    1       25.229 -26.829   5.573  0.00  0.00    +0.057 C 
ATOM     62  C   LIG    1       24.237 -25.734   5.987  0.00  0.00    +0.019 C 
ATOM     63  C   LIG    1       25.128 -24.608   6.490  0.00  0.00    +0.002 C 
ATOM     64  C   LIG    1       26.233 -25.323   7.249  0.00  0.00    +0.002 C 
ATOM     65  C   LIG    1       26.366 -26.703   6.608  0.00  0.00    +0.019 C 
ENDBRANCH  58  61
ENDBRANCH  54  55
ENDBRANCH  39  53
BRANCH   4  66
ATOM     66  O   LIG    1       18.344 -27.749  13.227  0.00  0.00    -0.461 OA
BRANCH  66  67
ATOM     67  C   LIG    1       18.158 -26.400  13.223  0.00  0.00    +0.304 C 
ATOM     68  O   LIG    1       18.835 -25.568  12.634  0.00  0.00    -0.251 OA
ATOM     69  C   LIG    1       16.903 -26.081  13.976  0.00  0.00    +0.136 C 
ENDBRANCH  66  67
ENDBRANCH   4  66
TORSDOF 11
ENDMDL
