MODEL 1
REMARK VINA RESULT:      -2.9      0.000      0.000
REMARK  Name = *****
REMARK                            x       y       z     vdW  Elec       q    Type
REMARK                         _______ _______ _______ _____ _____    ______ ____
ROOT
ATOM      1  C   LIG    1       25.475 -18.358   3.633  0.00  0.00    +0.073 A 
ATOM      2  C   LIG    1       26.420 -19.095   4.396  0.00  0.00    +0.175 A 
ATOM      3  C   LIG    1       27.597 -18.484   4.841  0.00  0.00    +0.150 A 
ATOM      4  C   LIG    1       27.881 -17.163   4.476  0.00  0.00    +0.047 A 
ATOM      5  C   LIG    1       27.007 -16.459   3.644  0.00  0.00    +0.063 A 
ATOM      6  C   LIG    1       25.801 -17.046   3.245  0.00  0.00    +0.041 A 
ENDROOT
BRANCH   3   7
ATOM      7  S   LIG    1       28.735 -19.253   5.955  0.00  0.00    +0.059 S 
ATOM      8  O   LIG    1       29.473 -18.270   6.702  0.00  0.00    -0.153 OA
ATOM      9  O   LIG    1       29.408 -20.313   5.247  0.00  0.00    -0.153 OA
BRANCH   7  10
ATOM     10  N   LIG    1       27.744 -20.043   7.061  0.00  0.00    -0.203 NA
ATOM     11  H   LIG    1       28.293 -20.772   7.528  0.00  0.00    +0.144 HD
ATOM     12  H   LIG    1       26.937 -20.436   6.570  0.00  0.00    +0.144 HD
ENDBRANCH   7  10
ENDBRANCH   3   7
BRANCH   1  13
ATOM     13  N   LIG    1       24.224 -18.878   3.254  0.00  0.00    -0.341 N 
ATOM     14  H   LIG    1       24.253 -19.435   2.404  0.00  0.00    +0.146 HD
BRANCH  13  15
ATOM     15  C   LIG    1       23.088 -17.949   3.267  0.00  0.00    +0.101 C 
BRANCH  15  16
ATOM     16  C   LIG    1       22.357 -18.013   4.613  0.00  0.00    +0.018 C 
BRANCH  16  18
ATOM     17  C   LIG    1       22.871 -15.541   4.510  0.00  0.00    +0.004 C 
ATOM     18  C   LIG    1       21.982 -16.617   5.114  0.00  0.00    -0.002 C 
ENDBRANCH  16  18
ENDBRANCH  15  16
ENDBRANCH  13  15
ENDBRANCH   1  13
BRANCH   5  19
ATOM     19  C   LIG    1       27.329 -15.074   3.215  0.00  0.00    +0.337 C 
ATOM     20  O   LIG    1       26.847 -14.554   2.224  0.00  0.00    -0.245 OA
BRANCH  19  21
ATOM     21  O   LIG    1       28.236 -14.459   4.004  0.00  0.00    -0.477 OA
ATOM     22  H   LIG    1       27.972 -14.310   4.931  0.00  0.00    +0.295 HD
ENDBRANCH  19  21
ENDBRANCH   5  19
BRANCH   2  23
ATOM     23  O   LIG    1       26.202 -20.425   4.688  0.00  0.00    -0.452 OA
BRANCH  23  24
ATOM     24  C   LIG    1       24.941 -20.767   5.139  0.00  0.00    +0.129 A 
ATOM     25  C   LIG    1       23.904 -21.201   4.306  0.00  0.00    +0.046 A 
ATOM     26  C   LIG    1       22.655 -21.511   4.847  0.00  0.00    +0.004 A 
ATOM     27  C   LIG    1       22.445 -21.408   6.222  0.00  0.00    +0.000 A 
ATOM     28  C   LIG    1       23.486 -21.006   7.058  0.00  0.00    +0.004 A 
ATOM     29  C   LIG    1       24.735 -20.692   6.517  0.00  0.00    +0.046 A 
ENDBRANCH  23  24
ENDBRANCH   2  23
TORSDOF 10
ENDMDL
MODEL 2
REMARK VINA RESULT:      -2.0      3.179      7.116
REMARK  Name = *****
REMARK                            x       y       z     vdW  Elec       q    Type
REMARK                         _______ _______ _______ _____ _____    ______ ____
ROOT
ATOM      1  C   LIG    1       26.323 -17.215   3.671  0.00  0.00    +0.073 A 
ATOM      2  C   LIG    1       26.030 -15.868   3.327  0.00  0.00    +0.175 A 
ATOM      3  C   LIG    1       24.717 -15.391   3.407  0.00  0.00    +0.150 A 
ATOM      4  C   LIG    1       23.677 -16.258   3.758  0.00  0.00    +0.047 A 
ATOM      5  C   LIG    1       23.937 -17.608   4.003  0.00  0.00    +0.063 A 
ATOM      6  C   LIG    1       25.256 -18.078   3.981  0.00  0.00    +0.041 A 
ENDROOT
BRANCH   3   7
ATOM      7  S   LIG    1       24.284 -13.690   3.192  0.00  0.00    +0.059 S 
ATOM      8  O   LIG    1       24.765 -12.891   4.287  0.00  0.00    -0.153 OA
ATOM      9  O   LIG    1       22.907 -13.628   2.770  0.00  0.00    -0.153 OA
BRANCH   7  10
ATOM     10  N   LIG    1       25.164 -13.218   1.838  0.00  0.00    -0.203 NA
ATOM     11  H   LIG    1       25.887 -13.921   1.657  0.00  0.00    +0.144 HD
ATOM     12  H   LIG    1       25.570 -12.294   2.007  0.00  0.00    +0.144 HD
ENDBRANCH   7  10
ENDBRANCH   3   7
BRANCH   1  13
ATOM     13  N   LIG    1       27.634 -17.725   3.723  0.00  0.00    -0.341 N 
ATOM     14  H   LIG    1       27.988 -18.035   2.821  0.00  0.00    +0.146 HD
BRANCH  13  15
ATOM     15  C   LIG    1       27.930 -18.685   4.792  0.00  0.00    +0.101 C 
BRANCH  15  16
ATOM     16  C   LIG    1       29.268 -18.348   5.461  0.00  0.00    +0.018 C 
BRANCH  16  18
ATOM     17  C   LIG    1       28.859 -20.545   6.640  0.00  0.00    +0.004 C 
ATOM     18  C   LIG    1       29.475 -19.158   6.742  0.00  0.00    -0.002 C 
ENDBRANCH  16  18
ENDBRANCH  15  16
ENDBRANCH  13  15
ENDBRANCH   1  13
BRANCH   5  19
ATOM     19  C   LIG    1       22.829 -18.542   4.328  0.00  0.00    +0.337 C 
ATOM     20  O   LIG    1       21.660 -18.299   4.087  0.00  0.00    -0.245 OA
BRANCH  19  21
ATOM     21  O   LIG    1       23.235 -19.668   4.952  0.00  0.00    -0.477 OA
ATOM     22  H   LIG    1       22.875 -20.507   4.609  0.00  0.00    +0.295 HD
ENDBRANCH  19  21
ENDBRANCH   5  19
BRANCH   2  23
ATOM     23  O   LIG    1       27.027 -15.023   2.891  0.00  0.00    -0.452 OA
BRANCH  23  24
ATOM     24  C   LIG    1       27.552 -14.143   3.819  0.00  0.00    +0.129 A 
ATOM     25  C   LIG    1       27.240 -14.168   5.183  0.00  0.00    +0.046 A 
ATOM     26  C   LIG    1       27.807 -13.228   6.046  0.00  0.00    +0.004 A 
ATOM     27  C   LIG    1       28.700 -12.277   5.555  0.00  0.00    +0.000 A 
ATOM     28  C   LIG    1       29.037 -12.271   4.201  0.00  0.00    +0.004 A 
ATOM     29  C   LIG    1       28.468 -13.208   3.336  0.00  0.00    +0.046 A 
ENDBRANCH  23  24
ENDBRANCH   2  23
TORSDOF 10
ENDMDL
MODEL 3
REMARK VINA RESULT:      -1.6      2.601      5.672
REMARK  Name = *****
REMARK                            x       y       z     vdW  Elec       q    Type
REMARK                         _______ _______ _______ _____ _____    ______ ____
ROOT
ATOM      1  C   LIG    1       26.110 -17.356   3.458  0.00  0.00    +0.073 A 
ATOM      2  C   LIG    1       26.354 -15.964   3.308  0.00  0.00    +0.175 A 
ATOM      3  C   LIG    1       27.517 -15.392   3.836  0.00  0.00    +0.150 A 
ATOM      4  C   LIG    1       28.410 -16.176   4.575  0.00  0.00    +0.047 A 
ATOM      5  C   LIG    1       28.132 -17.524   4.813  0.00  0.00    +0.063 A 
ATOM      6  C   LIG    1       27.000 -18.114   4.238  0.00  0.00    +0.041 A 
ENDROOT
BRANCH   3   7
ATOM      7  S   LIG    1       28.004 -13.719   3.534  0.00  0.00    +0.059 S 
ATOM      8  O   LIG    1       27.235 -13.142   2.463  0.00  0.00    -0.153 OA
ATOM      9  O   LIG    1       29.444 -13.664   3.533  0.00  0.00    -0.153 OA
BRANCH   7  10
ATOM     10  N   LIG    1       27.548 -12.907   4.935  0.00  0.00    -0.203 NA
ATOM     11  H   LIG    1       26.875 -12.176   4.685  0.00  0.00    +0.144 HD
ATOM     12  H   LIG    1       28.381 -12.516   5.383  0.00  0.00    +0.144 HD
ENDBRANCH   7  10
ENDBRANCH   3   7
BRANCH   1  13
ATOM     13  N   LIG    1       25.021 -18.012   2.855  0.00  0.00    -0.341 N 
ATOM     14  H   LIG    1       24.285 -17.383   2.545  0.00  0.00    +0.146 HD
BRANCH  13  15
ATOM     15  C   LIG    1       24.485 -19.187   3.553  0.00  0.00    +0.101 C 
BRANCH  15  16
ATOM     16  C   LIG    1       23.074 -18.901   4.080  0.00  0.00    +0.018 C 
BRANCH  16  18
ATOM     17  C   LIG    1       23.572 -20.406   6.047  0.00  0.00    +0.004 C 
ATOM     18  C   LIG    1       22.566 -20.038   4.968  0.00  0.00    -0.002 C 
ENDBRANCH  16  18
ENDBRANCH  15  16
ENDBRANCH  13  15
ENDBRANCH   1  13
BRANCH   5  19
ATOM     19  C   LIG    1       29.053 -18.347   5.637  0.00  0.00    +0.337 C 
ATOM     20  O   LIG    1       29.370 -19.487   5.347  0.00  0.00    -0.245 OA
BRANCH  19  21
ATOM     21  O   LIG    1       29.475 -17.728   6.761  0.00  0.00    -0.477 OA
ATOM     22  H   LIG    1       28.779 -17.389   7.355  0.00  0.00    +0.295 HD
ENDBRANCH  19  21
ENDBRANCH   5  19
BRANCH   2  23
ATOM     23  O   LIG    1       25.441 -15.158   2.663  0.00  0.00    -0.452 OA
BRANCH  23  24
ATOM     24  C   LIG    1       24.842 -14.165   3.415  0.00  0.00    +0.129 A 
ATOM     25  C   LIG    1       24.573 -14.276   4.783  0.00  0.00    +0.046 A 
ATOM     26  C   LIG    1       23.949 -13.226   5.460  0.00  0.00    +0.004 A 
ATOM     27  C   LIG    1       23.613 -12.057   4.779  0.00  0.00    +0.000 A 
ATOM     28  C   LIG    1       23.909 -11.932   3.421  0.00  0.00    +0.004 A 
ATOM     29  C   LIG    1       24.529 -12.982   2.742  0.00  0.00    +0.046 A 
ENDBRANCH  23  24
ENDBRANCH   2  23
TORSDOF 10
ENDMDL
MODEL 4
REMARK VINA RESULT:      -0.8      2.952      4.603
REMARK  Name = *****
REMARK                            x       y       z     vdW  Elec       q    Type
REMARK                         _______ _______ _______ _____ _____    ______ ____
ROOT
ATOM      1  C   LIG    1       24.459 -15.433   3.892  0.00  0.00    +0.073 A 
ATOM      2  C   LIG    1       25.841 -15.325   3.583  0.00  0.00    +0.175 A 
ATOM      3  C   LIG    1       26.544 -14.156   3.895  0.00  0.00    +0.150 A 
ATOM      4  C   LIG    1       25.871 -13.062   4.449  0.00  0.00    +0.047 A 
ATOM      5  C   LIG    1       24.492 -13.119   4.668  0.00  0.00    +0.063 A 
ATOM      6  C   LIG    1       23.796 -14.307   4.412  0.00  0.00    +0.041 A 
ENDROOT
BRANCH   3   7
ATOM      7  S   LIG    1       28.297 -13.999   3.730  0.00  0.00    +0.059 S 
ATOM      8  O   LIG    1       28.674 -13.818   2.354  0.00  0.00    -0.153 OA
ATOM      9  O   LIG    1       28.917 -15.013   4.547  0.00  0.00    -0.153 OA
BRANCH   7  10
ATOM     10  N   LIG    1       28.648 -12.551   4.512  0.00  0.00    -0.203 NA
ATOM     11  H   LIG    1       29.618 -12.584   4.839  0.00  0.00    +0.144 HD
ATOM     12  H   LIG    1       27.993 -12.420   5.287  0.00  0.00    +0.144 HD
ENDBRANCH   7  10
ENDBRANCH   3   7
BRANCH   1  13
ATOM     13  N   LIG    1       23.723 -16.619   3.710  0.00  0.00    -0.341 N 
ATOM     14  H   LIG    1       23.521 -16.829   2.735  0.00  0.00    +0.146 HD
BRANCH  13  15
ATOM     15  C   LIG    1       22.549 -16.810   4.570  0.00  0.00    +0.101 C 
BRANCH  15  16
ATOM     16  C   LIG    1       21.941 -18.199   4.347  0.00  0.00    +0.018 C 
BRANCH  16  18
ATOM     17  C   LIG    1       22.354 -20.636   4.872  0.00  0.00    +0.004 C 
ATOM     18  C   LIG    1       22.448 -19.206   5.381  0.00  0.00    -0.002 C 
ENDBRANCH  16  18
ENDBRANCH  15  16
ENDBRANCH  13  15
ENDBRANCH   1  13
BRANCH   5  19
ATOM     19  C   LIG    1       23.767 -11.943   5.211  0.00  0.00    +0.337 C 
ATOM     20  O   LIG    1       22.797 -11.447   4.665  0.00  0.00    -0.245 OA
BRANCH  19  21
ATOM     21  O   LIG    1       24.306 -11.450   6.347  0.00  0.00    -0.477 OA
ATOM     22  H   LIG    1       24.242 -12.018   7.137  0.00  0.00    +0.295 HD
ENDBRANCH  19  21
ENDBRANCH   5  19
BRANCH   2  23
ATOM     23  O   LIG    1       26.501 -16.358   2.952  0.00  0.00    -0.452 OA
BRANCH  23  24
ATOM     24  C   LIG    1       26.640 -17.536   3.662  0.00  0.00    +0.129 A 
ATOM     25  C   LIG    1       25.720 -18.589   3.616  0.00  0.00    +0.046 A 
ATOM     26  C   LIG    1       25.935 -19.738   4.380  0.00  0.00    +0.004 A 
ATOM     27  C   LIG    1       27.077 -19.847   5.172  0.00  0.00    +0.000 A 
ATOM     28  C   LIG    1       28.011 -18.812   5.194  0.00  0.00    +0.004 A 
ATOM     29  C   LIG    1       27.796 -17.660   4.434  0.00  0.00    +0.046 A 
ENDBRANCH  23  24
ENDBRANCH   2  23
TORSDOF 10
ENDMDL
MODEL 5
REMARK VINA RESULT:      -0.5      2.639      4.567
REMARK  Name = *****
REMARK                            x       y       z     vdW  Elec       q    Type
REMARK                         _______ _______ _______ _____ _____    ______ ____
ROOT
ATOM      1  C   LIG    1       26.561 -18.284   3.919  0.00  0.00    +0.073 A 
ATOM      2  C   LIG    1       25.390 -19.069   4.100  0.00  0.00    +0.175 A 
ATOM      3  C   LIG    1       25.323 -20.003   5.140  0.00  0.00    +0.150 A 
ATOM      4  C   LIG    1       26.435 -20.217   5.962  0.00  0.00    +0.047 A 
ATOM      5  C   LIG    1       27.624 -19.521   5.733  0.00  0.00    +0.063 A 
ATOM      6  C   LIG    1       27.678 -18.545   4.732  0.00  0.00    +0.041 A 
ENDROOT
BRANCH   3   7
ATOM      7  S   LIG    1       23.849 -20.882   5.566  0.00  0.00    +0.059 S 
ATOM      8  O   LIG    1       24.002 -21.572   6.819  0.00  0.00    -0.153 OA
ATOM      9  O   LIG    1       23.379 -21.567   4.388  0.00  0.00    -0.153 OA
BRANCH   7  10
ATOM     10  N   LIG    1       22.716 -19.666   5.830  0.00  0.00    -0.203 NA
ATOM     11  H   LIG    1       21.780 -20.082   5.814  0.00  0.00    +0.144 HD
ATOM     12  H   LIG    1       22.821 -18.946   5.110  0.00  0.00    +0.144 HD
ENDBRANCH   7  10
ENDBRANCH   3   7
BRANCH   1  13
ATOM     13  N   LIG    1       26.650 -17.250   2.968  0.00  0.00    -0.341 N 
ATOM     14  H   LIG    1       27.213 -17.490   2.155  0.00  0.00    +0.146 HD
BRANCH  13  15
ATOM     15  C   LIG    1       26.956 -15.907   3.474  0.00  0.00    +0.101 C 
BRANCH  15  16
ATOM     16  C   LIG    1       25.894 -14.904   3.010  0.00  0.00    +0.018 C 
BRANCH  16  18
ATOM     17  C   LIG    1       24.394 -13.063   3.872  0.00  0.00    +0.004 C 
ATOM     18  C   LIG    1       25.747 -13.745   3.999  0.00  0.00    -0.002 C 
ENDBRANCH  16  18
ENDBRANCH  15  16
ENDBRANCH  13  15
ENDBRANCH   1  13
BRANCH   5  19
ATOM     19  C   LIG    1       28.821 -19.781   6.573  0.00  0.00    +0.337 C 
ATOM     20  O   LIG    1       29.194 -20.901   6.875  0.00  0.00    -0.245 OA
BRANCH  19  21
ATOM     21  O   LIG    1       29.434 -18.658   7.005  0.00  0.00    -0.477 OA
ATOM     22  H   LIG    1       28.855 -17.961   7.366  0.00  0.00    +0.295 HD
ENDBRANCH  19  21
ENDBRANCH   5  19
BRANCH   2  23
ATOM     23  O   LIG    1       24.319 -18.938   3.243  0.00  0.00    -0.452 OA
BRANCH  23  24
ATOM     24  C   LIG    1       23.257 -18.171   3.683  0.00  0.00    +0.129 A 
ATOM     25  C   LIG    1       21.914 -18.500   3.470  0.00  0.00    +0.046 A 
ATOM     26  C   LIG    1       20.905 -17.656   3.938  0.00  0.00    +0.004 A 
ATOM     27  C   LIG    1       21.233 -16.495   4.637  0.00  0.00    +0.000 A 
ATOM     28  C   LIG    1       22.570 -16.181   4.878  0.00  0.00    +0.004 A 
ATOM     29  C   LIG    1       23.581 -17.022   4.407  0.00  0.00    +0.046 A 
ENDBRANCH  23  24
ENDBRANCH   2  23
TORSDOF 10
ENDMDL
