MODEL 1
REMARK VINA RESULT:      -9.6      0.000      0.000
REMARK  Name = *****
REMARK                            x       y       z     vdW  Elec       q    Type
REMARK                         _______ _______ _______ _____ _____    ______ ____
ROOT
ATOM      1  C   LIG    1       25.694 -21.557   6.711  0.00  0.00    +0.050 C 
ATOM      2  C   LIG    1       25.177 -22.982   6.501  0.00  0.00    -0.033 A 
ATOM      3  C   LIG    1       23.814 -23.265   6.745  0.00  0.00    -0.021 A 
ATOM      4  C   LIG    1       23.354 -24.589   6.670  0.00  0.00    +0.008 A 
ATOM      5  C   LIG    1       24.213 -25.623   6.299  0.00  0.00    +0.001 A 
ATOM      6  C   LIG    1       25.533 -25.338   5.973  0.00  0.00    +0.000 A 
ATOM      7  C   LIG    1       22.833 -22.218   7.086  0.00  0.00    +0.009 C 
ATOM      8  C   LIG    1       22.791 -20.980   6.572  0.00  0.00    +0.009 C 
ATOM      9  C   LIG    1       23.727 -20.401   5.588  0.00  0.00    -0.021 A 
ATOM     10  C   LIG    1       23.195 -19.552   4.605  0.00  0.00    +0.008 A 
ATOM     11  C   LIG    1       24.021 -18.953   3.654  0.00  0.00    +0.001 A 
ATOM     12  C   LIG    1       25.390 -19.191   3.679  0.00  0.00    +0.000 A 
ATOM     13  C   LIG    1       25.936 -20.029   4.654  0.00  0.00    +0.005 A 
ATOM     14  C   LIG    1       26.006 -24.027   6.057  0.00  0.00    +0.005 A 
ATOM     15  C   LIG    1       25.123 -20.637   5.627  0.00  0.00    -0.033 A 
ENDROOT
BRANCH   1  16
ATOM     16  C   LIG    1       27.225 -21.415   6.937  0.00  0.00    +0.014 C 
BRANCH  16  17
ATOM     17  C   LIG    1       27.606 -20.300   7.926  0.00  0.00    +0.016 C 
BRANCH  17  18
ATOM     18  C   LIG    1       29.037 -19.783   7.720  0.00  0.00    +0.080 C 
BRANCH  18  20
ATOM     19  C   LIG    1       31.003 -20.796   8.674  0.00  0.00    +0.101 C 
ATOM     20  N   LIG    1       30.010 -20.871   7.609  0.00  0.00    -0.319 NA
ATOM     21  H   LIG    1       29.531 -21.770   7.658  0.00  0.00    +0.122 HD
ENDBRANCH  18  20
ENDBRANCH  17  18
ENDBRANCH  16  17
ENDBRANCH   1  16
TORSDOF 4
ENDMDL
MODEL 2
REMARK VINA RESULT:      -8.2      2.111      4.734
REMARK  Name = *****
REMARK                            x       y       z     vdW  Elec       q    Type
REMARK                         _______ _______ _______ _____ _____    ______ ____
ROOT
ATOM      1  C   LIG    1       24.240 -21.528   5.884  0.00  0.00    +0.050 C 
ATOM      2  C   LIG    1       25.329 -21.016   6.830  0.00  0.00    -0.033 A 
ATOM      3  C   LIG    1       26.530 -20.504   6.288  0.00  0.00    -0.021 A 
ATOM      4  C   LIG    1       27.581 -20.142   7.145  0.00  0.00    +0.008 A 
ATOM      5  C   LIG    1       27.435 -20.225   8.529  0.00  0.00    +0.001 A 
ATOM      6  C   LIG    1       26.226 -20.644   9.069  0.00  0.00    +0.000 A 
ATOM      7  C   LIG    1       26.739 -20.332   4.838  0.00  0.00    +0.009 C 
ATOM      8  C   LIG    1       25.817 -19.927   3.952  0.00  0.00    +0.009 C 
ATOM      9  C   LIG    1       24.405 -19.600   4.235  0.00  0.00    -0.021 A 
ATOM     10  C   LIG    1       23.835 -18.523   3.537  0.00  0.00    +0.008 A 
ATOM     11  C   LIG    1       22.502 -18.167   3.738  0.00  0.00    +0.001 A 
ATOM     12  C   LIG    1       21.721 -18.888   4.633  0.00  0.00    +0.000 A 
ATOM     13  C   LIG    1       22.271 -19.965   5.329  0.00  0.00    +0.005 A 
ATOM     14  C   LIG    1       25.177 -21.021   8.228  0.00  0.00    +0.005 A 
ATOM     15  C   LIG    1       23.611 -20.347   5.137  0.00  0.00    -0.033 A 
ENDROOT
BRANCH   1  16
ATOM     16  C   LIG    1       23.217 -22.521   6.500  0.00  0.00    +0.014 C 
BRANCH  16  17
ATOM     17  C   LIG    1       23.700 -23.982   6.514  0.00  0.00    +0.016 C 
BRANCH  17  18
ATOM     18  C   LIG    1       24.991 -24.192   5.711  0.00  0.00    +0.080 C 
BRANCH  18  20
ATOM     19  C   LIG    1       25.594 -26.383   4.910  0.00  0.00    +0.101 C 
ATOM     20  N   LIG    1       24.824 -25.174   4.638  0.00  0.00    -0.319 NA
ATOM     21  H   LIG    1       23.839 -25.419   4.543  0.00  0.00    +0.122 HD
ENDBRANCH  18  20
ENDBRANCH  17  18
ENDBRANCH  16  17
ENDBRANCH   1  16
TORSDOF 4
ENDMDL
MODEL 3
REMARK VINA RESULT:      -7.9      2.382      5.802
REMARK  Name = *****
REMARK                            x       y       z     vdW  Elec       q    Type
REMARK                         _______ _______ _______ _____ _____    ______ ____
ROOT
ATOM      1  C   LIG    1       25.139 -21.031   6.122  0.00  0.00    +0.050 C 
ATOM      2  C   LIG    1       26.554 -20.466   6.268  0.00  0.00    -0.033 A 
ATOM      3  C   LIG    1       27.246 -20.643   7.487  0.00  0.00    -0.021 A 
ATOM      4  C   LIG    1       28.494 -20.029   7.674  0.00  0.00    +0.008 A 
ATOM      5  C   LIG    1       29.089 -19.294   6.649  0.00  0.00    +0.001 A 
ATOM      6  C   LIG    1       28.453 -19.190   5.419  0.00  0.00    +0.000 A 
ATOM      7  C   LIG    1       26.710 -21.454   8.596  0.00  0.00    +0.009 C 
ATOM      8  C   LIG    1       26.025 -22.601   8.474  0.00  0.00    +0.009 C 
ATOM      9  C   LIG    1       25.643 -23.271   7.215  0.00  0.00    -0.021 A 
ATOM     10  C   LIG    1       25.691 -24.673   7.185  0.00  0.00    +0.008 A 
ATOM     11  C   LIG    1       25.327 -25.377   6.036  0.00  0.00    +0.001 A 
ATOM     12  C   LIG    1       24.904 -24.686   4.908  0.00  0.00    +0.000 A 
ATOM     13  C   LIG    1       24.844 -23.291   4.924  0.00  0.00    +0.005 A 
ATOM     14  C   LIG    1       27.204 -19.784   5.224  0.00  0.00    +0.005 A 
ATOM     15  C   LIG    1       25.199 -22.562   6.074  0.00  0.00    -0.033 A 
ENDROOT
BRANCH   1  16
ATOM     16  C   LIG    1       24.259 -20.385   5.017  0.00  0.00    +0.014 C 
BRANCH  16  17
ATOM     17  C   LIG    1       22.782 -20.223   5.415  0.00  0.00    +0.016 C 
BRANCH  17  18
ATOM     18  C   LIG    1       22.042 -19.187   4.557  0.00  0.00    +0.080 C 
BRANCH  18  20
ATOM     19  C   LIG    1       22.260 -16.790   4.658  0.00  0.00    +0.101 C 
ATOM     20  N   LIG    1       22.884 -18.036   4.228  0.00  0.00    -0.319 NA
ATOM     21  H   LIG    1       23.792 -18.130   4.682  0.00  0.00    +0.122 HD
ENDBRANCH  18  20
ENDBRANCH  17  18
ENDBRANCH  16  17
ENDBRANCH   1  16
TORSDOF 4
ENDMDL
MODEL 4
REMARK VINA RESULT:      -7.4      2.124      5.181
REMARK  Name = *****
REMARK                            x       y       z     vdW  Elec       q    Type
REMARK                         _______ _______ _______ _____ _____    ______ ____
ROOT
ATOM      1  C   LIG    1       25.897 -21.623   6.305  0.00  0.00    +0.050 C 
ATOM      2  C   LIG    1       27.030 -20.696   6.752  0.00  0.00    -0.033 A 
ATOM      3  C   LIG    1       27.725 -19.937   5.784  0.00  0.00    -0.021 A 
ATOM      4  C   LIG    1       28.840 -19.176   6.165  0.00  0.00    +0.008 A 
ATOM      5  C   LIG    1       29.238 -19.111   7.500  0.00  0.00    +0.001 A 
ATOM      6  C   LIG    1       28.506 -19.785   8.469  0.00  0.00    +0.000 A 
ATOM      7  C   LIG    1       27.330 -19.908   4.363  0.00  0.00    +0.009 C 
ATOM      8  C   LIG    1       26.073 -19.909   3.895  0.00  0.00    +0.009 C 
ATOM      9  C   LIG    1       24.833 -19.968   4.694  0.00  0.00    -0.021 A 
ATOM     10  C   LIG    1       23.739 -19.205   4.255  0.00  0.00    +0.008 A 
ATOM     11  C   LIG    1       22.529 -19.226   4.949  0.00  0.00    +0.001 A 
ATOM     12  C   LIG    1       22.397 -20.015   6.085  0.00  0.00    +0.000 A 
ATOM     13  C   LIG    1       23.473 -20.784   6.531  0.00  0.00    +0.005 A 
ATOM     14  C   LIG    1       27.403 -20.558   8.101  0.00  0.00    +0.005 A 
ATOM     15  C   LIG    1       24.700 -20.785   5.842  0.00  0.00    -0.033 A 
ENDROOT
BRANCH   1  16
ATOM     16  C   LIG    1       25.537 -22.777   7.281  0.00  0.00    +0.014 C 
BRANCH  16  17
ATOM     17  C   LIG    1       25.352 -24.139   6.590  0.00  0.00    +0.016 C 
BRANCH  17  18
ATOM     18  C   LIG    1       23.880 -24.564   6.492  0.00  0.00    +0.080 C 
BRANCH  18  20
ATOM     19  C   LIG    1       24.975 -26.216   5.121  0.00  0.00    +0.101 C 
ATOM     20  N   LIG    1       23.701 -25.758   5.663  0.00  0.00    -0.319 NA
ATOM     21  H   LIG    1       23.284 -26.505   6.218  0.00  0.00    +0.122 HD
ENDBRANCH  18  20
ENDBRANCH  17  18
ENDBRANCH  16  17
ENDBRANCH   1  16
TORSDOF 4
ENDMDL
MODEL 5
REMARK VINA RESULT:      -7.0      2.143      5.049
REMARK  Name = *****
REMARK                            x       y       z     vdW  Elec       q    Type
REMARK                         _______ _______ _______ _____ _____    ______ ____
ROOT
ATOM      1  C   LIG    1       24.642 -22.419   5.930  0.00  0.00    +0.050 C 
ATOM      2  C   LIG    1       24.027 -21.276   5.120  0.00  0.00    -0.033 A 
ATOM      3  C   LIG    1       23.210 -20.327   5.775  0.00  0.00    -0.021 A 
ATOM      4  C   LIG    1       22.546 -19.344   5.024  0.00  0.00    +0.008 A 
ATOM      5  C   LIG    1       22.730 -19.254   3.645  0.00  0.00    +0.001 A 
ATOM      6  C   LIG    1       23.601 -20.129   3.008  0.00  0.00    +0.000 A 
ATOM      7  C   LIG    1       23.012 -20.321   7.236  0.00  0.00    +0.009 C 
ATOM      8  C   LIG    1       23.947 -20.595   8.158  0.00  0.00    +0.009 C 
ATOM      9  C   LIG    1       25.349 -20.984   7.906  0.00  0.00    -0.021 A 
ATOM     10  C   LIG    1       26.330 -20.479   8.774  0.00  0.00    +0.008 A 
ATOM     11  C   LIG    1       27.673 -20.819   8.609  0.00  0.00    +0.001 A 
ATOM     12  C   LIG    1       28.049 -21.672   7.579  0.00  0.00    +0.000 A 
ATOM     13  C   LIG    1       27.084 -22.188   6.712  0.00  0.00    +0.005 A 
ATOM     14  C   LIG    1       24.256 -21.120   3.741  0.00  0.00    +0.005 A 
ATOM     15  C   LIG    1       25.723 -21.865   6.864  0.00  0.00    -0.033 A 
ENDROOT
BRANCH   1  16
ATOM     16  C   LIG    1       25.071 -23.673   5.119  0.00  0.00    +0.014 C 
BRANCH  16  17
ATOM     17  C   LIG    1       24.788 -25.004   5.836  0.00  0.00    +0.016 C 
BRANCH  17  18
ATOM     18  C   LIG    1       26.038 -25.609   6.488  0.00  0.00    +0.080 C 
BRANCH  18  20
ATOM     19  C   LIG    1       25.706 -27.613   5.192  0.00  0.00    +0.101 C 
ATOM     20  N   LIG    1       26.674 -26.618   5.639  0.00  0.00    -0.319 NA
ATOM     21  H   LIG    1       27.096 -26.171   4.826  0.00  0.00    +0.122 HD
ENDBRANCH  18  20
ENDBRANCH  17  18
ENDBRANCH  16  17
ENDBRANCH   1  16
TORSDOF 4
ENDMDL
