MODEL 1
REMARK VINA RESULT:      -6.9      0.000      0.000
REMARK  Name = *****
REMARK                            x       y       z     vdW  Elec       q    Type
REMARK                         _______ _______ _______ _____ _____    ______ ____
ROOT
ATOM      1  C   LIG    1       26.664 -20.803   6.465  0.00  0.00    +0.026 C 
ATOM      2  C   LIG    1       25.142 -21.155   6.732  0.00  0.00    +0.109 C 
ATOM      3  C   LIG    1       24.508 -20.146   5.769  0.00  0.00    +0.136 C 
ATOM      4  O   LIG    1       24.670 -20.949   4.524  0.00  0.00    -0.371 OA
ATOM      5  C   LIG    1       23.734 -21.987   4.869  0.00  0.00    +0.136 C 
ATOM      6  C   LIG    1       22.482 -21.117   4.928  0.00  0.00    +0.035 C 
ATOM      7  C   LIG    1       23.008 -19.894   5.683  0.00  0.00    +0.035 C 
ATOM      8  C   LIG    1       24.256 -22.370   6.247  0.00  0.00    +0.109 C 
ATOM      9  C   LIG    1       23.067 -22.818   7.189  0.00  0.00    +0.026 C 
ATOM     10  C   LIG    1       25.268 -23.421   6.340  0.00  0.00    +0.324 C 
ATOM     11  O   LIG    1       25.481 -24.339   5.546  0.00  0.00    -0.250 OA
ATOM     12  O   LIG    1       25.851 -23.217   7.556  0.00  0.00    -0.392 OA
ATOM     13  C   LIG    1       25.442 -21.943   7.987  0.00  0.00    +0.324 C 
ATOM     14  O   LIG    1       25.480 -21.577   9.155  0.00  0.00    -0.250 OA
ENDROOT
TORSDOF 0
ENDMDL
MODEL 2
REMARK VINA RESULT:      -6.8      1.747      2.870
REMARK  Name = *****
REMARK                            x       y       z     vdW  Elec       q    Type
REMARK                         _______ _______ _______ _____ _____    ______ ____
ROOT
ATOM      1  C   LIG    1       23.475 -20.383   7.515  0.00  0.00    +0.026 C 
ATOM      2  C   LIG    1       24.436 -21.641   7.460  0.00  0.00    +0.109 C 
ATOM      3  C   LIG    1       23.439 -22.659   6.894  0.00  0.00    +0.136 C 
ATOM      4  O   LIG    1       23.564 -22.265   5.462  0.00  0.00    -0.371 OA
ATOM      5  C   LIG    1       24.919 -22.718   5.280  0.00  0.00    +0.136 C 
ATOM      6  C   LIG    1       24.670 -24.203   5.531  0.00  0.00    +0.035 C 
ATOM      7  C   LIG    1       23.744 -24.144   6.750  0.00  0.00    +0.035 C 
ATOM      8  C   LIG    1       25.593 -22.022   6.454  0.00  0.00    +0.109 C 
ATOM      9  C   LIG    1       26.779 -22.904   7.018  0.00  0.00    +0.026 C 
ATOM     10  C   LIG    1       26.143 -20.683   6.246  0.00  0.00    +0.324 C 
ATOM     11  O   LIG    1       26.524 -20.177   5.189  0.00  0.00    -0.250 OA
ATOM     12  O   LIG    1       26.237 -20.163   7.503  0.00  0.00    -0.392 OA
ATOM     13  C   LIG    1       25.485 -21.003   8.342  0.00  0.00    +0.324 C 
ATOM     14  O   LIG    1       25.624 -21.049   9.558  0.00  0.00    -0.250 OA
ENDROOT
TORSDOF 0
ENDMDL
MODEL 3
REMARK VINA RESULT:      -6.7      1.519      3.442
REMARK  Name = *****
REMARK                            x       y       z     vdW  Elec       q    Type
REMARK                         _______ _______ _______ _____ _____    ______ ____
ROOT
ATOM      1  C   LIG    1       25.444 -24.213   6.079  0.00  0.00    +0.026 C 
ATOM      2  C   LIG    1       24.856 -22.990   6.897  0.00  0.00    +0.109 C 
ATOM      3  C   LIG    1       26.045 -22.755   7.834  0.00  0.00    +0.136 C 
ATOM      4  O   LIG    1       26.877 -21.962   6.884  0.00  0.00    -0.371 OA
ATOM      5  C   LIG    1       26.024 -20.804   6.839  0.00  0.00    +0.136 C 
ATOM      6  C   LIG    1       26.147 -20.405   8.307  0.00  0.00    +0.035 C 
ATOM      7  C   LIG    1       26.020 -21.768   8.993  0.00  0.00    +0.035 C 
ATOM      8  C   LIG    1       24.692 -21.465   6.513  0.00  0.00    +0.109 C 
ATOM      9  C   LIG    1       23.498 -20.676   7.186  0.00  0.00    +0.026 C 
ATOM     10  C   LIG    1       24.326 -21.639   5.108  0.00  0.00    +0.324 C 
ATOM     11  O   LIG    1       24.710 -20.980   4.139  0.00  0.00    -0.250 OA
ATOM     12  O   LIG    1       23.383 -22.624   5.128  0.00  0.00    -0.392 OA
ATOM     13  C   LIG    1       23.444 -23.211   6.403  0.00  0.00    +0.324 C 
ATOM     14  O   LIG    1       22.535 -23.871   6.890  0.00  0.00    -0.250 OA
ENDROOT
TORSDOF 0
ENDMDL
MODEL 4
REMARK VINA RESULT:      -6.6      1.391      3.557
REMARK  Name = *****
REMARK                            x       y       z     vdW  Elec       q    Type
REMARK                         _______ _______ _______ _____ _____    ______ ____
ROOT
ATOM      1  C   LIG    1       22.998 -21.949   7.641  0.00  0.00    +0.026 C 
ATOM      2  C   LIG    1       24.207 -21.099   7.071  0.00  0.00    +0.109 C 
ATOM      3  C   LIG    1       25.112 -21.140   8.307  0.00  0.00    +0.136 C 
ATOM      4  O   LIG    1       25.699 -22.488   8.063  0.00  0.00    -0.371 OA
ATOM      5  C   LIG    1       26.453 -22.134   6.888  0.00  0.00    +0.136 C 
ATOM      6  C   LIG    1       27.387 -21.122   7.546  0.00  0.00    +0.035 C 
ATOM      7  C   LIG    1       26.406 -20.347   8.430  0.00  0.00    +0.035 C 
ATOM      8  C   LIG    1       25.359 -21.478   6.057  0.00  0.00    +0.109 C 
ATOM      9  C   LIG    1       25.955 -20.311   5.172  0.00  0.00    +0.026 C 
ATOM     10  C   LIG    1       24.575 -22.318   5.152  0.00  0.00    +0.324 C 
ATOM     11  O   LIG    1       24.906 -23.386   4.634  0.00  0.00    -0.250 OA
ATOM     12  O   LIG    1       23.439 -21.597   4.928  0.00  0.00    -0.392 OA
ATOM     13  C   LIG    1       23.415 -20.576   5.894  0.00  0.00    +0.324 C 
ATOM     14  O   LIG    1       22.749 -19.555   5.785  0.00  0.00    -0.250 OA
ENDROOT
TORSDOF 0
ENDMDL
MODEL 5
REMARK VINA RESULT:      -6.1      1.591      2.008
REMARK  Name = *****
REMARK                            x       y       z     vdW  Elec       q    Type
REMARK                         _______ _______ _______ _____ _____    ______ ____
ROOT
ATOM      1  C   LIG    1       26.210 -22.402   6.673  0.00  0.00    +0.026 C 
ATOM      2  C   LIG    1       25.248 -21.172   6.405  0.00  0.00    +0.109 C 
ATOM      3  C   LIG    1       25.708 -20.834   4.982  0.00  0.00    +0.136 C 
ATOM      4  O   LIG    1       24.896 -21.865   4.275  0.00  0.00    -0.371 OA
ATOM      5  C   LIG    1       23.608 -21.282   4.549  0.00  0.00    +0.136 C 
ATOM      6  C   LIG    1       23.813 -19.975   3.789  0.00  0.00    +0.035 C 
ATOM      7  C   LIG    1       25.236 -19.606   4.215  0.00  0.00    +0.035 C 
ATOM      8  C   LIG    1       23.707 -21.113   6.058  0.00  0.00    +0.109 C 
ATOM      9  C   LIG    1       22.909 -19.832   6.529  0.00  0.00    +0.026 C 
ATOM     10  C   LIG    1       23.257 -22.211   6.913  0.00  0.00    +0.324 C 
ATOM     11  O   LIG    1       22.432 -23.088   6.646  0.00  0.00    -0.250 OA
ATOM     12  O   LIG    1       23.876 -21.982   8.106  0.00  0.00    -0.392 OA
ATOM     13  C   LIG    1       24.872 -21.021   7.861  0.00  0.00    +0.324 C 
ATOM     14  O   LIG    1       25.379 -20.332   8.737  0.00  0.00    -0.250 OA
ENDROOT
TORSDOF 0
ENDMDL
MODEL 6
REMARK VINA RESULT:      -6.0      1.416      3.064
REMARK  Name = *****
REMARK                            x       y       z     vdW  Elec       q    Type
REMARK                         _______ _______ _______ _____ _____    ______ ____
ROOT
ATOM      1  C   LIG    1       23.304 -24.394   6.900  0.00  0.00    +0.026 C 
ATOM      2  C   LIG    1       23.879 -23.127   6.143  0.00  0.00    +0.109 C 
ATOM      3  C   LIG    1       22.607 -22.272   6.141  0.00  0.00    +0.136 C 
ATOM      4  O   LIG    1       22.739 -21.738   7.526  0.00  0.00    -0.371 OA
ATOM      5  C   LIG    1       23.904 -20.926   7.283  0.00  0.00    +0.136 C 
ATOM      6  C   LIG    1       23.276 -19.972   6.271  0.00  0.00    +0.035 C 
ATOM      7  C   LIG    1       22.485 -20.949   5.397  0.00  0.00    +0.035 C 
ATOM      8  C   LIG    1       24.819 -21.957   6.639  0.00  0.00    +0.109 C 
ATOM      9  C   LIG    1       25.754 -21.276   5.560  0.00  0.00    +0.026 C 
ATOM     10  C   LIG    1       25.698 -22.744   7.502  0.00  0.00    +0.324 C 
ATOM     11  O   LIG    1       26.132 -22.442   8.616  0.00  0.00    -0.250 OA
ATOM     12  O   LIG    1       26.014 -23.837   6.751  0.00  0.00    -0.392 OA
ATOM     13  C   LIG    1       25.119 -23.850   5.667  0.00  0.00    +0.324 C 
ATOM     14  O   LIG    1       25.320 -24.464   4.627  0.00  0.00    -0.250 OA
ENDROOT
TORSDOF 0
ENDMDL
MODEL 7
REMARK VINA RESULT:      -5.8      1.540      3.588
REMARK  Name = *****
REMARK                            x       y       z     vdW  Elec       q    Type
REMARK                         _______ _______ _______ _____ _____    ______ ____
ROOT
ATOM      1  C   LIG    1       24.897 -20.687   4.573  0.00  0.00    +0.026 C 
ATOM      2  C   LIG    1       24.078 -21.853   5.266  0.00  0.00    +0.109 C 
ATOM      3  C   LIG    1       25.014 -23.017   4.925  0.00  0.00    +0.136 C 
ATOM      4  O   LIG    1       25.995 -22.797   6.025  0.00  0.00    -0.371 OA
ATOM      5  C   LIG    1       25.114 -23.148   7.109  0.00  0.00    +0.136 C 
ATOM      6  C   LIG    1       24.885 -24.605   6.718  0.00  0.00    +0.035 C 
ATOM      7  C   LIG    1       24.679 -24.475   5.206  0.00  0.00    +0.035 C 
ATOM      8  C   LIG    1       23.925 -22.253   6.787  0.00  0.00    +0.109 C 
ATOM      9  C   LIG    1       22.572 -22.949   7.218  0.00  0.00    +0.026 C 
ATOM     10  C   LIG    1       23.892 -20.908   7.359  0.00  0.00    +0.324 C 
ATOM     11  O   LIG    1       24.448 -20.507   8.383  0.00  0.00    -0.250 OA
ATOM     12  O   LIG    1       23.021 -20.227   6.560  0.00  0.00    -0.392 OA
ATOM     13  C   LIG    1       22.826 -21.019   5.415  0.00  0.00    +0.324 C 
ATOM     14  O   LIG    1       21.867 -20.899   4.663  0.00  0.00    -0.250 OA
ENDROOT
TORSDOF 0
ENDMDL
MODEL 8
REMARK VINA RESULT:      -5.8      1.679      3.393
REMARK  Name = *****
REMARK                            x       y       z     vdW  Elec       q    Type
REMARK                         _______ _______ _______ _____ _____    ______ ____
ROOT
ATOM      1  C   LIG    1       24.385 -21.502   4.496  0.00  0.00    +0.026 C 
ATOM      2  C   LIG    1       25.352 -21.980   5.656  0.00  0.00    +0.109 C 
ATOM      3  C   LIG    1       26.336 -20.806   5.625  0.00  0.00    +0.136 C 
ATOM      4  O   LIG    1       25.521 -19.858   6.438  0.00  0.00    -0.371 OA
ATOM      5  C   LIG    1       25.619 -20.577   7.682  0.00  0.00    +0.136 C 
ATOM      6  C   LIG    1       27.130 -20.462   7.862  0.00  0.00    +0.035 C 
ATOM      7  C   LIG    1       27.619 -20.763   6.443  0.00  0.00    +0.035 C 
ATOM      8  C   LIG    1       25.179 -21.961   7.227  0.00  0.00    +0.109 C 
ATOM      9  C   LIG    1       25.931 -23.083   8.050  0.00  0.00    +0.026 C 
ATOM     10  C   LIG    1       23.756 -22.294   7.288  0.00  0.00    +0.324 C 
ATOM     11  O   LIG    1       22.896 -21.805   8.023  0.00  0.00    -0.250 OA
ATOM     12  O   LIG    1       23.621 -23.340   6.423  0.00  0.00    -0.392 OA
ATOM     13  C   LIG    1       24.804 -23.389   5.667  0.00  0.00    +0.324 C 
ATOM     14  O   LIG    1       25.177 -24.382   5.055  0.00  0.00    -0.250 OA
ENDROOT
TORSDOF 0
ENDMDL
MODEL 9
REMARK VINA RESULT:      -5.7      1.457      3.487
REMARK  Name = *****
REMARK                            x       y       z     vdW  Elec       q    Type
REMARK                         _______ _______ _______ _____ _____    ______ ____
ROOT
ATOM      1  C   LIG    1       25.930 -20.446   7.833  0.00  0.00    +0.026 C 
ATOM      2  C   LIG    1       25.659 -21.479   6.662  0.00  0.00    +0.109 C 
ATOM      3  C   LIG    1       25.654 -22.765   7.495  0.00  0.00    +0.136 C 
ATOM      4  O   LIG    1       24.249 -22.664   7.985  0.00  0.00    -0.371 OA
ATOM      5  C   LIG    1       23.611 -22.875   6.711  0.00  0.00    +0.136 C 
ATOM      6  C   LIG    1       24.118 -24.293   6.465  0.00  0.00    +0.035 C 
ATOM      7  C   LIG    1       25.584 -24.160   6.888  0.00  0.00    +0.035 C 
ATOM      8  C   LIG    1       24.336 -21.832   5.873  0.00  0.00    +0.109 C 
ATOM      9  C   LIG    1       24.497 -22.329   4.380  0.00  0.00    +0.026 C 
ATOM     10  C   LIG    1       23.770 -20.486   5.796  0.00  0.00    +0.324 C 
ATOM     11  O   LIG    1       22.594 -20.149   5.953  0.00  0.00    -0.250 OA
ATOM     12  O   LIG    1       24.818 -19.705   5.406  0.00  0.00    -0.392 OA
ATOM     13  C   LIG    1       25.978 -20.479   5.573  0.00  0.00    +0.324 C 
ATOM     14  O   LIG    1       27.040 -20.241   5.011  0.00  0.00    -0.250 OA
ENDROOT
TORSDOF 0
ENDMDL
