MODEL 1
REMARK VINA RESULT:      -7.0      0.000      0.000
REMARK  Name = *****
REMARK                            x       y       z     vdW  Elec       q    Type
REMARK                         _______ _______ _______ _____ _____    ______ ____
ROOT
ATOM      1  C   LIG    1       23.689 -19.860   4.539  0.00  0.00    +0.170 A 
ATOM      2  C   LIG    1       24.408 -20.347   5.620  0.00  0.00    +0.075 A 
ATOM      3  C   LIG    1       23.984 -20.837   6.942  0.00  0.00    +0.163 C 
ATOM      4  N   LIG    1       24.365 -22.225   7.024  0.00  0.00    -0.295 N 
ATOM      5  C   LIG    1       25.680 -22.637   7.153  0.00  0.00    +0.249 C 
ATOM      6  C   LIG    1       26.791 -21.644   7.028  0.00  0.00    +0.063 A 
ATOM      7  C   LIG    1       26.851 -20.591   6.088  0.00  0.00    +0.060 A 
ATOM      8  C   LIG    1       28.043 -19.850   5.946  0.00  0.00    +0.029 A 
ATOM      9  C   LIG    1       29.148 -20.133   6.752  0.00  0.00    +0.040 A 
ATOM     10  C   LIG    1       29.076 -21.159   7.681  0.00  0.00    +0.124 A 
ATOM     11  F   LIG    1       30.139 -21.429   8.448  0.00  0.00    -0.205 F 
ATOM     12  C   LIG    1       27.921 -21.917   7.818  0.00  0.00    +0.053 A 
ATOM     13  O   LIG    1       25.988 -23.808   7.368  0.00  0.00    -0.270 OA
ATOM     14  C   LIG    1       23.290 -23.207   7.026  0.00  0.00    +0.133 C 
ATOM     15  N   LIG    1       25.740 -20.231   5.282  0.00  0.00    -0.300 N 
ATOM     16  C   LIG    1       25.768 -19.624   4.048  0.00  0.00    +0.205 A 
ATOM     17  N   LIG    1       24.565 -19.402   3.571  0.00  0.00    -0.229 NA
ENDROOT
BRANCH   1  18
ATOM     18  C   LIG    1       22.229 -19.791   4.417  0.00  0.00    +0.359 C 
ATOM     19  O   LIG    1       21.494 -20.756   4.606  0.00  0.00    -0.243 OA
BRANCH  18  20
ATOM     20  O   LIG    1       21.785 -18.546   4.080  0.00  0.00    -0.460 OA
BRANCH  20  22
ATOM     21  C   LIG    1       22.689 -16.313   4.339  0.00  0.00    +0.048 C 
ATOM     22  C   LIG    1       22.063 -17.510   5.030  0.00  0.00    +0.229 C 
ENDBRANCH  20  22
ENDBRANCH  18  20
ENDBRANCH   1  18
TORSDOF 3
ENDMDL
MODEL 2
REMARK VINA RESULT:      -6.9      2.282      4.622
REMARK  Name = *****
REMARK                            x       y       z     vdW  Elec       q    Type
REMARK                         _______ _______ _______ _____ _____    ______ ____
ROOT
ATOM      1  C   LIG    1       24.029 -22.511   7.130  0.00  0.00    +0.170 A 
ATOM      2  C   LIG    1       24.988 -21.935   6.311  0.00  0.00    +0.075 A 
ATOM      3  C   LIG    1       25.248 -22.058   4.866  0.00  0.00    +0.163 C 
ATOM      4  N   LIG    1       25.052 -20.753   4.286  0.00  0.00    -0.295 N 
ATOM      5  C   LIG    1       25.931 -19.703   4.483  0.00  0.00    +0.249 C 
ATOM      6  C   LIG    1       27.044 -19.836   5.473  0.00  0.00    +0.063 A 
ATOM      7  C   LIG    1       26.949 -20.446   6.742  0.00  0.00    +0.060 A 
ATOM      8  C   LIG    1       28.017 -20.329   7.655  0.00  0.00    +0.029 A 
ATOM      9  C   LIG    1       29.177 -19.640   7.297  0.00  0.00    +0.040 A 
ATOM     10  C   LIG    1       29.269 -19.055   6.043  0.00  0.00    +0.124 A 
ATOM     11  F   LIG    1       30.382 -18.392   5.706  0.00  0.00    -0.205 F 
ATOM     12  C   LIG    1       28.219 -19.137   5.140  0.00  0.00    +0.053 A 
ATOM     13  O   LIG    1       25.839 -18.639   3.873  0.00  0.00    -0.270 OA
ATOM     14  C   LIG    1       23.899 -20.583   3.414  0.00  0.00    +0.133 C 
ATOM     15  N   LIG    1       25.812 -21.200   7.135  0.00  0.00    -0.300 N 
ATOM     16  C   LIG    1       25.357 -21.414   8.416  0.00  0.00    +0.205 A 
ATOM     17  N   LIG    1       24.290 -22.178   8.448  0.00  0.00    -0.229 NA
ENDROOT
BRANCH   1  18
ATOM     18  C   LIG    1       22.919 -23.372   6.710  0.00  0.00    +0.359 C 
ATOM     19  O   LIG    1       21.860 -22.933   6.270  0.00  0.00    -0.243 OA
BRANCH  18  20
ATOM     20  O   LIG    1       23.195 -24.700   6.856  0.00  0.00    -0.460 OA
BRANCH  20  22
ATOM     21  C   LIG    1       24.360 -26.714   6.184  0.00  0.00    +0.048 C 
ATOM     22  C   LIG    1       24.021 -25.277   5.837  0.00  0.00    +0.229 C 
ENDBRANCH  20  22
ENDBRANCH  18  20
ENDBRANCH   1  18
TORSDOF 3
ENDMDL
MODEL 3
REMARK VINA RESULT:      -6.9      2.123      3.645
REMARK  Name = *****
REMARK                            x       y       z     vdW  Elec       q    Type
REMARK                         _______ _______ _______ _____ _____    ______ ____
ROOT
ATOM      1  C   LIG    1       24.639 -20.952   7.059  0.00  0.00    +0.170 A 
ATOM      2  C   LIG    1       25.832 -20.683   6.405  0.00  0.00    +0.075 A 
ATOM      3  C   LIG    1       26.211 -20.753   4.984  0.00  0.00    +0.163 C 
ATOM      4  N   LIG    1       26.550 -19.416   4.566  0.00  0.00    -0.295 N 
ATOM      5  C   LIG    1       27.706 -18.772   4.973  0.00  0.00    +0.249 C 
ATOM      6  C   LIG    1       28.573 -19.386   6.026  0.00  0.00    +0.063 A 
ATOM      7  C   LIG    1       28.116 -20.039   7.191  0.00  0.00    +0.060 A 
ATOM      8  C   LIG    1       29.036 -20.397   8.198  0.00  0.00    +0.029 A 
ATOM      9  C   LIG    1       30.398 -20.137   8.031  0.00  0.00    +0.040 A 
ATOM     10  C   LIG    1       30.841 -19.509   6.878  0.00  0.00    +0.124 A 
ATOM     11  F   LIG    1       32.147 -19.258   6.725  0.00  0.00    -0.205 F 
ATOM     12  C   LIG    1       29.948 -19.125   5.887  0.00  0.00    +0.053 A 
ATOM     13  O   LIG    1       28.064 -17.693   4.503  0.00  0.00    -0.270 OA
ATOM     14  C   LIG    1       25.645 -18.765   3.631  0.00  0.00    +0.133 C 
ATOM     15  N   LIG    1       26.749 -20.371   7.385  0.00  0.00    -0.300 N 
ATOM     16  C   LIG    1       26.093 -20.528   8.584  0.00  0.00    +0.205 A 
ATOM     17  N   LIG    1       24.833 -20.860   8.426  0.00  0.00    -0.229 NA
ENDROOT
BRANCH   1  18
ATOM     18  C   LIG    1       23.362 -21.317   6.438  0.00  0.00    +0.359 C 
ATOM     19  O   LIG    1       23.027 -22.479   6.227  0.00  0.00    -0.243 OA
BRANCH  18  20
ATOM     20  O   LIG    1       22.594 -20.232   6.131  0.00  0.00    -0.460 OA
BRANCH  20  22
ATOM     21  C   LIG    1       22.146 -18.475   4.525  0.00  0.00    +0.048 C 
ATOM     22  C   LIG    1       22.455 -19.946   4.734  0.00  0.00    +0.229 C 
ENDBRANCH  20  22
ENDBRANCH  18  20
ENDBRANCH   1  18
TORSDOF 3
ENDMDL
MODEL 4
REMARK VINA RESULT:      -6.9      2.163      3.160
REMARK  Name = *****
REMARK                            x       y       z     vdW  Elec       q    Type
REMARK                         _______ _______ _______ _____ _____    ______ ____
ROOT
ATOM      1  C   LIG    1       24.294 -20.916   5.432  0.00  0.00    +0.170 A 
ATOM      2  C   LIG    1       25.289 -20.554   6.327  0.00  0.00    +0.075 A 
ATOM      3  C   LIG    1       25.292 -20.428   7.795  0.00  0.00    +0.163 C 
ATOM      4  N   LIG    1       26.230 -21.398   8.304  0.00  0.00    -0.295 N 
ATOM      5  C   LIG    1       27.600 -21.264   8.163  0.00  0.00    +0.249 C 
ATOM      6  C   LIG    1       28.160 -20.177   7.302  0.00  0.00    +0.063 A 
ATOM      7  C   LIG    1       27.645 -19.768   6.052  0.00  0.00    +0.060 A 
ATOM      8  C   LIG    1       28.383 -18.870   5.253  0.00  0.00    +0.029 A 
ATOM      9  C   LIG    1       29.601 -18.360   5.707  0.00  0.00    +0.040 A 
ATOM     10  C   LIG    1       30.093 -18.755   6.942  0.00  0.00    +0.124 A 
ATOM     11  F   LIG    1       31.263 -18.267   7.371  0.00  0.00    -0.205 F 
ATOM     12  C   LIG    1       29.395 -19.659   7.731  0.00  0.00    +0.053 A 
ATOM     13  O   LIG    1       28.400 -22.013   8.721  0.00  0.00    -0.270 OA
ATOM     14  C   LIG    1       25.681 -22.525   9.042  0.00  0.00    +0.133 C 
ATOM     15  N   LIG    1       26.389 -20.218   5.568  0.00  0.00    -0.300 N 
ATOM     16  C   LIG    1       25.993 -20.327   4.256  0.00  0.00    +0.205 A 
ATOM     17  N   LIG    1       24.757 -20.753   4.138  0.00  0.00    -0.229 NA
ENDROOT
BRANCH   1  18
ATOM     18  C   LIG    1       22.939 -21.370   5.763  0.00  0.00    +0.359 C 
ATOM     19  O   LIG    1       21.950 -21.065   5.102  0.00  0.00    -0.243 OA
BRANCH  18  20
ATOM     20  O   LIG    1       22.903 -22.165   6.871  0.00  0.00    -0.460 OA
BRANCH  20  22
ATOM     21  C   LIG    1       23.761 -24.410   6.570  0.00  0.00    +0.048 C 
ATOM     22  C   LIG    1       22.528 -23.529   6.644  0.00  0.00    +0.229 C 
ENDBRANCH  20  22
ENDBRANCH  18  20
ENDBRANCH   1  18
TORSDOF 3
ENDMDL
MODEL 5
REMARK VINA RESULT:      -6.3      3.218      6.136
REMARK  Name = *****
REMARK                            x       y       z     vdW  Elec       q    Type
REMARK                         _______ _______ _______ _____ _____    ______ ____
ROOT
ATOM      1  C   LIG    1       29.039 -20.344   7.030  0.00  0.00    +0.170 A 
ATOM      2  C   LIG    1       27.769 -20.840   6.781  0.00  0.00    +0.075 A 
ATOM      3  C   LIG    1       27.057 -22.022   7.297  0.00  0.00    +0.163 C 
ATOM      4  N   LIG    1       25.909 -21.543   8.026  0.00  0.00    -0.295 N 
ATOM      5  C   LIG    1       24.802 -20.990   7.406  0.00  0.00    +0.249 C 
ATOM      6  C   LIG    1       24.834 -20.697   5.940  0.00  0.00    +0.063 A 
ATOM      7  C   LIG    1       25.930 -20.157   5.232  0.00  0.00    +0.060 A 
ATOM      8  C   LIG    1       25.761 -19.746   3.894  0.00  0.00    +0.029 A 
ATOM      9  C   LIG    1       24.527 -19.901   3.259  0.00  0.00    +0.040 A 
ATOM     10  C   LIG    1       23.460 -20.446   3.957  0.00  0.00    +0.124 A 
ATOM     11  F   LIG    1       22.278 -20.588   3.345  0.00  0.00    -0.205 F 
ATOM     12  C   LIG    1       23.598 -20.832   5.282  0.00  0.00    +0.053 A 
ATOM     13  O   LIG    1       23.769 -20.717   8.016  0.00  0.00    -0.270 OA
ATOM     14  C   LIG    1       25.924 -21.717   9.471  0.00  0.00    +0.133 C 
ATOM     15  N   LIG    1       27.217 -20.026   5.816  0.00  0.00    -0.300 N 
ATOM     16  C   LIG    1       28.195 -19.119   5.480  0.00  0.00    +0.205 A 
ATOM     17  N   LIG    1       29.287 -19.271   6.193  0.00  0.00    -0.229 NA
ENDROOT
BRANCH   1  18
ATOM     18  C   LIG    1       30.011 -20.867   7.995  0.00  0.00    +0.359 C 
ATOM     19  O   LIG    1       29.755 -21.778   8.778  0.00  0.00    -0.243 OA
BRANCH  18  20
ATOM     20  O   LIG    1       31.220 -20.240   7.922  0.00  0.00    -0.460 OA
BRANCH  20  22
ATOM     21  C   LIG    1       31.846 -17.971   8.496  0.00  0.00    +0.048 C 
ATOM     22  C   LIG    1       31.531 -19.363   9.011  0.00  0.00    +0.229 C 
ENDBRANCH  20  22
ENDBRANCH  18  20
ENDBRANCH   1  18
TORSDOF 3
ENDMDL
MODEL 6
REMARK VINA RESULT:      -6.0      4.078      7.110
REMARK  Name = *****
REMARK                            x       y       z     vdW  Elec       q    Type
REMARK                         _______ _______ _______ _____ _____    ______ ____
ROOT
ATOM      1  C   LIG    1       30.731 -20.060   8.449  0.00  0.00    +0.170 A 
ATOM      2  C   LIG    1       29.460 -19.872   7.928  0.00  0.00    +0.075 A 
ATOM      3  C   LIG    1       28.773 -18.672   7.421  0.00  0.00    +0.163 C 
ATOM      4  N   LIG    1       28.495 -18.897   6.025  0.00  0.00    -0.295 N 
ATOM      5  C   LIG    1       27.532 -19.789   5.584  0.00  0.00    +0.249 C 
ATOM      6  C   LIG    1       26.857 -20.701   6.558  0.00  0.00    +0.063 A 
ATOM      7  C   LIG    1       27.486 -21.376   7.627  0.00  0.00    +0.060 A 
ATOM      8  C   LIG    1       26.776 -22.359   8.347  0.00  0.00    +0.029 A 
ATOM      9  C   LIG    1       25.447 -22.643   8.027  0.00  0.00    +0.040 A 
ATOM     10  C   LIG    1       24.831 -21.966   6.986  0.00  0.00    +0.124 A 
ATOM     11  F   LIG    1       23.558 -22.244   6.680  0.00  0.00    -0.205 F 
ATOM     12  C   LIG    1       25.521 -21.014   6.248  0.00  0.00    +0.053 A 
ATOM     13  O   LIG    1       27.198 -19.872   4.403  0.00  0.00    -0.270 OA
ATOM     14  C   LIG    1       29.238 -18.095   5.064  0.00  0.00    +0.133 C 
ATOM     15  N   LIG    1       28.818 -21.088   8.024  0.00  0.00    -0.300 N 
ATOM     16  C   LIG    1       29.701 -21.935   8.653  0.00  0.00    +0.205 A 
ATOM     17  N   LIG    1       30.853 -21.359   8.908  0.00  0.00    -0.229 NA
ENDROOT
BRANCH   1  18
ATOM     18  C   LIG    1       31.794 -19.055   8.549  0.00  0.00    +0.359 C 
ATOM     19  O   LIG    1       32.312 -18.527   7.569  0.00  0.00    -0.243 OA
BRANCH  18  20
ATOM     20  O   LIG    1       32.135 -18.773   9.840  0.00  0.00    -0.460 OA
BRANCH  20  22
ATOM     21  C   LIG    1       30.463 -17.327  10.830  0.00  0.00    +0.048 C 
ATOM     22  C   LIG    1       31.870 -17.433  10.272  0.00  0.00    +0.229 C 
ENDBRANCH  20  22
ENDBRANCH  18  20
ENDBRANCH   1  18
TORSDOF 3
ENDMDL
MODEL 7
REMARK VINA RESULT:      -5.7      2.747      5.484
REMARK  Name = *****
REMARK                            x       y       z     vdW  Elec       q    Type
REMARK                         _______ _______ _______ _____ _____    ______ ____
ROOT
ATOM      1  C   LIG    1       24.972 -23.194   6.421  0.00  0.00    +0.170 A 
ATOM      2  C   LIG    1       24.771 -22.206   5.470  0.00  0.00    +0.075 A 
ATOM      3  C   LIG    1       23.876 -22.133   4.303  0.00  0.00    +0.163 C 
ATOM      4  N   LIG    1       22.959 -21.045   4.536  0.00  0.00    -0.295 N 
ATOM      5  C   LIG    1       23.341 -19.716   4.485  0.00  0.00    +0.249 C 
ATOM      6  C   LIG    1       24.788 -19.358   4.362  0.00  0.00    +0.063 A 
ATOM      7  C   LIG    1       25.854 -19.996   5.032  0.00  0.00    +0.060 A 
ATOM      8  C   LIG    1       27.147 -19.435   4.982  0.00  0.00    +0.029 A 
ATOM      9  C   LIG    1       27.380 -18.271   4.246  0.00  0.00    +0.040 A 
ATOM     10  C   LIG    1       26.332 -17.659   3.578  0.00  0.00    +0.124 A 
ATOM     11  F   LIG    1       26.560 -16.541   2.878  0.00  0.00    -0.205 F 
ATOM     12  C   LIG    1       25.047 -18.181   3.637  0.00  0.00    +0.053 A 
ATOM     13  O   LIG    1       22.531 -18.791   4.540  0.00  0.00    -0.270 OA
ATOM     14  C   LIG    1       21.566 -21.394   4.777  0.00  0.00    +0.133 C 
ATOM     15  N   LIG    1       25.678 -21.208   5.751  0.00  0.00    -0.300 N 
ATOM     16  C   LIG    1       26.427 -21.662   6.812  0.00  0.00    +0.205 A 
ATOM     17  N   LIG    1       26.024 -22.835   7.244  0.00  0.00    -0.229 NA
ENDROOT
BRANCH   1  18
ATOM     18  C   LIG    1       24.232 -24.454   6.547  0.00  0.00    +0.359 C 
ATOM     19  O   LIG    1       23.023 -24.503   6.758  0.00  0.00    -0.243 OA
BRANCH  18  20
ATOM     20  O   LIG    1       25.027 -25.552   6.397  0.00  0.00    -0.460 OA
BRANCH  20  22
ATOM     21  C   LIG    1       26.288 -27.090   5.015  0.00  0.00    +0.048 C 
ATOM     22  C   LIG    1       25.291 -25.947   5.045  0.00  0.00    +0.229 C 
ENDBRANCH  20  22
ENDBRANCH  18  20
ENDBRANCH   1  18
TORSDOF 3
ENDMDL
MODEL 8
REMARK VINA RESULT:      -5.7      8.110     10.984
REMARK  Name = *****
REMARK                            x       y       z     vdW  Elec       q    Type
REMARK                         _______ _______ _______ _____ _____    ______ ____
ROOT
ATOM      1  C   LIG    1       23.370 -32.324   8.181  0.00  0.00    +0.170 A 
ATOM      2  C   LIG    1       23.815 -31.018   8.322  0.00  0.00    +0.075 A 
ATOM      3  C   LIG    1       23.783 -30.087   9.463  0.00  0.00    +0.163 C 
ATOM      4  N   LIG    1       25.151 -29.796   9.814  0.00  0.00    -0.295 N 
ATOM      5  C   LIG    1       25.977 -29.008   9.032  0.00  0.00    +0.249 C 
ATOM      6  C   LIG    1       25.526 -28.570   7.675  0.00  0.00    +0.063 A 
ATOM      7  C   LIG    1       24.827 -29.367   6.742  0.00  0.00    +0.060 A 
ATOM      8  C   LIG    1       24.637 -28.897   5.426  0.00  0.00    +0.029 A 
ATOM      9  C   LIG    1       25.108 -27.636   5.054  0.00  0.00    +0.040 A 
ATOM     10  C   LIG    1       25.780 -26.853   5.980  0.00  0.00    +0.124 A 
ATOM     11  F   LIG    1       26.233 -25.647   5.617  0.00  0.00    -0.205 F 
ATOM     12  C   LIG    1       26.001 -27.309   7.272  0.00  0.00    +0.053 A 
ATOM     13  O   LIG    1       27.091 -28.644   9.404  0.00  0.00    -0.270 OA
ATOM     14  C   LIG    1       25.634 -30.323  11.082  0.00  0.00    +0.133 C 
ATOM     15  N   LIG    1       24.285 -30.633   7.085  0.00  0.00    -0.300 N 
ATOM     16  C   LIG    1       24.045 -31.692   6.241  0.00  0.00    +0.205 A 
ATOM     17  N   LIG    1       23.514 -32.719   6.863  0.00  0.00    -0.229 NA
ENDROOT
BRANCH   1  18
ATOM     18  C   LIG    1       22.797 -33.173   9.230  0.00  0.00    +0.359 C 
ATOM     19  O   LIG    1       23.481 -33.825  10.013  0.00  0.00    -0.243 OA
BRANCH  18  20
ATOM     20  O   LIG    1       21.433 -33.151   9.241  0.00  0.00    -0.460 OA
BRANCH  20  22
ATOM     21  C   LIG    1       20.516 -31.360  10.589  0.00  0.00    +0.048 C 
ATOM     22  C   LIG    1       20.828 -32.842  10.503  0.00  0.00    +0.229 C 
ENDBRANCH  20  22
ENDBRANCH  18  20
ENDBRANCH   1  18
TORSDOF 3
ENDMDL
MODEL 9
REMARK VINA RESULT:      -5.4      7.845     11.036
REMARK  Name = *****
REMARK                            x       y       z     vdW  Elec       q    Type
REMARK                         _______ _______ _______ _____ _____    ______ ____
ROOT
ATOM      1  C   LIG    1       26.108 -31.036   9.565  0.00  0.00    +0.170 A 
ATOM      2  C   LIG    1       25.903 -30.549   8.283  0.00  0.00    +0.075 A 
ATOM      3  C   LIG    1       25.844 -31.223   6.975  0.00  0.00    +0.163 C 
ATOM      4  N   LIG    1       24.515 -31.025   6.453  0.00  0.00    -0.295 N 
ATOM      5  C   LIG    1       24.066 -29.802   5.985  0.00  0.00    +0.249 C 
ATOM      6  C   LIG    1       24.901 -28.576   6.176  0.00  0.00    +0.063 A 
ATOM      7  C   LIG    1       25.633 -28.251   7.339  0.00  0.00    +0.060 A 
ATOM      8  C   LIG    1       26.215 -26.973   7.462  0.00  0.00    +0.029 A 
ATOM      9  C   LIG    1       26.099 -26.043   6.427  0.00  0.00    +0.040 A 
ATOM     10  C   LIG    1       25.391 -26.375   5.283  0.00  0.00    +0.124 A 
ATOM     11  F   LIG    1       25.279 -25.478   4.295  0.00  0.00    -0.205 F 
ATOM     12  C   LIG    1       24.787 -27.618   5.153  0.00  0.00    +0.053 A 
ATOM     13  O   LIG    1       22.987 -29.669   5.409  0.00  0.00    -0.270 OA
ATOM     14  C   LIG    1       23.653 -32.195   6.376  0.00  0.00    +0.133 C 
ATOM     15  N   LIG    1       25.823 -29.178   8.397  0.00  0.00    -0.300 N 
ATOM     16  C   LIG    1       26.047 -28.893   9.723  0.00  0.00    +0.205 A 
ATOM     17  N   LIG    1       26.207 -29.976  10.449  0.00  0.00    -0.229 NA
ENDROOT
BRANCH   1  18
ATOM     18  C   LIG    1       26.242 -32.442   9.959  0.00  0.00    +0.359 C 
ATOM     19  O   LIG    1       27.064 -33.203   9.456  0.00  0.00    -0.243 OA
BRANCH  18  20
ATOM     20  O   LIG    1       25.365 -32.802  10.940  0.00  0.00    -0.460 OA
BRANCH  20  22
ATOM     21  C   LIG    1       23.212 -33.216   9.912  0.00  0.00    +0.048 C 
ATOM     22  C   LIG    1       24.426 -33.825  10.587  0.00  0.00    +0.229 C 
ENDBRANCH  20  22
ENDBRANCH  18  20
ENDBRANCH   1  18
TORSDOF 3
ENDMDL
