MODEL 1
REMARK VINA RESULT:     -10.3      0.000      0.000
REMARK  Name = *****
REMARK                            x       y       z     vdW  Elec       q    Type
REMARK                         _______ _______ _______ _____ _____    ______ ____
ROOT
ATOM      1  C   LIG    1       24.332 -25.362   6.360  0.00  0.00    -0.046 A 
ATOM      2  C   LIG    1       25.544 -24.662   6.269  0.00  0.00    +0.005 A 
ATOM      3  C   LIG    1       25.574 -23.274   6.414  0.00  0.00    +0.029 A 
ATOM      4  C   LIG    1       24.374 -22.585   6.635  0.00  0.00    +0.113 A 
ATOM      5  C   LIG    1       23.162 -23.269   6.725  0.00  0.00    +0.029 A 
ATOM      6  C   LIG    1       23.141 -24.654   6.583  0.00  0.00    +0.005 A 
ENDROOT
BRANCH   4   7
ATOM      7  S   LIG    1       24.389 -20.813   6.775  0.00  0.00    +0.103 S 
ATOM      8  O   LIG    1       23.714 -20.470   8.011  0.00  0.00    -0.146 OA
ATOM      9  O   LIG    1       23.901 -20.298   5.509  0.00  0.00    -0.146 OA
BRANCH   7  10
ATOM     10  N   LIG    1       25.958 -20.490   6.917  0.00  0.00    -0.076 NA
ATOM     11  C   LIG    1       26.595 -20.491   8.030  0.00  0.00    +0.299 C 
BRANCH  11  12
ATOM     12  N   LIG    1       27.896 -20.135   8.186  0.00  0.00    -0.295 N 
ATOM     13  H   LIG    1       28.025 -19.223   8.609  0.00  0.00    +0.151 HD
BRANCH  12  14
ATOM     14  C   LIG    1       28.994 -20.693   7.412  0.00  0.00    +0.075 C 
ATOM     15  C   LIG    1       29.423 -19.760   6.273  0.00  0.00    +0.022 C 
ATOM     16  C   LIG    1       30.220 -18.544   6.733  0.00  0.00    +0.002 C 
ATOM     17  C   LIG    1       31.371 -18.905   7.664  0.00  0.00    +0.000 C 
ATOM     18  C   LIG    1       30.922 -19.792   8.820  0.00  0.00    +0.002 C 
ATOM     19  C   LIG    1       30.183 -21.031   8.321  0.00  0.00    +0.022 C 
ENDBRANCH  12  14
ENDBRANCH  11  12
BRANCH  11  20
ATOM     20  O   LIG    1       26.087 -20.834   9.223  0.00  0.00    -0.481 OA
ATOM     21  H   LIG    1       25.788 -21.768   9.235  0.00  0.00    +0.295 HD
ENDBRANCH  11  20
ENDBRANCH   7  10
ENDBRANCH   4   7
BRANCH   1  22
ATOM     22  C   LIG    1       24.311 -26.864   6.202  0.00  0.00    +0.054 C 
BRANCH  22  23
ATOM     23  C   LIG    1       25.660 -27.501   6.559  0.00  0.00    +0.121 C 
BRANCH  23  28
ATOM     24  C   LIG    1       25.574 -31.655  11.088  0.00  0.00    +0.121 A 
ATOM     25  C   LIG    1       25.785 -30.450  10.428  0.00  0.00    +0.059 A 
ATOM     26  C   LIG    1       25.580 -30.336   9.051  0.00  0.00    +0.045 A 
ATOM     27  C   LIG    1       25.876 -29.028   8.432  0.00  0.00    +0.253 C 
ATOM     28  N   LIG    1       25.514 -28.850   7.105  0.00  0.00    -0.237 N 
ATOM     29  C   LIG    1       24.885 -29.812   6.324  0.00  0.00    +0.232 C 
ATOM     30  C   LIG    1       24.979 -31.279   6.795  0.00  0.00    +0.068 C 
ATOM     31  C   LIG    1       26.240 -31.861   6.128  0.00  0.00    +0.025 C 
ATOM     32  C   LIG    1       23.728 -32.023   6.286  0.00  0.00    +0.025 C 
ATOM     33  O   LIG    1       24.364 -29.521   5.244  0.00  0.00    -0.274 OA
ATOM     34  O   LIG    1       26.397 -28.148   9.114  0.00  0.00    -0.270 OA
ATOM     35  C   LIG    1       25.137 -31.423   8.300  0.00  0.00    -0.021 A 
ATOM     36  C   LIG    1       24.935 -32.646   8.972  0.00  0.00    +0.009 A 
ATOM     37  C   LIG    1       25.147 -32.757  10.353  0.00  0.00    +0.046 A 
BRANCH  24  39
ATOM     38  C   LIG    1       25.973 -30.640  13.180  0.00  0.00    +0.277 C 
ATOM     39  O   LIG    1       25.772 -31.840  12.430  0.00  0.00    -0.495 OA
ENDBRANCH  24  39
ENDBRANCH  23  28
ENDBRANCH  22  23
ENDBRANCH   1  22
TORSDOF 9
ENDMDL
MODEL 2
REMARK VINA RESULT:     -10.2      1.324      3.349
REMARK  Name = *****
REMARK                            x       y       z     vdW  Elec       q    Type
REMARK                         _______ _______ _______ _____ _____    ______ ____
ROOT
ATOM      1  C   LIG    1       24.312 -25.258   6.400  0.00  0.00    -0.046 A 
ATOM      2  C   LIG    1       25.534 -24.570   6.413  0.00  0.00    +0.005 A 
ATOM      3  C   LIG    1       25.565 -23.182   6.551  0.00  0.00    +0.029 A 
ATOM      4  C   LIG    1       24.358 -22.480   6.661  0.00  0.00    +0.113 A 
ATOM      5  C   LIG    1       23.136 -23.151   6.647  0.00  0.00    +0.029 A 
ATOM      6  C   LIG    1       23.113 -24.537   6.512  0.00  0.00    +0.005 A 
ENDROOT
BRANCH   4   7
ATOM      7  S   LIG    1       24.379 -20.707   6.790  0.00  0.00    +0.103 S 
ATOM      8  O   LIG    1       23.715 -20.355   8.030  0.00  0.00    -0.146 OA
ATOM      9  O   LIG    1       23.881 -20.198   5.525  0.00  0.00    -0.146 OA
BRANCH   7  10
ATOM     10  N   LIG    1       25.949 -20.388   6.917  0.00  0.00    -0.076 NA
ATOM     11  C   LIG    1       26.603 -20.418   8.021  0.00  0.00    +0.299 C 
BRANCH  11  12
ATOM     12  N   LIG    1       27.906 -20.066   8.168  0.00  0.00    -0.295 N 
ATOM     13  H   LIG    1       28.041 -19.133   8.541  0.00  0.00    +0.151 HD
BRANCH  12  14
ATOM     14  C   LIG    1       29.004 -20.676   7.433  0.00  0.00    +0.075 C 
ATOM     15  C   LIG    1       29.455 -19.807   6.253  0.00  0.00    +0.022 C 
ATOM     16  C   LIG    1       30.263 -18.577   6.659  0.00  0.00    +0.002 C 
ATOM     17  C   LIG    1       31.400 -18.905   7.618  0.00  0.00    +0.000 C 
ATOM     18  C   LIG    1       30.930 -19.727   8.813  0.00  0.00    +0.002 C 
ATOM     19  C   LIG    1       30.180 -20.981   8.370  0.00  0.00    +0.022 C 
ENDBRANCH  12  14
ENDBRANCH  11  12
BRANCH  11  20
ATOM     20  O   LIG    1       26.113 -20.793   9.211  0.00  0.00    -0.481 OA
ATOM     21  H   LIG    1       25.578 -20.082   9.624  0.00  0.00    +0.295 HD
ENDBRANCH  11  20
ENDBRANCH   7  10
ENDBRANCH   4   7
BRANCH   1  22
ATOM     22  C   LIG    1       24.289 -26.761   6.250  0.00  0.00    +0.054 C 
BRANCH  22  23
ATOM     23  C   LIG    1       25.537 -27.419   6.852  0.00  0.00    +0.121 C 
BRANCH  23  28
ATOM     24  C   LIG    1       25.457 -33.100   4.508  0.00  0.00    +0.121 A 
ATOM     25  C   LIG    1       25.450 -31.711   4.561  0.00  0.00    +0.059 A 
ATOM     26  C   LIG    1       25.370 -31.035   5.781  0.00  0.00    +0.045 A 
ATOM     27  C   LIG    1       25.322 -29.560   5.731  0.00  0.00    +0.253 C 
ATOM     28  N   LIG    1       25.417 -28.875   6.933  0.00  0.00    -0.237 N 
ATOM     29  C   LIG    1       25.565 -29.480   8.176  0.00  0.00    +0.232 C 
ATOM     30  C   LIG    1       25.171 -30.969   8.289  0.00  0.00    +0.068 C 
ATOM     31  C   LIG    1       23.683 -30.987   8.689  0.00  0.00    +0.025 C 
ATOM     32  C   LIG    1       26.021 -31.600   9.411  0.00  0.00    +0.025 C 
ATOM     33  O   LIG    1       25.895 -28.829   9.171  0.00  0.00    -0.274 OA
ATOM     34  O   LIG    1       25.231 -29.001   4.641  0.00  0.00    -0.270 OA
ATOM     35  C   LIG    1       25.316 -31.735   6.985  0.00  0.00    -0.021 A 
ATOM     36  C   LIG    1       25.311 -33.143   6.926  0.00  0.00    +0.009 A 
ATOM     37  C   LIG    1       25.386 -33.817   5.699  0.00  0.00    +0.046 A 
BRANCH  24  39
ATOM     38  C   LIG    1       26.641 -33.537   2.515  0.00  0.00    +0.277 C 
ATOM     39  O   LIG    1       25.515 -33.825   3.348  0.00  0.00    -0.495 OA
ENDBRANCH  24  39
ENDBRANCH  23  28
ENDBRANCH  22  23
ENDBRANCH   1  22
TORSDOF 9
ENDMDL
MODEL 3
REMARK VINA RESULT:      -9.7      3.791      6.828
REMARK  Name = *****
REMARK                            x       y       z     vdW  Elec       q    Type
REMARK                         _______ _______ _______ _____ _____    ______ ____
ROOT
ATOM      1  C   LIG    1       25.708 -29.765   9.708  0.00  0.00    -0.046 A 
ATOM      2  C   LIG    1       26.510 -28.678   9.333  0.00  0.00    +0.005 A 
ATOM      3  C   LIG    1       26.266 -27.994   8.142  0.00  0.00    +0.029 A 
ATOM      4  C   LIG    1       25.218 -28.417   7.314  0.00  0.00    +0.113 A 
ATOM      5  C   LIG    1       24.415 -29.499   7.673  0.00  0.00    +0.029 A 
ATOM      6  C   LIG    1       24.663 -30.174   8.865  0.00  0.00    +0.005 A 
ENDROOT
BRANCH   4   7
ATOM      7  S   LIG    1       24.924 -27.586   5.770  0.00  0.00    +0.103 S 
ATOM      8  O   LIG    1       23.898 -28.330   5.066  0.00  0.00    -0.146 OA
ATOM      9  O   LIG    1       26.226 -27.382   5.161  0.00  0.00    -0.146 OA
BRANCH   7  10
ATOM     10  N   LIG    1       24.326 -26.172   6.246  0.00  0.00    -0.076 NA
ATOM     11  C   LIG    1       24.388 -25.095   5.553  0.00  0.00    +0.299 C 
BRANCH  11  12
ATOM     12  N   LIG    1       23.971 -23.871   5.970  0.00  0.00    -0.295 N 
ATOM     13  H   LIG    1       22.966 -23.746   5.941  0.00  0.00    +0.151 HD
BRANCH  12  14
ATOM     14  C   LIG    1       24.810 -22.682   5.978  0.00  0.00    +0.075 C 
ATOM     15  C   LIG    1       24.535 -21.780   4.769  0.00  0.00    +0.022 C 
ATOM     16  C   LIG    1       23.230 -20.995   4.862  0.00  0.00    +0.002 C 
ATOM     17  C   LIG    1       23.071 -20.266   6.191  0.00  0.00    +0.000 C 
ATOM     18  C   LIG    1       23.297 -21.185   7.386  0.00  0.00    +0.002 C 
ATOM     19  C   LIG    1       24.640 -21.906   7.291  0.00  0.00    +0.022 C 
ENDBRANCH  12  14
ENDBRANCH  11  12
BRANCH  11  20
ATOM     20  O   LIG    1       24.878 -24.990   4.309  0.00  0.00    -0.481 OA
ATOM     21  H   LIG    1       25.499 -25.720   4.101  0.00  0.00    +0.295 HD
ENDBRANCH  11  20
ENDBRANCH   7  10
ENDBRANCH   4   7
BRANCH   1  22
ATOM     22  C   LIG    1       25.981 -30.499  11.000  0.00  0.00    +0.054 C 
BRANCH  22  23
ATOM     23  C   LIG    1       24.761 -30.499  11.931  0.00  0.00    +0.121 C 
BRANCH  23  28
ATOM     24  C   LIG    1       26.527 -24.990  14.004  0.00  0.00    +0.121 A 
ATOM     25  C   LIG    1       26.613 -26.288  13.515  0.00  0.00    +0.059 A 
ATOM     26  C   LIG    1       25.473 -27.080  13.365  0.00  0.00    +0.045 A 
ATOM     27  C   LIG    1       25.672 -28.461  12.882  0.00  0.00    +0.253 C 
ATOM     28  N   LIG    1       24.541 -29.199  12.564  0.00  0.00    -0.237 N 
ATOM     29  C   LIG    1       23.239 -28.723  12.659  0.00  0.00    +0.232 C 
ATOM     30  C   LIG    1       22.998 -27.493  13.560  0.00  0.00    +0.068 C 
ATOM     31  C   LIG    1       22.676 -28.048  14.961  0.00  0.00    +0.025 C 
ATOM     32  C   LIG    1       21.776 -26.732  13.008  0.00  0.00    +0.025 C 
ATOM     33  O   LIG    1       22.298 -29.323  12.131  0.00  0.00    -0.274 OA
ATOM     34  O   LIG    1       26.816 -28.891  12.753  0.00  0.00    -0.270 OA
ATOM     35  C   LIG    1       24.210 -26.585  13.682  0.00  0.00    -0.021 A 
ATOM     36  C   LIG    1       24.128 -25.272  14.189  0.00  0.00    +0.009 A 
ATOM     37  C   LIG    1       25.275 -24.482  14.342  0.00  0.00    +0.046 A 
BRANCH  24  39
ATOM     38  C   LIG    1       28.485 -24.560  15.248  0.00  0.00    +0.277 C 
ATOM     39  O   LIG    1       27.604 -24.166  14.193  0.00  0.00    -0.495 OA
ENDBRANCH  24  39
ENDBRANCH  23  28
ENDBRANCH  22  23
ENDBRANCH   1  22
TORSDOF 9
ENDMDL
MODEL 4
REMARK VINA RESULT:      -9.6      3.422      6.160
REMARK  Name = *****
REMARK                            x       y       z     vdW  Elec       q    Type
REMARK                         _______ _______ _______ _____ _____    ______ ____
ROOT
ATOM      1  C   LIG    1       26.240 -29.980   9.035  0.00  0.00    -0.046 A 
ATOM      2  C   LIG    1       26.643 -28.640   9.138  0.00  0.00    +0.005 A 
ATOM      3  C   LIG    1       26.279 -27.713   8.161  0.00  0.00    +0.029 A 
ATOM      4  C   LIG    1       25.520 -28.140   7.064  0.00  0.00    +0.113 A 
ATOM      5  C   LIG    1       25.116 -29.469   6.948  0.00  0.00    +0.029 A 
ATOM      6  C   LIG    1       25.479 -30.388   7.929  0.00  0.00    +0.005 A 
ENDROOT
BRANCH   4   7
ATOM      7  S   LIG    1       25.089 -26.982   5.786  0.00  0.00    +0.103 S 
ATOM      8  O   LIG    1       23.642 -26.941   5.708  0.00  0.00    -0.146 OA
ATOM      9  O   LIG    1       25.873 -27.346   4.621  0.00  0.00    -0.146 OA
BRANCH   7  10
ATOM     10  N   LIG    1       25.629 -25.590   6.384  0.00  0.00    -0.076 NA
ATOM     11  C   LIG    1       25.469 -24.452   5.814  0.00  0.00    +0.299 C 
BRANCH  11  12
ATOM     12  N   LIG    1       25.993 -23.278   6.253  0.00  0.00    -0.295 N 
ATOM     13  H   LIG    1       26.818 -23.386   6.831  0.00  0.00    +0.151 HD
BRANCH  12  14
ATOM     14  C   LIG    1       25.241 -22.037   6.355  0.00  0.00    +0.075 C 
ATOM     15  C   LIG    1       24.595 -21.871   7.736  0.00  0.00    +0.022 C 
ATOM     16  C   LIG    1       25.578 -21.496   8.841  0.00  0.00    +0.002 C 
ATOM     17  C   LIG    1       26.474 -20.323   8.465  0.00  0.00    +0.000 C 
ATOM     18  C   LIG    1       27.150 -20.522   7.113  0.00  0.00    +0.002 C 
ATOM     19  C   LIG    1       26.132 -20.833   6.018  0.00  0.00    +0.022 C 
ENDBRANCH  12  14
ENDBRANCH  11  12
BRANCH  11  20
ATOM     20  O   LIG    1       24.769 -24.229   4.693  0.00  0.00    -0.481 OA
ATOM     21  H   LIG    1       24.941 -23.334   4.329  0.00  0.00    +0.295 HD
ENDBRANCH  11  20
ENDBRANCH   7  10
ENDBRANCH   4   7
BRANCH   1  22
ATOM     22  C   LIG    1       26.639 -30.975  10.099  0.00  0.00    +0.054 C 
BRANCH  22  23
ATOM     23  C   LIG    1       25.507 -31.231  11.102  0.00  0.00    +0.121 C 
BRANCH  23  28
ATOM     24  C   LIG    1       21.575 -27.071  13.341  0.00  0.00    +0.121 A 
ATOM     25  C   LIG    1       22.064 -28.125  12.579  0.00  0.00    +0.059 A 
ATOM     26  C   LIG    1       23.418 -28.466  12.601  0.00  0.00    +0.045 A 
ATOM     27  C   LIG    1       23.849 -29.570  11.720  0.00  0.00    +0.253 C 
ATOM     28  N   LIG    1       25.150 -30.031  11.860  0.00  0.00    -0.237 N 
ATOM     29  C   LIG    1       26.068 -29.532  12.776  0.00  0.00    +0.232 C 
ATOM     30  C   LIG    1       25.794 -28.131  13.362  0.00  0.00    +0.068 C 
ATOM     31  C   LIG    1       26.500 -27.131  12.425  0.00  0.00    +0.025 C 
ATOM     32  C   LIG    1       26.431 -28.070  14.765  0.00  0.00    +0.025 C 
ATOM     33  O   LIG    1       27.114 -30.138  13.029  0.00  0.00    -0.274 OA
ATOM     34  O   LIG    1       23.043 -30.054  10.929  0.00  0.00    -0.270 OA
ATOM     35  C   LIG    1       24.318 -27.771  13.406  0.00  0.00    -0.021 A 
ATOM     36  C   LIG    1       23.821 -26.695  14.169  0.00  0.00    +0.009 A 
ATOM     37  C   LIG    1       22.462 -26.354  14.139  0.00  0.00    +0.046 A 
BRANCH  24  39
ATOM     38  C   LIG    1       19.640 -26.700  14.638  0.00  0.00    +0.277 C 
ATOM     39  O   LIG    1       20.266 -26.674  13.353  0.00  0.00    -0.495 OA
ENDBRANCH  24  39
ENDBRANCH  23  28
ENDBRANCH  22  23
ENDBRANCH   1  22
TORSDOF 9
ENDMDL
MODEL 5
REMARK VINA RESULT:      -9.2      1.653      1.939
REMARK  Name = *****
REMARK                            x       y       z     vdW  Elec       q    Type
REMARK                         _______ _______ _______ _____ _____    ______ ____
ROOT
ATOM      1  C   LIG    1       25.776 -26.585   5.622  0.00  0.00    -0.046 A 
ATOM      2  C   LIG    1       25.215 -25.782   4.618  0.00  0.00    +0.005 A 
ATOM      3  C   LIG    1       24.890 -24.450   4.874  0.00  0.00    +0.029 A 
ATOM      4  C   LIG    1       25.116 -23.926   6.154  0.00  0.00    +0.113 A 
ATOM      5  C   LIG    1       25.670 -24.714   7.162  0.00  0.00    +0.029 A 
ATOM      6  C   LIG    1       25.994 -26.042   6.897  0.00  0.00    +0.005 A 
ENDROOT
BRANCH   4   7
ATOM      7  S   LIG    1       24.664 -22.244   6.510  0.00  0.00    +0.103 S 
ATOM      8  O   LIG    1       23.981 -22.240   7.788  0.00  0.00    -0.146 OA
ATOM      9  O   LIG    1       23.997 -21.739   5.324  0.00  0.00    -0.146 OA
BRANCH   7  10
ATOM     10  N   LIG    1       26.094 -21.527   6.667  0.00  0.00    -0.076 NA
ATOM     11  C   LIG    1       26.677 -21.323   7.792  0.00  0.00    +0.299 C 
BRANCH  11  12
ATOM     12  N   LIG    1       27.840 -20.641   7.958  0.00  0.00    -0.295 N 
ATOM     13  H   LIG    1       27.721 -19.715   8.352  0.00  0.00    +0.151 HD
BRANCH  12  14
ATOM     14  C   LIG    1       29.062 -20.921   7.220  0.00  0.00    +0.075 C 
ATOM     15  C   LIG    1       29.338 -19.862   6.146  0.00  0.00    +0.022 C 
ATOM     16  C   LIG    1       29.845 -18.533   6.700  0.00  0.00    +0.002 C 
ATOM     17  C   LIG    1       31.004 -18.700   7.675  0.00  0.00    +0.000 C 
ATOM     18  C   LIG    1       30.698 -19.718   8.767  0.00  0.00    +0.002 C 
ATOM     19  C   LIG    1       30.254 -21.055   8.177  0.00  0.00    +0.022 C 
ENDBRANCH  12  14
ENDBRANCH  11  12
BRANCH  11  20
ATOM     20  O   LIG    1       26.237 -21.738   8.989  0.00  0.00    -0.481 OA
ATOM     21  H   LIG    1       26.946 -21.711   9.666  0.00  0.00    +0.295 HD
ENDBRANCH  11  20
ENDBRANCH   7  10
ENDBRANCH   4   7
BRANCH   1  22
ATOM     22  C   LIG    1       26.124 -28.026   5.334  0.00  0.00    +0.054 C 
BRANCH  22  23
ATOM     23  C   LIG    1       24.874 -28.908   5.217  0.00  0.00    +0.121 C 
BRANCH  23  28
ATOM     24  C   LIG    1       23.620 -32.188  10.261  0.00  0.00    +0.121 A 
ATOM     25  C   LIG    1       23.717 -31.097   9.406  0.00  0.00    +0.059 A 
ATOM     26  C   LIG    1       24.368 -31.199   8.175  0.00  0.00    +0.045 A 
ATOM     27  C   LIG    1       24.460 -29.972   7.358  0.00  0.00    +0.253 C 
ATOM     28  N   LIG    1       24.948 -30.098   6.065  0.00  0.00    -0.237 N 
ATOM     29  C   LIG    1       25.345 -31.298   5.486  0.00  0.00    +0.232 C 
ATOM     30  C   LIG    1       25.676 -32.468   6.437  0.00  0.00    +0.068 C 
ATOM     31  C   LIG    1       27.182 -32.356   6.742  0.00  0.00    +0.025 C 
ATOM     32  C   LIG    1       25.391 -33.784   5.687  0.00  0.00    +0.025 C 
ATOM     33  O   LIG    1       25.528 -31.392   4.269  0.00  0.00    -0.274 OA
ATOM     34  O   LIG    1       24.078 -28.906   7.835  0.00  0.00    -0.270 OA
ATOM     35  C   LIG    1       24.924 -32.407   7.757  0.00  0.00    -0.021 A 
ATOM     36  C   LIG    1       24.835 -33.508   8.632  0.00  0.00    +0.009 A 
ATOM     37  C   LIG    1       24.184 -33.399   9.869  0.00  0.00    +0.046 A 
BRANCH  24  39
ATOM     38  C   LIG    1       21.722 -32.766  11.537  0.00  0.00    +0.277 C 
ATOM     39  O   LIG    1       23.012 -32.153  11.487  0.00  0.00    -0.495 OA
ENDBRANCH  24  39
ENDBRANCH  23  28
ENDBRANCH  22  23
ENDBRANCH   1  22
TORSDOF 9
ENDMDL
MODEL 6
REMARK VINA RESULT:      -9.2      2.422      3.867
REMARK  Name = *****
REMARK                            x       y       z     vdW  Elec       q    Type
REMARK                         _______ _______ _______ _____ _____    ______ ____
ROOT
ATOM      1  C   LIG    1       24.623 -25.696   6.349  0.00  0.00    -0.046 A 
ATOM      2  C   LIG    1       23.670 -24.712   6.651  0.00  0.00    +0.005 A 
ATOM      3  C   LIG    1       24.069 -23.429   7.027  0.00  0.00    +0.029 A 
ATOM      4  C   LIG    1       25.437 -23.138   7.114  0.00  0.00    +0.113 A 
ATOM      5  C   LIG    1       26.394 -24.107   6.820  0.00  0.00    +0.029 A 
ATOM      6  C   LIG    1       25.988 -25.384   6.443  0.00  0.00    +0.005 A 
ENDROOT
BRANCH   4   7
ATOM      7  S   LIG    1       25.962 -21.522   7.637  0.00  0.00    +0.103 S 
ATOM      8  O   LIG    1       27.409 -21.490   7.559  0.00  0.00    -0.146 OA
ATOM      9  O   LIG    1       25.292 -21.261   8.898  0.00  0.00    -0.146 OA
BRANCH   7  10
ATOM     10  N   LIG    1       25.345 -20.572   6.495  0.00  0.00    -0.076 NA
ATOM     11  C   LIG    1       25.988 -20.189   5.453  0.00  0.00    +0.299 C 
BRANCH  11  12
ATOM     12  N   LIG    1       25.521 -19.317   4.523  0.00  0.00    -0.295 N 
ATOM     13  H   LIG    1       25.618 -18.343   4.787  0.00  0.00    +0.151 HD
BRANCH  12  14
ATOM     14  C   LIG    1       24.538 -19.657   3.505  0.00  0.00    +0.075 C 
ATOM     15  C   LIG    1       23.986 -21.075   3.696  0.00  0.00    +0.022 C 
ATOM     16  C   LIG    1       22.999 -21.208   4.852  0.00  0.00    +0.002 C 
ATOM     17  C   LIG    1       21.905 -20.148   4.823  0.00  0.00    +0.000 C 
ATOM     18  C   LIG    1       22.469 -18.739   4.684  0.00  0.00    +0.002 C 
ATOM     19  C   LIG    1       23.403 -18.625   3.481  0.00  0.00    +0.022 C 
ENDBRANCH  12  14
ENDBRANCH  11  12
BRANCH  11  20
ATOM     20  O   LIG    1       27.225 -20.576   5.110  0.00  0.00    -0.481 OA
ATOM     21  H   LIG    1       27.904 -19.937   5.416  0.00  0.00    +0.295 HD
ENDBRANCH  11  20
ENDBRANCH   7  10
ENDBRANCH   4   7
BRANCH   1  22
ATOM     22  C   LIG    1       24.180 -27.082   5.944  0.00  0.00    +0.054 C 
BRANCH  22  23
ATOM     23  C   LIG    1       25.336 -28.089   5.979  0.00  0.00    +0.121 C 
BRANCH  23  28
ATOM     24  C   LIG    1       25.997 -29.629  11.892  0.00  0.00    +0.121 A 
ATOM     25  C   LIG    1       26.120 -28.906  10.712  0.00  0.00    +0.059 A 
ATOM     26  C   LIG    1       25.645 -29.415   9.501  0.00  0.00    +0.045 A 
ATOM     27  C   LIG    1       25.864 -28.593   8.293  0.00  0.00    +0.253 C 
ATOM     28  N   LIG    1       25.248 -29.002   7.120  0.00  0.00    -0.237 N 
ATOM     29  C   LIG    1       24.433 -30.121   7.006  0.00  0.00    +0.232 C 
ATOM     30  C   LIG    1       24.559 -31.203   8.101  0.00  0.00    +0.068 C 
ATOM     31  C   LIG    1       25.632 -32.190   7.602  0.00  0.00    +0.025 C 
ATOM     32  C   LIG    1       23.201 -31.923   8.215  0.00  0.00    +0.025 C 
ATOM     33  O   LIG    1       23.716 -30.295   6.016  0.00  0.00    -0.274 OA
ATOM     34  O   LIG    1       26.549 -27.576   8.378  0.00  0.00    -0.270 OA
ATOM     35  C   LIG    1       25.013 -30.655   9.443  0.00  0.00    -0.021 A 
ATOM     36  C   LIG    1       24.901 -31.391  10.641  0.00  0.00    +0.009 A 
ATOM     37  C   LIG    1       25.384 -30.878  11.853  0.00  0.00    +0.046 A 
BRANCH  24  39
ATOM     38  C   LIG    1       27.719 -29.741  13.501  0.00  0.00    +0.277 C 
ATOM     39  O   LIG    1       26.456 -29.199  13.108  0.00  0.00    -0.495 OA
ENDBRANCH  24  39
ENDBRANCH  23  28
ENDBRANCH  22  23
ENDBRANCH   1  22
TORSDOF 9
ENDMDL
MODEL 7
REMARK VINA RESULT:      -9.2      2.886      9.598
REMARK  Name = *****
REMARK                            x       y       z     vdW  Elec       q    Type
REMARK                         _______ _______ _______ _____ _____    ______ ____
ROOT
ATOM      1  C   LIG    1       24.955 -26.851   5.875  0.00  0.00    -0.046 A 
ATOM      2  C   LIG    1       25.759 -27.011   7.013  0.00  0.00    +0.005 A 
ATOM      3  C   LIG    1       25.770 -28.220   7.709  0.00  0.00    +0.029 A 
ATOM      4  C   LIG    1       24.953 -29.269   7.268  0.00  0.00    +0.113 A 
ATOM      5  C   LIG    1       24.146 -29.122   6.140  0.00  0.00    +0.029 A 
ATOM      6  C   LIG    1       24.144 -27.914   5.448  0.00  0.00    +0.005 A 
ENDROOT
BRANCH   4   7
ATOM      7  S   LIG    1       24.919 -30.799   8.172  0.00  0.00    +0.103 S 
ATOM      8  O   LIG    1       26.112 -31.540   7.814  0.00  0.00    -0.146 OA
ATOM      9  O   LIG    1       23.606 -31.377   7.950  0.00  0.00    -0.146 OA
BRANCH   7  10
ATOM     10  N   LIG    1       25.036 -30.303   9.697  0.00  0.00    -0.076 NA
ATOM     11  C   LIG    1       25.645 -30.954  10.620  0.00  0.00    +0.299 C 
BRANCH  11  12
ATOM     12  N   LIG    1       25.681 -30.601  11.931  0.00  0.00    -0.295 N 
ATOM     13  H   LIG    1       24.767 -30.450  12.342  0.00  0.00    +0.151 HD
BRANCH  12  14
ATOM     14  C   LIG    1       26.834 -29.998  12.582  0.00  0.00    +0.075 C 
ATOM     15  C   LIG    1       27.601 -29.065  11.638  0.00  0.00    +0.022 C 
ATOM     16  C   LIG    1       26.907 -27.730  11.384  0.00  0.00    +0.002 C 
ATOM     17  C   LIG    1       26.465 -27.037  12.667  0.00  0.00    +0.000 C 
ATOM     18  C   LIG    1       25.660 -27.961  13.575  0.00  0.00    +0.002 C 
ATOM     19  C   LIG    1       26.410 -29.260  13.859  0.00  0.00    +0.022 C 
ENDBRANCH  12  14
ENDBRANCH  11  12
BRANCH  11  20
ATOM     20  O   LIG    1       26.338 -32.089  10.452  0.00  0.00    -0.481 OA
ATOM     21  H   LIG    1       26.435 -32.584  11.293  0.00  0.00    +0.295 HD
ENDBRANCH  11  20
ENDBRANCH   7  10
ENDBRANCH   4   7
BRANCH   1  22
ATOM     22  C   LIG    1       24.951 -25.538   5.128  0.00  0.00    +0.054 C 
BRANCH  22  23
ATOM     23  C   LIG    1       24.169 -24.451   5.876  0.00  0.00    +0.121 C 
BRANCH  23  28
ATOM     24  C   LIG    1       28.709 -20.761   7.757  0.00  0.00    +0.121 A 
ATOM     25  C   LIG    1       27.873 -21.869   7.690  0.00  0.00    +0.059 A 
ATOM     26  C   LIG    1       26.756 -21.880   6.851  0.00  0.00    +0.045 A 
ATOM     27  C   LIG    1       25.902 -23.084   6.885  0.00  0.00    +0.253 C 
ATOM     28  N   LIG    1       24.894 -23.182   5.937  0.00  0.00    -0.237 N 
ATOM     29  C   LIG    1       24.641 -22.231   4.955  0.00  0.00    +0.232 C 
ATOM     30  C   LIG    1       25.203 -20.812   5.183  0.00  0.00    +0.068 C 
ATOM     31  C   LIG    1       24.103 -20.032   5.928  0.00  0.00    +0.025 C 
ATOM     32  C   LIG    1       25.451 -20.172   3.802  0.00  0.00    +0.025 C 
ATOM     33  O   LIG    1       23.908 -22.481   3.994  0.00  0.00    -0.274 OA
ATOM     34  O   LIG    1       26.131 -23.957   7.719  0.00  0.00    -0.270 OA
ATOM     35  C   LIG    1       26.458 -20.787   6.040  0.00  0.00    -0.021 A 
ATOM     36  C   LIG    1       27.302 -19.661   6.120  0.00  0.00    +0.009 A 
ATOM     37  C   LIG    1       28.419 -19.652   6.966  0.00  0.00    +0.046 A 
BRANCH  24  39
ATOM     38  C   LIG    1       30.920 -19.977   8.005  0.00  0.00    +0.277 C 
ATOM     39  O   LIG    1       29.808 -20.676   8.568  0.00  0.00    -0.495 OA
ENDBRANCH  24  39
ENDBRANCH  23  28
ENDBRANCH  22  23
ENDBRANCH   1  22
TORSDOF 9
ENDMDL
MODEL 8
REMARK VINA RESULT:      -9.0      3.277      5.609
REMARK  Name = *****
REMARK                            x       y       z     vdW  Elec       q    Type
REMARK                         _______ _______ _______ _____ _____    ______ ____
ROOT
ATOM      1  C   LIG    1       24.440 -30.742   6.999  0.00  0.00    -0.046 A 
ATOM      2  C   LIG    1       23.902 -29.504   7.379  0.00  0.00    +0.005 A 
ATOM      3  C   LIG    1       24.350 -28.323   6.786  0.00  0.00    +0.029 A 
ATOM      4  C   LIG    1       25.359 -28.386   5.816  0.00  0.00    +0.113 A 
ATOM      5  C   LIG    1       25.905 -29.610   5.431  0.00  0.00    +0.029 A 
ATOM      6  C   LIG    1       25.450 -30.784   6.025  0.00  0.00    +0.005 A 
ENDROOT
BRANCH   4   7
ATOM      7  S   LIG    1       25.974 -26.887   5.085  0.00  0.00    +0.103 S 
ATOM      8  O   LIG    1       25.656 -26.932   3.672  0.00  0.00    -0.146 OA
ATOM      9  O   LIG    1       27.352 -26.755   5.521  0.00  0.00    -0.146 OA
BRANCH   7  10
ATOM     10  N   LIG    1       25.076 -25.760   5.798  0.00  0.00    -0.076 NA
ATOM     11  C   LIG    1       24.689 -24.680   5.225  0.00  0.00    +0.299 C 
BRANCH  11  12
ATOM     12  N   LIG    1       24.007 -23.674   5.833  0.00  0.00    -0.295 N 
ATOM     13  H   LIG    1       23.587 -23.014   5.188  0.00  0.00    +0.151 HD
BRANCH  12  14
ATOM     14  C   LIG    1       24.238 -23.242   7.203  0.00  0.00    +0.075 C 
ATOM     15  C   LIG    1       25.732 -23.077   7.506  0.00  0.00    +0.022 C 
ATOM     16  C   LIG    1       26.357 -21.828   6.890  0.00  0.00    +0.002 C 
ATOM     17  C   LIG    1       25.554 -20.563   7.170  0.00  0.00    +0.000 C 
ATOM     18  C   LIG    1       24.080 -20.724   6.817  0.00  0.00    +0.002 C 
ATOM     19  C   LIG    1       23.471 -21.947   7.500  0.00  0.00    +0.022 C 
ENDBRANCH  12  14
ENDBRANCH  11  12
BRANCH  11  20
ATOM     20  O   LIG    1       24.897 -24.356   3.941  0.00  0.00    -0.481 OA
ATOM     21  H   LIG    1       25.288 -23.462   3.850  0.00  0.00    +0.295 HD
ENDBRANCH  11  20
ENDBRANCH   7  10
ENDBRANCH   4   7
BRANCH   1  22
ATOM     22  C   LIG    1       23.948 -32.014   7.647  0.00  0.00    +0.054 C 
BRANCH  22  23
ATOM     23  C   LIG    1       24.750 -32.366   8.906  0.00  0.00    +0.121 C 
BRANCH  23  28
ATOM     24  C   LIG    1       23.200 -28.178  13.129  0.00  0.00    +0.121 A 
ATOM     25  C   LIG    1       23.068 -29.204  12.200  0.00  0.00    +0.059 A 
ATOM     26  C   LIG    1       24.149 -29.608  11.412  0.00  0.00    +0.045 A 
ATOM     27  C   LIG    1       23.898 -30.673  10.421  0.00  0.00    +0.253 C 
ATOM     28  N   LIG    1       24.995 -31.201   9.757  0.00  0.00    -0.237 N 
ATOM     29  C   LIG    1       26.310 -30.805   9.968  0.00  0.00    +0.232 C 
ATOM     30  C   LIG    1       26.537 -29.431  10.636  0.00  0.00    +0.068 C 
ATOM     31  C   LIG    1       26.631 -28.409   9.487  0.00  0.00    +0.025 C 
ATOM     32  C   LIG    1       27.877 -29.488  11.395  0.00  0.00    +0.025 C 
ATOM     33  O   LIG    1       27.257 -31.472   9.543  0.00  0.00    -0.274 OA
ATOM     34  O   LIG    1       22.748 -31.068  10.245  0.00  0.00    -0.270 OA
ATOM     35  C   LIG    1       25.399 -29.007  11.549  0.00  0.00    -0.021 A 
ATOM     36  C   LIG    1       25.525 -27.959  12.484  0.00  0.00    +0.009 A 
ATOM     37  C   LIG    1       24.436 -27.555  13.269  0.00  0.00    +0.046 A 
BRANCH  24  39
ATOM     38  C   LIG    1       20.924 -27.568  13.253  0.00  0.00    +0.277 C 
ATOM     39  O   LIG    1       22.179 -27.722  13.919  0.00  0.00    -0.495 OA
ENDBRANCH  24  39
ENDBRANCH  23  28
ENDBRANCH  22  23
ENDBRANCH   1  22
TORSDOF 9
ENDMDL
MODEL 9
REMARK VINA RESULT:      -9.0      1.372      1.884
REMARK  Name = *****
REMARK                            x       y       z     vdW  Elec       q    Type
REMARK                         _______ _______ _______ _____ _____    ______ ____
ROOT
ATOM      1  C   LIG    1       24.084 -25.441   5.799  0.00  0.00    -0.046 A 
ATOM      2  C   LIG    1       25.049 -24.713   5.088  0.00  0.00    +0.005 A 
ATOM      3  C   LIG    1       25.155 -23.331   5.248  0.00  0.00    +0.029 A 
ATOM      4  C   LIG    1       24.272 -22.674   6.115  0.00  0.00    +0.113 A 
ATOM      5  C   LIG    1       23.306 -23.385   6.825  0.00  0.00    +0.029 A 
ATOM      6  C   LIG    1       23.209 -24.765   6.663  0.00  0.00    +0.005 A 
ENDROOT
BRANCH   4   7
ATOM      7  S   LIG    1       24.364 -20.908   6.293  0.00  0.00    +0.103 S 
ATOM      8  O   LIG    1       23.448 -20.532   7.353  0.00  0.00    -0.146 OA
ATOM      9  O   LIG    1       24.207 -20.353   4.961  0.00  0.00    -0.146 OA
BRANCH   7  10
ATOM     10  N   LIG    1       25.876 -20.688   6.792  0.00  0.00    -0.076 NA
ATOM     11  C   LIG    1       26.861 -20.430   6.012  0.00  0.00    +0.299 C 
BRANCH  11  12
ATOM     12  N   LIG    1       28.159 -20.329   6.398  0.00  0.00    -0.295 N 
ATOM     13  H   LIG    1       28.774 -21.001   5.953  0.00  0.00    +0.151 HD
BRANCH  12  14
ATOM     14  C   LIG    1       28.594 -19.722   7.647  0.00  0.00    +0.075 C 
ATOM     15  C   LIG    1       29.065 -20.773   8.660  0.00  0.00    +0.022 C 
ATOM     16  C   LIG    1       30.434 -21.370   8.345  0.00  0.00    +0.002 C 
ATOM     17  C   LIG    1       31.491 -20.311   8.058  0.00  0.00    +0.000 C 
ATOM     18  C   LIG    1       31.030 -19.302   7.012  0.00  0.00    +0.002 C 
ATOM     19  C   LIG    1       29.688 -18.678   7.390  0.00  0.00    +0.022 C 
ENDBRANCH  12  14
ENDBRANCH  11  12
BRANCH  11  20
ATOM     20  O   LIG    1       26.780 -20.227   4.689  0.00  0.00    -0.481 OA
ATOM     21  H   LIG    1       27.665 -20.230   4.266  0.00  0.00    +0.295 HD
ENDBRANCH  11  20
ENDBRANCH   7  10
ENDBRANCH   4   7
BRANCH   1  22
ATOM     22  C   LIG    1       23.978 -26.937   5.619  0.00  0.00    +0.054 C 
BRANCH  22  23
ATOM     23  C   LIG    1       25.341 -27.630   5.740  0.00  0.00    +0.121 C 
BRANCH  23  28
ATOM     24  C   LIG    1       26.617 -29.036  11.585  0.00  0.00    +0.121 A 
ATOM     25  C   LIG    1       26.590 -28.325  10.392  0.00  0.00    +0.059 A 
ATOM     26  C   LIG    1       26.042 -28.880   9.233  0.00  0.00    +0.045 A 
ATOM     27  C   LIG    1       26.102 -28.065   8.003  0.00  0.00    +0.253 C 
ATOM     28  N   LIG    1       25.411 -28.529   6.893  0.00  0.00    -0.237 N 
ATOM     29  C   LIG    1       24.661 -29.698   6.863  0.00  0.00    +0.232 C 
ATOM     30  C   LIG    1       24.952 -30.753   7.952  0.00  0.00    +0.068 C 
ATOM     31  C   LIG    1       26.037 -31.680   7.370  0.00  0.00    +0.025 C 
ATOM     32  C   LIG    1       23.657 -31.554   8.195  0.00  0.00    +0.025 C 
ATOM     33  O   LIG    1       23.872 -29.931   5.943  0.00  0.00    -0.274 OA
ATOM     34  O   LIG    1       26.726 -27.007   8.016  0.00  0.00    -0.270 OA
ATOM     35  C   LIG    1       25.487 -30.158   9.244  0.00  0.00    -0.021 A 
ATOM     36  C   LIG    1       25.528 -30.881  10.454  0.00  0.00    +0.009 A 
ATOM     37  C   LIG    1       26.083 -30.321  11.613  0.00  0.00    +0.046 A 
BRANCH  24  39
ATOM     38  C   LIG    1       26.220 -27.924  13.628  0.00  0.00    +0.277 C 
ATOM     39  O   LIG    1       27.154 -28.560  12.751  0.00  0.00    -0.495 OA
ENDBRANCH  24  39
ENDBRANCH  23  28
ENDBRANCH  22  23
ENDBRANCH   1  22
TORSDOF 9
ENDMDL
