MODEL 1
REMARK VINA RESULT:      -3.5      0.000      0.000
REMARK  Name = *****
REMARK                            x       y       z     vdW  Elec       q    Type
REMARK                         _______ _______ _______ _____ _____    ______ ____
ROOT
ATOM      1  C   LIG    1       26.004 -14.185   4.152  0.00  0.00    +0.129 C 
ATOM      2  C   LIG    1       26.255 -13.295   5.373  0.00  0.00    +0.236 C 
ATOM      3  O   LIG    1       25.405 -13.037   6.225  0.00  0.00    -0.274 OA
ATOM      4  N   LIG    1       27.532 -12.838   5.542  0.00  0.00    -0.239 N 
ATOM      5  H   LIG    1       27.690 -12.268   6.362  0.00  0.00    +0.159 HD
ATOM      6  C   LIG    1       28.430 -12.669   4.538  0.00  0.00    +0.312 C 
ATOM      7  O   LIG    1       29.402 -11.932   4.663  0.00  0.00    -0.252 OA
ATOM      8  N   LIG    1       28.150 -13.279   3.357  0.00  0.00    -0.239 N 
ATOM      9  H   LIG    1       28.753 -13.017   2.588  0.00  0.00    +0.159 HD
ATOM     10  C   LIG    1       26.916 -13.753   3.003  0.00  0.00    +0.236 C 
ATOM     11  O   LIG    1       26.642 -13.873   1.812  0.00  0.00    -0.274 OA
ENDROOT
BRANCH   1  12
ATOM     12  C   LIG    1       24.480 -14.138   3.753  0.00  0.00    +0.010 C 
ATOM     13  C   LIG    1       23.968 -12.744   3.345  0.00  0.00    +0.009 C 
BRANCH  12  14
ATOM     14  C   LIG    1       23.570 -14.740   4.860  0.00  0.00    +0.001 C 
ATOM     15  C   LIG    1       22.823 -15.995   4.422  0.00  0.00    +0.004 C 
ENDBRANCH  12  14
ENDBRANCH   1  12
BRANCH   1  16
ATOM     16  C   LIG    1       26.490 -15.617   4.555  0.00  0.00    +0.052 C 
BRANCH  16  18
ATOM     17  C   LIG    1       25.824 -17.702   3.306  0.00  0.00    +0.004 C 
ATOM     18  C   LIG    1       26.593 -16.614   3.427  0.00  0.00    -0.033 C 
ENDBRANCH  16  18
ENDBRANCH   1  16
TORSDOF 4
ENDMDL
MODEL 2
REMARK VINA RESULT:      -3.2      2.358      4.618
REMARK  Name = *****
REMARK                            x       y       z     vdW  Elec       q    Type
REMARK                         _______ _______ _______ _____ _____    ______ ____
ROOT
ATOM      1  C   LIG    1       25.979 -14.290   3.626  0.00  0.00    +0.129 C 
ATOM      2  C   LIG    1       25.028 -13.580   4.594  0.00  0.00    +0.236 C 
ATOM      3  O   LIG    1       25.328 -12.579   5.245  0.00  0.00    -0.274 OA
ATOM      4  N   LIG    1       23.751 -14.063   4.659  0.00  0.00    -0.239 N 
ATOM      5  H   LIG    1       23.127 -13.574   5.287  0.00  0.00    +0.159 HD
ATOM      6  C   LIG    1       23.394 -15.341   4.367  0.00  0.00    +0.312 C 
ATOM      7  O   LIG    1       22.345 -15.824   4.779  0.00  0.00    -0.252 OA
ATOM      8  N   LIG    1       24.295 -16.086   3.676  0.00  0.00    -0.239 N 
ATOM      9  H   LIG    1       24.069 -17.069   3.602  0.00  0.00    +0.159 HD
ATOM     10  C   LIG    1       25.622 -15.775   3.550  0.00  0.00    +0.236 C 
ATOM     11  O   LIG    1       26.425 -16.675   3.314  0.00  0.00    -0.274 OA
ENDROOT
BRANCH   1  12
ATOM     12  C   LIG    1       27.474 -14.058   4.069  0.00  0.00    +0.010 C 
ATOM     13  C   LIG    1       27.664 -13.820   5.578  0.00  0.00    +0.009 C 
BRANCH  12  14
ATOM     14  C   LIG    1       28.150 -12.918   3.257  0.00  0.00    +0.001 C 
ATOM     15  C   LIG    1       29.119 -12.074   4.078  0.00  0.00    +0.004 C 
ENDBRANCH  12  14
ENDBRANCH   1  12
BRANCH   1  16
ATOM     16  C   LIG    1       25.661 -13.712   2.207  0.00  0.00    +0.052 C 
BRANCH  16  18
ATOM     17  C   LIG    1       24.628 -11.447   1.812  0.00  0.00    +0.004 C 
ATOM     18  C   LIG    1       24.510 -12.739   2.140  0.00  0.00    -0.033 C 
ENDBRANCH  16  18
ENDBRANCH   1  16
TORSDOF 4
ENDMDL
MODEL 3
REMARK VINA RESULT:      -1.9      1.472      3.194
REMARK  Name = *****
REMARK                            x       y       z     vdW  Elec       q    Type
REMARK                         _______ _______ _______ _____ _____    ______ ____
ROOT
ATOM      1  C   LIG    1       25.621 -14.383   3.518  0.00  0.00    +0.129 C 
ATOM      2  C   LIG    1       27.016 -15.000   3.659  0.00  0.00    +0.236 C 
ATOM      3  O   LIG    1       27.298 -16.150   3.324  0.00  0.00    -0.274 OA
ATOM      4  N   LIG    1       28.005 -14.174   4.114  0.00  0.00    -0.239 N 
ATOM      5  H   LIG    1       28.925 -14.587   4.184  0.00  0.00    +0.159 HD
ATOM      6  C   LIG    1       27.799 -13.082   4.895  0.00  0.00    +0.312 C 
ATOM      7  O   LIG    1       28.700 -12.597   5.571  0.00  0.00    -0.252 OA
ATOM      8  N   LIG    1       26.528 -12.610   4.966  0.00  0.00    -0.239 N 
ATOM      9  H   LIG    1       26.375 -11.895   5.664  0.00  0.00    +0.159 HD
ATOM     10  C   LIG    1       25.417 -13.320   4.598  0.00  0.00    +0.236 C 
ATOM     11  O   LIG    1       24.330 -13.022   5.087  0.00  0.00    -0.274 OA
ENDROOT
BRANCH   1  12
ATOM     12  C   LIG    1       24.522 -15.512   3.577  0.00  0.00    +0.010 C 
ATOM     13  C   LIG    1       23.374 -15.237   4.566  0.00  0.00    +0.009 C 
BRANCH  12  14
ATOM     14  C   LIG    1       25.141 -16.911   3.851  0.00  0.00    +0.001 C 
ATOM     15  C   LIG    1       24.146 -18.058   3.706  0.00  0.00    +0.004 C 
ENDBRANCH  12  14
ENDBRANCH   1  12
BRANCH   1  16
ATOM     16  C   LIG    1       25.629 -13.604   2.162  0.00  0.00    +0.052 C 
BRANCH  16  18
ATOM     17  C   LIG    1       24.368 -11.449   1.813  0.00  0.00    +0.004 C 
ATOM     18  C   LIG    1       24.396 -12.786   1.869  0.00  0.00    -0.033 C 
ENDBRANCH  16  18
ENDBRANCH   1  16
TORSDOF 4
ENDMDL
MODEL 4
REMARK VINA RESULT:      -1.8      2.475      4.047
REMARK  Name = *****
REMARK                            x       y       z     vdW  Elec       q    Type
REMARK                         _______ _______ _______ _____ _____    ______ ____
ROOT
ATOM      1  C   LIG    1       25.534 -14.235   3.626  0.00  0.00    +0.129 C 
ATOM      2  C   LIG    1       24.459 -15.236   4.060  0.00  0.00    +0.236 C 
ATOM      3  O   LIG    1       23.439 -14.928   4.676  0.00  0.00    -0.274 OA
ATOM      4  N   LIG    1       24.632 -16.530   3.655  0.00  0.00    -0.239 N 
ATOM      5  H   LIG    1       23.906 -17.178   3.930  0.00  0.00    +0.159 HD
ATOM      6  C   LIG    1       25.834 -17.094   3.369  0.00  0.00    +0.312 C 
ATOM      7  O   LIG    1       25.988 -18.311   3.372  0.00  0.00    -0.252 OA
ATOM      8  N   LIG    1       26.877 -16.248   3.172  0.00  0.00    -0.239 N 
ATOM      9  H   LIG    1       27.783 -16.693   3.109  0.00  0.00    +0.159 HD
ATOM     10  C   LIG    1       26.892 -14.934   3.557  0.00  0.00    +0.236 C 
ATOM     11  O   LIG    1       27.972 -14.382   3.750  0.00  0.00    -0.274 OA
ENDROOT
BRANCH   1  12
ATOM     12  C   LIG    1       25.549 -12.999   4.605  0.00  0.00    +0.010 C 
ATOM     13  C   LIG    1       26.723 -12.985   5.600  0.00  0.00    +0.009 C 
BRANCH  12  14
ATOM     14  C   LIG    1       24.201 -12.843   5.363  0.00  0.00    +0.001 C 
ATOM     15  C   LIG    1       23.597 -11.447   5.255  0.00  0.00    +0.004 C 
ENDBRANCH  12  14
ENDBRANCH   1  12
BRANCH   1  16
ATOM     16  C   LIG    1       25.191 -13.846   2.150  0.00  0.00    +0.052 C 
BRANCH  16  18
ATOM     17  C   LIG    1       24.307 -11.506   1.835  0.00  0.00    +0.004 C 
ATOM     18  C   LIG    1       25.320 -12.381   1.812  0.00  0.00    -0.033 C 
ENDBRANCH  16  18
ENDBRANCH   1  16
TORSDOF 4
ENDMDL
MODEL 5
REMARK VINA RESULT:      -1.3      5.368      6.488
REMARK  Name = *****
REMARK                            x       y       z     vdW  Elec       q    Type
REMARK                         _______ _______ _______ _____ _____    ______ ____
ROOT
ATOM      1  C   LIG    1       24.501 -20.352   4.950  0.00  0.00    +0.129 C 
ATOM      2  C   LIG    1       25.270 -20.970   6.121  0.00  0.00    +0.236 C 
ATOM      3  O   LIG    1       24.738 -21.559   7.062  0.00  0.00    -0.274 OA
ATOM      4  N   LIG    1       26.635 -20.916   6.051  0.00  0.00    -0.239 N 
ATOM      5  H   LIG    1       27.132 -21.345   6.819  0.00  0.00    +0.159 HD
ATOM      6  C   LIG    1       27.334 -19.982   5.357  0.00  0.00    +0.312 C 
ATOM      7  O   LIG    1       28.511 -19.744   5.608  0.00  0.00    -0.252 OA
ATOM      8  N   LIG    1       26.645 -19.258   4.437  0.00  0.00    -0.239 N 
ATOM      9  H   LIG    1       27.150 -18.475   4.044  0.00  0.00    +0.159 HD
ATOM     10  C   LIG    1       25.281 -19.162   4.391  0.00  0.00    +0.236 C 
ATOM     11  O   LIG    1       24.770 -18.184   3.851  0.00  0.00    -0.274 OA
ENDROOT
BRANCH   1  12
ATOM     12  C   LIG    1       23.048 -19.949   5.411  0.00  0.00    +0.010 C 
ATOM     13  C   LIG    1       21.961 -20.990   5.085  0.00  0.00    +0.009 C 
BRANCH  12  14
ATOM     14  C   LIG    1       22.632 -18.553   4.870  0.00  0.00    +0.001 C 
ATOM     15  C   LIG    1       21.344 -18.572   4.055  0.00  0.00    +0.004 C 
ENDBRANCH  12  14
ENDBRANCH   1  12
BRANCH   1  16
ATOM     16  C   LIG    1       24.509 -21.427   3.814  0.00  0.00    +0.052 C 
BRANCH  16  18
ATOM     17  C   LIG    1       23.441 -20.329   1.812  0.00  0.00    +0.004 C 
ATOM     18  C   LIG    1       24.502 -20.889   2.404  0.00  0.00    -0.033 C 
ENDBRANCH  16  18
ENDBRANCH   1  16
TORSDOF 4
ENDMDL
MODEL 6
REMARK VINA RESULT:      -1.3      4.899      6.296
REMARK  Name = *****
REMARK                            x       y       z     vdW  Elec       q    Type
REMARK                         _______ _______ _______ _____ _____    ______ ____
ROOT
ATOM      1  C   LIG    1       23.805 -19.385   4.628  0.00  0.00    +0.129 C 
ATOM      2  C   LIG    1       23.969 -19.895   6.062  0.00  0.00    +0.236 C 
ATOM      3  O   LIG    1       23.118 -19.764   6.942  0.00  0.00    -0.274 OA
ATOM      4  N   LIG    1       25.106 -20.605   6.331  0.00  0.00    -0.239 N 
ATOM      5  H   LIG    1       25.193 -20.954   7.276  0.00  0.00    +0.159 HD
ATOM      6  C   LIG    1       26.274 -20.477   5.650  0.00  0.00    +0.312 C 
ATOM      7  O   LIG    1       27.341 -20.837   6.134  0.00  0.00    -0.252 OA
ATOM      8  N   LIG    1       26.217 -19.845   4.450  0.00  0.00    -0.239 N 
ATOM      9  H   LIG    1       27.115 -19.632   4.036  0.00  0.00    +0.159 HD
ATOM     10  C   LIG    1       25.177 -19.056   4.038  0.00  0.00    +0.236 C 
ATOM     11  O   LIG    1       25.382 -18.197   3.185  0.00  0.00    -0.274 OA
ENDROOT
BRANCH   1  12
ATOM     12  C   LIG    1       22.833 -18.144   4.603  0.00  0.00    +0.010 C 
ATOM     13  C   LIG    1       21.554 -18.350   3.770  0.00  0.00    +0.009 C 
BRANCH  12  14
ATOM     14  C   LIG    1       23.559 -16.844   4.158  0.00  0.00    +0.001 C 
ATOM     15  C   LIG    1       22.969 -15.576   4.764  0.00  0.00    +0.004 C 
ENDBRANCH  12  14
ENDBRANCH   1  12
BRANCH   1  16
ATOM     16  C   LIG    1       23.274 -20.598   3.796  0.00  0.00    +0.052 C 
BRANCH  16  18
ATOM     17  C   LIG    1       21.061 -21.498   4.599  0.00  0.00    +0.004 C 
ATOM     18  C   LIG    1       22.396 -21.571   4.544  0.00  0.00    -0.033 C 
ENDBRANCH  16  18
ENDBRANCH   1  16
TORSDOF 4
ENDMDL
MODEL 7
REMARK VINA RESULT:      -0.9      2.194      3.775
REMARK  Name = *****
REMARK                            x       y       z     vdW  Elec       q    Type
REMARK                         _______ _______ _______ _____ _____    ______ ____
ROOT
ATOM      1  C   LIG    1       26.132 -14.725   3.757  0.00  0.00    +0.129 C 
ATOM      2  C   LIG    1       25.981 -16.198   3.367  0.00  0.00    +0.236 C 
ATOM      3  O   LIG    1       24.974 -16.672   2.842  0.00  0.00    -0.274 OA
ATOM      4  N   LIG    1       27.077 -16.994   3.553  0.00  0.00    -0.239 N 
ATOM      5  H   LIG    1       26.972 -17.960   3.273  0.00  0.00    +0.159 HD
ATOM      6  C   LIG    1       28.055 -16.758   4.466  0.00  0.00    +0.312 C 
ATOM      7  O   LIG    1       28.800 -17.652   4.852  0.00  0.00    -0.252 OA
ATOM      8  N   LIG    1       28.107 -15.511   4.999  0.00  0.00    -0.239 N 
ATOM      9  H   LIG    1       28.744 -15.405   5.778  0.00  0.00    +0.159 HD
ATOM     10  C   LIG    1       27.085 -14.602   4.946  0.00  0.00    +0.236 C 
ATOM     11  O   LIG    1       27.032 -13.715   5.794  0.00  0.00    -0.274 OA
ENDROOT
BRANCH   1  12
ATOM     12  C   LIG    1       24.718 -14.098   4.059  0.00  0.00    +0.010 C 
ATOM     13  C   LIG    1       23.661 -15.108   4.543  0.00  0.00    +0.009 C 
BRANCH  12  14
ATOM     14  C   LIG    1       24.171 -13.287   2.851  0.00  0.00    +0.001 C 
ATOM     15  C   LIG    1       23.897 -11.822   3.171  0.00  0.00    +0.004 C 
ENDBRANCH  12  14
ENDBRANCH   1  12
BRANCH   1  16
ATOM     16  C   LIG    1       26.868 -14.035   2.561  0.00  0.00    +0.052 C 
BRANCH  16  18
ATOM     17  C   LIG    1       28.921 -12.767   3.289  0.00  0.00    +0.004 C 
ATOM     18  C   LIG    1       27.641 -12.785   2.901  0.00  0.00    -0.033 C 
ENDBRANCH  16  18
ENDBRANCH   1  16
TORSDOF 4
ENDMDL
MODEL 8
REMARK VINA RESULT:      -0.9      4.834      6.416
REMARK  Name = *****
REMARK                            x       y       z     vdW  Elec       q    Type
REMARK                         _______ _______ _______ _____ _____    ______ ____
ROOT
ATOM      1  C   LIG    1       22.903 -19.459   4.691  0.00  0.00    +0.129 C 
ATOM      2  C   LIG    1       23.016 -17.953   4.439  0.00  0.00    +0.236 C 
ATOM      3  O   LIG    1       22.092 -17.156   4.596  0.00  0.00    -0.274 OA
ATOM      4  N   LIG    1       24.254 -17.483   4.096  0.00  0.00    -0.239 N 
ATOM      5  H   LIG    1       24.321 -16.485   3.952  0.00  0.00    +0.159 HD
ATOM      6  C   LIG    1       25.217 -18.223   3.488  0.00  0.00    +0.312 C 
ATOM      7  O   LIG    1       26.141 -17.696   2.878  0.00  0.00    -0.252 OA
ATOM      8  N   LIG    1       25.058 -19.571   3.508  0.00  0.00    -0.239 N 
ATOM      9  H   LIG    1       25.705 -20.086   2.925  0.00  0.00    +0.159 HD
ATOM     10  C   LIG    1       23.879 -20.208   3.783  0.00  0.00    +0.236 C 
ATOM     11  O   LIG    1       23.704 -21.348   3.359  0.00  0.00    -0.274 OA
ENDROOT
BRANCH   1  12
ATOM     12  C   LIG    1       21.413 -19.931   4.482  0.00  0.00    +0.010 C 
ATOM     13  C   LIG    1       21.214 -21.457   4.515  0.00  0.00    +0.009 C 
BRANCH  12  14
ATOM     14  C   LIG    1       20.791 -19.337   3.187  0.00  0.00    +0.001 C 
ATOM     15  C   LIG    1       19.351 -18.869   3.359  0.00  0.00    +0.004 C 
ENDBRANCH  12  14
ENDBRANCH   1  12
BRANCH   1  16
ATOM     16  C   LIG    1       23.423 -19.694   6.147  0.00  0.00    +0.052 C 
BRANCH  16  18
ATOM     17  C   LIG    1       25.467 -20.868   7.040  0.00  0.00    +0.004 C 
ATOM     18  C   LIG    1       24.329 -20.885   6.335  0.00  0.00    -0.033 C 
ENDBRANCH  16  18
ENDBRANCH   1  16
TORSDOF 4
ENDMDL
MODEL 9
REMARK VINA RESULT:      -0.8      1.642      2.352
REMARK  Name = *****
REMARK                            x       y       z     vdW  Elec       q    Type
REMARK                         _______ _______ _______ _____ _____    ______ ____
ROOT
ATOM      1  C   LIG    1       25.081 -13.367   4.252  0.00  0.00    +0.129 C 
ATOM      2  C   LIG    1       26.123 -12.862   5.254  0.00  0.00    +0.236 C 
ATOM      3  O   LIG    1       25.864 -12.127   6.207  0.00  0.00    -0.274 OA
ATOM      4  N   LIG    1       27.396 -13.337   5.102  0.00  0.00    -0.239 N 
ATOM      5  H   LIG    1       28.070 -13.012   5.781  0.00  0.00    +0.159 HD
ATOM      6  C   LIG    1       27.920 -13.775   3.928  0.00  0.00    +0.312 C 
ATOM      7  O   LIG    1       29.132 -13.839   3.752  0.00  0.00    -0.252 OA
ATOM      8  N   LIG    1       27.042 -14.047   2.929  0.00  0.00    -0.239 N 
ATOM      9  H   LIG    1       27.464 -14.226   2.027  0.00  0.00    +0.159 HD
ATOM     10  C   LIG    1       25.746 -13.611   2.896  0.00  0.00    +0.236 C 
ATOM     11  O   LIG    1       25.177 -13.513   1.812  0.00  0.00    -0.274 OA
ENDROOT
BRANCH   1  12
ATOM     12  C   LIG    1       23.885 -12.344   4.154  0.00  0.00    +0.010 C 
ATOM     13  C   LIG    1       23.890 -11.474   2.884  0.00  0.00    +0.009 C 
BRANCH  12  14
ATOM     14  C   LIG    1       23.783 -11.447   5.419  0.00  0.00    +0.001 C 
ATOM     15  C   LIG    1       22.427 -11.521   6.113  0.00  0.00    +0.004 C 
ENDBRANCH  12  14
ENDBRANCH   1  12
BRANCH   1  16
ATOM     16  C   LIG    1       24.641 -14.779   4.761  0.00  0.00    +0.052 C 
BRANCH  16  18
ATOM     17  C   LIG    1       22.658 -16.334   4.728  0.00  0.00    +0.004 C 
ATOM     18  C   LIG    1       23.178 -15.108   4.598  0.00  0.00    -0.033 C 
ENDBRANCH  16  18
ENDBRANCH   1  16
TORSDOF 4
ENDMDL
