MODEL 1
REMARK VINA RESULT:      -3.2      0.000      0.000
REMARK  Name = *****
REMARK                            x       y       z     vdW  Elec       q    Type
REMARK                         _______ _______ _______ _____ _____    ______ ____
ROOT
ATOM      1  C   LIG    1       22.803 -18.873   4.063  0.00  0.00    +0.083 C 
ENDROOT
BRANCH   1   6
ATOM      2 CL   LIG    1       24.388 -13.031   4.441  0.00  0.00    -0.084 Cl
ATOM      3  C   LIG    1       23.942 -14.690   4.351  0.00  0.00    +0.041 A 
ATOM      4  C   LIG    1       22.738 -15.112   4.902  0.00  0.00    +0.020 A 
ATOM      5  C   LIG    1       22.367 -16.457   4.819  0.00  0.00    +0.006 A 
ATOM      6  C   LIG    1       23.203 -17.397   4.190  0.00  0.00    -0.037 A 
ATOM      7  C   LIG    1       24.420 -16.950   3.647  0.00  0.00    +0.006 A 
ATOM      8  C   LIG    1       24.786 -15.603   3.723  0.00  0.00    +0.020 A 
ENDBRANCH   1   6
BRANCH   1   9
ATOM      9  C   LIG    1       23.712 -19.760   4.932  0.00  0.00    -0.019 A 
ATOM     10  C   LIG    1       24.947 -20.246   4.459  0.00  0.00    +0.045 A 
ATOM     11 CL   LIG    1       25.537 -19.894   2.871  0.00  0.00    -0.083 Cl
ATOM     12  C   LIG    1       25.763 -21.046   5.269  0.00  0.00    +0.020 A 
ATOM     13  C   LIG    1       25.374 -21.364   6.567  0.00  0.00    +0.001 A 
ATOM     14  C   LIG    1       24.169 -20.881   7.062  0.00  0.00    +0.000 A 
ATOM     15  C   LIG    1       23.347 -20.089   6.256  0.00  0.00    +0.006 A 
ENDBRANCH   1   9
BRANCH   1  16
ATOM     16  C   LIG    1       21.274 -19.070   4.285  0.00  0.00    +0.183 C 
ATOM     17 CL   LIG    1       20.828 -20.804   4.424  0.00  0.00    -0.104 Cl
ATOM     18 CL   LIG    1       20.306 -18.389   2.930  0.00  0.00    -0.104 Cl
ENDBRANCH   1  16
TORSDOF 3
ENDMDL
MODEL 2
REMARK VINA RESULT:      -3.1      2.488      6.910
REMARK  Name = *****
REMARK                            x       y       z     vdW  Elec       q    Type
REMARK                         _______ _______ _______ _____ _____    ______ ____
ROOT
ATOM      1  C   LIG    1       26.138 -15.135   3.285  0.00  0.00    +0.083 C 
ENDROOT
BRANCH   1   6
ATOM      2 CL   LIG    1       22.615 -19.935   4.439  0.00  0.00    -0.084 Cl
ATOM      3  C   LIG    1       23.605 -18.571   4.097  0.00  0.00    +0.041 A 
ATOM      4  C   LIG    1       23.123 -17.290   4.343  0.00  0.00    +0.020 A 
ATOM      5  C   LIG    1       23.929 -16.180   4.079  0.00  0.00    +0.006 A 
ATOM      6  C   LIG    1       25.225 -16.339   3.557  0.00  0.00    -0.037 A 
ATOM      7  C   LIG    1       25.690 -17.643   3.308  0.00  0.00    +0.006 A 
ATOM      8  C   LIG    1       24.885 -18.753   3.581  0.00  0.00    +0.020 A 
ENDBRANCH   1   6
BRANCH   1   9
ATOM      9  C   LIG    1       25.314 -13.841   3.181  0.00  0.00    -0.019 A 
ATOM     10  C   LIG    1       24.984 -13.076   4.317  0.00  0.00    +0.045 A 
ATOM     11 CL   LIG    1       25.470 -13.530   5.915  0.00  0.00    -0.083 Cl
ATOM     12  C   LIG    1       24.239 -11.896   4.199  0.00  0.00    +0.020 A 
ATOM     13  C   LIG    1       23.821 -11.448   2.949  0.00  0.00    +0.001 A 
ATOM     14  C   LIG    1       24.149 -12.175   1.813  0.00  0.00    +0.000 A 
ATOM     15  C   LIG    1       24.887 -13.357   1.925  0.00  0.00    +0.006 A 
ENDBRANCH   1   9
BRANCH   1  16
ATOM     16  C   LIG    1       27.329 -15.085   4.288  0.00  0.00    +0.183 C 
ATOM     17 CL   LIG    1       28.511 -13.800   3.871  0.00  0.00    -0.104 Cl
ATOM     18 CL   LIG    1       28.237 -16.638   4.328  0.00  0.00    -0.104 Cl
ENDBRANCH   1  16
TORSDOF 3
ENDMDL
MODEL 3
REMARK VINA RESULT:      -3.0      2.615      6.518
REMARK  Name = *****
REMARK                            x       y       z     vdW  Elec       q    Type
REMARK                         _______ _______ _______ _____ _____    ______ ____
ROOT
ATOM      1  C   LIG    1       24.759 -14.086   4.305  0.00  0.00    +0.083 C 
ENDROOT
BRANCH   1   6
ATOM      2 CL   LIG    1       24.039 -20.020   3.277  0.00  0.00    -0.084 Cl
ATOM      3  C   LIG    1       24.235 -18.333   3.554  0.00  0.00    +0.041 A 
ATOM      4  C   LIG    1       23.165 -17.584   4.031  0.00  0.00    +0.020 A 
ATOM      5  C   LIG    1       23.324 -16.217   4.269  0.00  0.00    +0.006 A 
ATOM      6  C   LIG    1       24.555 -15.581   4.024  0.00  0.00    -0.037 A 
ATOM      7  C   LIG    1       25.620 -16.356   3.534  0.00  0.00    +0.006 A 
ATOM      8  C   LIG    1       25.462 -17.726   3.304  0.00  0.00    +0.020 A 
ENDBRANCH   1   6
BRANCH   1   9
ATOM      9  C   LIG    1       26.238 -13.698   4.134  0.00  0.00    -0.019 A 
ATOM     10  C   LIG    1       27.055 -13.384   5.238  0.00  0.00    +0.045 A 
ATOM     11 CL   LIG    1       26.467 -13.402   6.865  0.00  0.00    -0.083 Cl
ATOM     12  C   LIG    1       28.402 -13.039   5.061  0.00  0.00    +0.020 A 
ATOM     13  C   LIG    1       28.962 -13.016   3.787  0.00  0.00    +0.001 A 
ATOM     14  C   LIG    1       28.181 -13.340   2.685  0.00  0.00    +0.000 A 
ATOM     15  C   LIG    1       26.835 -13.677   2.855  0.00  0.00    +0.006 A 
ENDBRANCH   1   9
BRANCH   1  16
ATOM     16  C   LIG    1       23.747 -13.212   3.507  0.00  0.00    +0.183 C 
ATOM     17 CL   LIG    1       24.273 -12.942   1.812  0.00  0.00    -0.104 Cl
ATOM     18 CL   LIG    1       23.529 -11.589   4.252  0.00  0.00    -0.104 Cl
ENDBRANCH   1  16
TORSDOF 3
ENDMDL
MODEL 4
REMARK VINA RESULT:      -2.8      1.371      2.269
REMARK  Name = *****
REMARK                            x       y       z     vdW  Elec       q    Type
REMARK                         _______ _______ _______ _____ _____    ______ ____
ROOT
ATOM      1  C   LIG    1       23.875 -19.148   4.197  0.00  0.00    +0.083 C 
ENDROOT
BRANCH   1   6
ATOM      2 CL   LIG    1       24.717 -13.162   3.712  0.00  0.00    -0.084 Cl
ATOM      3  C   LIG    1       24.474 -14.860   3.832  0.00  0.00    +0.041 A 
ATOM      4  C   LIG    1       25.445 -15.731   3.353  0.00  0.00    +0.020 A 
ATOM      5  C   LIG    1       25.257 -17.111   3.461  0.00  0.00    +0.006 A 
ATOM      6  C   LIG    1       24.089 -17.636   4.043  0.00  0.00    -0.037 A 
ATOM      7  C   LIG    1       23.116 -16.737   4.514  0.00  0.00    +0.006 A 
ATOM      8  C   LIG    1       23.309 -15.356   4.413  0.00  0.00    +0.020 A 
ENDBRANCH   1   6
BRANCH   1   9
ATOM      9  C   LIG    1       24.983 -19.770   5.064  0.00  0.00    -0.019 A 
ATOM     10  C   LIG    1       24.698 -20.404   6.290  0.00  0.00    +0.045 A 
ATOM     11 CL   LIG    1       23.091 -20.530   6.919  0.00  0.00    -0.083 Cl
ATOM     12  C   LIG    1       25.721 -20.970   7.062  0.00  0.00    +0.020 A 
ATOM     13  C   LIG    1       27.041 -20.929   6.622  0.00  0.00    +0.001 A 
ATOM     14  C   LIG    1       27.344 -20.324   5.409  0.00  0.00    +0.000 A 
ATOM     15  C   LIG    1       26.328 -19.752   4.638  0.00  0.00    +0.006 A 
ENDBRANCH   1   9
BRANCH   1  16
ATOM     16  C   LIG    1       22.419 -19.475   4.644  0.00  0.00    +0.183 C 
ATOM     17 CL   LIG    1       22.018 -21.212   4.428  0.00  0.00    -0.104 Cl
ATOM     18 CL   LIG    1       21.203 -18.537   3.705  0.00  0.00    -0.104 Cl
ENDBRANCH   1  16
TORSDOF 3
ENDMDL
MODEL 5
REMARK VINA RESULT:      -2.4      1.882      2.856
REMARK  Name = *****
REMARK                            x       y       z     vdW  Elec       q    Type
REMARK                         _______ _______ _______ _____ _____    ______ ____
ROOT
ATOM      1  C   LIG    1       25.250 -19.294   3.784  0.00  0.00    +0.083 C 
ENDROOT
BRANCH   1   6
ATOM      2 CL   LIG    1       24.882 -13.241   3.717  0.00  0.00    -0.084 Cl
ATOM      3  C   LIG    1       24.985 -14.958   3.719  0.00  0.00    +0.041 A 
ATOM      4  C   LIG    1       26.161 -15.579   3.317  0.00  0.00    +0.020 A 
ATOM      5  C   LIG    1       26.252 -16.973   3.329  0.00  0.00    +0.006 A 
ATOM      6  C   LIG    1       25.162 -17.762   3.736  0.00  0.00    -0.037 A 
ATOM      7  C   LIG    1       23.979 -17.114   4.131  0.00  0.00    +0.006 A 
ATOM      8  C   LIG    1       23.892 -15.719   4.126  0.00  0.00    +0.020 A 
ENDBRANCH   1   6
BRANCH   1   9
ATOM      9  C   LIG    1       26.184 -19.751   4.918  0.00  0.00    -0.019 A 
ATOM     10  C   LIG    1       25.701 -20.450   6.042  0.00  0.00    +0.045 A 
ATOM     11 CL   LIG    1       24.028 -20.845   6.241  0.00  0.00    -0.083 Cl
ATOM     12  C   LIG    1       26.569 -20.863   7.060  0.00  0.00    +0.020 A 
ATOM     13  C   LIG    1       27.934 -20.602   6.972  0.00  0.00    +0.001 A 
ATOM     14  C   LIG    1       28.436 -19.930   5.865  0.00  0.00    +0.000 A 
ATOM     15  C   LIG    1       27.573 -19.509   4.850  0.00  0.00    +0.006 A 
ENDBRANCH   1   9
BRANCH   1  16
ATOM     16  C   LIG    1       23.836 -19.946   3.785  0.00  0.00    +0.183 C 
ATOM     17 CL   LIG    1       23.824 -21.540   2.957  0.00  0.00    -0.104 Cl
ATOM     18 CL   LIG    1       22.621 -18.915   2.950  0.00  0.00    -0.104 Cl
ENDBRANCH   1  16
TORSDOF 3
ENDMDL
MODEL 6
REMARK VINA RESULT:      -2.2      1.604      2.162
REMARK  Name = *****
REMARK                            x       y       z     vdW  Elec       q    Type
REMARK                         _______ _______ _______ _____ _____    ______ ____
ROOT
ATOM      1  C   LIG    1       24.967 -19.132   3.616  0.00  0.00    +0.083 C 
ENDROOT
BRANCH   1   6
ATOM      2 CL   LIG    1       24.436 -13.105   4.035  0.00  0.00    -0.084 Cl
ATOM      3  C   LIG    1       24.589 -14.815   3.934  0.00  0.00    +0.041 A 
ATOM      4  C   LIG    1       23.535 -15.627   4.336  0.00  0.00    +0.020 A 
ATOM      5  C   LIG    1       23.651 -17.016   4.243  0.00  0.00    +0.006 A 
ATOM      6  C   LIG    1       24.829 -17.609   3.753  0.00  0.00    -0.037 A 
ATOM      7  C   LIG    1       25.885 -16.769   3.359  0.00  0.00    +0.006 A 
ATOM      8  C   LIG    1       25.764 -15.379   3.445  0.00  0.00    +0.020 A 
ENDBRANCH   1   6
BRANCH   1   9
ATOM      9  C   LIG    1       25.722 -19.720   4.820  0.00  0.00    -0.019 A 
ATOM     10  C   LIG    1       27.050 -19.353   5.115  0.00  0.00    +0.045 A 
ATOM     11 CL   LIG    1       27.938 -18.224   4.150  0.00  0.00    -0.083 Cl
ATOM     12  C   LIG    1       27.718 -19.894   6.221  0.00  0.00    +0.020 A 
ATOM     13  C   LIG    1       27.072 -20.798   7.062  0.00  0.00    +0.001 A 
ATOM     14  C   LIG    1       25.757 -21.160   6.801  0.00  0.00    +0.000 A 
ATOM     15  C   LIG    1       25.089 -20.629   5.695  0.00  0.00    +0.006 A 
ENDBRANCH   1   9
BRANCH   1  16
ATOM     16  C   LIG    1       23.599 -19.802   3.298  0.00  0.00    +0.183 C 
ATOM     17 CL   LIG    1       22.438 -19.652   4.661  0.00  0.00    -0.104 Cl
ATOM     18 CL   LIG    1       23.776 -21.560   2.955  0.00  0.00    -0.104 Cl
ENDBRANCH   1  16
TORSDOF 3
ENDMDL
MODEL 7
REMARK VINA RESULT:      -2.0      1.586      2.004
REMARK  Name = *****
REMARK                            x       y       z     vdW  Elec       q    Type
REMARK                         _______ _______ _______ _____ _____    ______ ____
ROOT
ATOM      1  C   LIG    1       23.286 -18.278   3.605  0.00  0.00    +0.083 C 
ENDROOT
BRANCH   1   6
ATOM      2 CL   LIG    1       27.814 -14.243   3.637  0.00  0.00    -0.084 Cl
ATOM      3  C   LIG    1       26.529 -15.386   3.645  0.00  0.00    +0.041 A 
ATOM      4  C   LIG    1       25.226 -14.958   3.870  0.00  0.00    +0.020 A 
ATOM      5  C   LIG    1       24.178 -15.882   3.865  0.00  0.00    +0.006 A 
ATOM      6  C   LIG    1       24.425 -17.249   3.642  0.00  0.00    -0.037 A 
ATOM      7  C   LIG    1       25.751 -17.662   3.425  0.00  0.00    +0.006 A 
ATOM      8  C   LIG    1       26.797 -16.734   3.423  0.00  0.00    +0.020 A 
ENDBRANCH   1   6
BRANCH   1   9
ATOM      9  C   LIG    1       23.572 -19.442   4.568  0.00  0.00    -0.019 A 
ATOM     10  C   LIG    1       24.400 -20.522   4.203  0.00  0.00    +0.045 A 
ATOM     11 CL   LIG    1       25.152 -20.631   2.648  0.00  0.00    -0.083 Cl
ATOM     12  C   LIG    1       24.654 -21.569   5.098  0.00  0.00    +0.020 A 
ATOM     13  C   LIG    1       24.103 -21.553   6.376  0.00  0.00    +0.001 A 
ATOM     14  C   LIG    1       23.298 -20.490   6.765  0.00  0.00    +0.000 A 
ATOM     15  C   LIG    1       23.035 -19.447   5.874  0.00  0.00    +0.006 A 
ENDBRANCH   1   9
BRANCH   1  16
ATOM     16  C   LIG    1       21.897 -17.596   3.781  0.00  0.00    +0.183 C 
ATOM     17 CL   LIG    1       21.773 -16.699   5.332  0.00  0.00    -0.104 Cl
ATOM     18 CL   LIG    1       20.554 -18.795   3.763  0.00  0.00    -0.104 Cl
ENDBRANCH   1  16
TORSDOF 3
ENDMDL
MODEL 8
REMARK VINA RESULT:      -1.8      2.054      5.967
REMARK  Name = *****
REMARK                            x       y       z     vdW  Elec       q    Type
REMARK                         _______ _______ _______ _____ _____    ______ ____
ROOT
ATOM      1  C   LIG    1       25.738 -16.804   3.169  0.00  0.00    +0.083 C 
ENDROOT
BRANCH   1   6
ATOM      2 CL   LIG    1       22.027 -21.238   5.003  0.00  0.00    -0.084 Cl
ATOM      3  C   LIG    1       23.071 -19.979   4.468  0.00  0.00    +0.041 A 
ATOM      4  C   LIG    1       22.634 -18.660   4.502  0.00  0.00    +0.020 A 
ATOM      5  C   LIG    1       23.484 -17.634   4.081  0.00  0.00    +0.006 A 
ATOM      6  C   LIG    1       24.779 -17.918   3.611  0.00  0.00    -0.037 A 
ATOM      7  C   LIG    1       25.197 -19.260   3.577  0.00  0.00    +0.006 A 
ATOM      8  C   LIG    1       24.349 -20.285   4.007  0.00  0.00    +0.020 A 
ENDBRANCH   1   6
BRANCH   1   9
ATOM      9  C   LIG    1       25.170 -15.422   3.533  0.00  0.00    -0.019 A 
ATOM     10  C   LIG    1       25.723 -14.233   3.016  0.00  0.00    +0.045 A 
ATOM     11 CL   LIG    1       27.081 -14.230   1.942  0.00  0.00    -0.083 Cl
ATOM     12  C   LIG    1       25.187 -12.984   3.353  0.00  0.00    +0.020 A 
ATOM     13  C   LIG    1       24.083 -12.895   4.197  0.00  0.00    +0.001 A 
ATOM     14  C   LIG    1       23.510 -14.054   4.704  0.00  0.00    +0.000 A 
ATOM     15  C   LIG    1       24.045 -15.303   4.377  0.00  0.00    +0.006 A 
ENDBRANCH   1   9
BRANCH   1  16
ATOM     16  C   LIG    1       27.191 -17.076   3.660  0.00  0.00    +0.183 C 
ATOM     17 CL   LIG    1       27.289 -18.524   4.717  0.00  0.00    -0.104 Cl
ATOM     18 CL   LIG    1       27.849 -15.693   4.606  0.00  0.00    -0.104 Cl
ENDBRANCH   1  16
TORSDOF 3
ENDMDL
MODEL 9
REMARK VINA RESULT:      -1.6      3.177      7.435
REMARK  Name = *****
REMARK                            x       y       z     vdW  Elec       q    Type
REMARK                         _______ _______ _______ _____ _____    ______ ____
ROOT
ATOM      1  C   LIG    1       27.118 -14.185   3.175  0.00  0.00    +0.083 C 
ENDROOT
BRANCH   1   6
ATOM      2 CL   LIG    1       25.327 -19.902   4.117  0.00  0.00    -0.084 Cl
ATOM      3  C   LIG    1       25.836 -18.284   3.833  0.00  0.00    +0.041 A 
ATOM      4  C   LIG    1       24.927 -17.350   3.349  0.00  0.00    +0.020 A 
ATOM      5  C   LIG    1       25.333 -16.032   3.129  0.00  0.00    +0.006 A 
ATOM      6  C   LIG    1       26.658 -15.634   3.383  0.00  0.00    -0.037 A 
ATOM      7  C   LIG    1       27.563 -16.597   3.864  0.00  0.00    +0.006 A 
ATOM      8  C   LIG    1       27.153 -17.913   4.092  0.00  0.00    +0.020 A 
ENDBRANCH   1   6
BRANCH   1   9
ATOM      9  C   LIG    1       25.909 -13.240   3.065  0.00  0.00    -0.019 A 
ATOM     10  C   LIG    1       24.964 -13.120   4.102  0.00  0.00    +0.045 A 
ATOM     11 CL   LIG    1       25.080 -14.023   5.574  0.00  0.00    -0.083 Cl
ATOM     12  C   LIG    1       23.873 -12.249   3.985  0.00  0.00    +0.020 A 
ATOM     13  C   LIG    1       23.712 -11.471   2.842  0.00  0.00    +0.001 A 
ATOM     14  C   LIG    1       24.641 -11.559   1.813  0.00  0.00    +0.000 A 
ATOM     15  C   LIG    1       25.727 -12.432   1.922  0.00  0.00    +0.006 A 
ENDBRANCH   1   9
BRANCH   1  16
ATOM     16  C   LIG    1       28.191 -13.771   4.226  0.00  0.00    +0.183 C 
ATOM     17 CL   LIG    1       27.485 -13.545   5.861  0.00  0.00    -0.104 Cl
ATOM     18 CL   LIG    1       28.997 -12.223   3.787  0.00  0.00    -0.104 Cl
ENDBRANCH   1  16
TORSDOF 3
ENDMDL
