MODEL 1
REMARK VINA RESULT:      28.5      0.000      0.000
REMARK  Name = *****
REMARK                            x       y       z     vdW  Elec       q    Type
REMARK                         _______ _______ _______ _____ _____    ______ ____
ROOT
ATOM      1  C   LIG    1       25.487 -16.764   2.919  0.00  0.00    +0.112 C 
ATOM      2  C   LIG    1       24.181 -17.603   2.922  0.00  0.00    +0.217 C 
ATOM      3  O   LIG    1       23.172 -17.923   1.941  0.00  0.00    -0.481 OA
ATOM      4  C   LIG    1       22.282 -18.569   2.834  0.00  0.00    +0.166 A 
ATOM      5  C   LIG    1       22.980 -19.054   3.947  0.00  0.00    +0.011 A 
ATOM      6  C   LIG    1       22.443 -19.501   5.123  0.00  0.00    -0.038 A 
ATOM      7  C   LIG    1       21.049 -19.540   5.145  0.00  0.00    +0.008 A 
ATOM      8  C   LIG    1       20.294 -19.110   4.013  0.00  0.00    +0.049 A 
ATOM      9  C   LIG    1       23.406 -19.778   6.261  0.00  0.00    +0.055 C 
ATOM     10  C   LIG    1       24.981 -19.762   5.884  0.00  0.00    +0.068 C 
ATOM     11  N   LIG    1       25.336 -21.114   5.361  0.00  0.00    -0.298 NA
ATOM     12  C   LIG    1       24.846 -21.387   3.999  0.00  0.00    +0.086 C 
ATOM     13  C   LIG    1       24.847 -20.205   2.998  0.00  0.00    +0.031 C 
ATOM     14  C   LIG    1       25.330 -18.601   4.885  0.00  0.00    +0.000 C 
ATOM     15  C   LIG    1       25.107 -17.152   5.442  0.00  0.00    +0.018 C 
ATOM     16  C   LIG    1       26.776 -18.505   4.319  0.00  0.00    +0.012 C 
ATOM     17  C   LIG    1       20.908 -18.601   2.852  0.00  0.00    +0.159 A 
ATOM     18  C   LIG    1       24.423 -18.886   3.696  0.00  0.00    +0.047 C 
ATOM     19  C   LIG    1       25.471 -16.004   4.353  0.00  0.00    +0.057 C 
ATOM     20  C   LIG    1       26.771 -17.646   3.032  0.00  0.00    +0.039 C 
ENDROOT
BRANCH   1  22
ATOM     21  C   LIG    1       26.520 -14.797   2.008  0.00  0.00    +0.195 C 
ATOM     22  O   LIG    1       25.610 -15.878   1.832  0.00  0.00    -0.372 OA
ENDBRANCH   1  22
BRANCH  17  23
ATOM     23  O   LIG    1       20.191 -18.096   1.818  0.00  0.00    -0.503 OA
ATOM     24  H   LIG    1       19.433 -17.606   2.177  0.00  0.00    +0.292 HD
ENDBRANCH  17  23
BRANCH  19  25
ATOM     25  C   LIG    1       24.625 -14.669   4.659  0.00  0.00    +0.074 C 
ATOM     26  C   LIG    1       23.756 -15.013   5.914  0.00  0.00    +0.042 C 
BRANCH  25  27
ATOM     27  C   LIG    1       25.373 -13.272   4.922  0.00  0.00    -0.009 C 
ATOM     28  C   LIG    1       25.920 -12.573   3.653  0.00  0.00    +0.013 C 
ATOM     29  C   LIG    1       26.539 -13.437   5.919  0.00  0.00    +0.013 C 
ATOM     30  C   LIG    1       24.388 -12.226   5.530  0.00  0.00    +0.013 C 
ENDBRANCH  25  27
BRANCH  25  31
ATOM     31  O   LIG    1       23.647 -14.475   3.625  0.00  0.00    -0.388 OA
ATOM     32  H   LIG    1       22.848 -14.981   3.844  0.00  0.00    +0.210 HD
ENDBRANCH  25  31
ENDBRANCH  19  25
BRANCH  11  33
ATOM     33  C   LIG    1       26.707 -21.562   5.620  0.00  0.00    +0.088 C 
BRANCH  33  34
ATOM     34  C   LIG    1       27.305 -20.899   6.837  0.00  0.00    +0.003 C 
ATOM     35  C   LIG    1       28.803 -20.942   7.062  0.00  0.00    +0.005 C 
ATOM     36  C   LIG    1       28.141 -19.648   6.688  0.00  0.00    +0.005 C 
ENDBRANCH  33  34
ENDBRANCH  11  33
TORSDOF 7
ENDMDL
MODEL 2
REMARK VINA RESULT:      28.9      0.826      1.201
REMARK  Name = *****
REMARK                            x       y       z     vdW  Elec       q    Type
REMARK                         _______ _______ _______ _____ _____    ______ ____
ROOT
ATOM      1  C   LIG    1       25.719 -16.309   2.968  0.00  0.00    +0.112 C 
ATOM      2  C   LIG    1       24.482 -17.246   2.967  0.00  0.00    +0.217 C 
ATOM      3  O   LIG    1       23.462 -17.589   2.005  0.00  0.00    -0.481 OA
ATOM      4  C   LIG    1       22.661 -18.352   2.889  0.00  0.00    +0.166 A 
ATOM      5  C   LIG    1       23.437 -18.844   3.946  0.00  0.00    +0.011 A 
ATOM      6  C   LIG    1       22.983 -19.398   5.111  0.00  0.00    -0.038 A 
ATOM      7  C   LIG    1       21.598 -19.547   5.180  0.00  0.00    +0.008 A 
ATOM      8  C   LIG    1       20.768 -19.114   4.103  0.00  0.00    +0.049 A 
ATOM      9  C   LIG    1       24.010 -19.663   6.195  0.00  0.00    +0.055 C 
ATOM     10  C   LIG    1       25.563 -19.502   5.764  0.00  0.00    +0.068 C 
ATOM     11  N   LIG    1       25.998 -20.790   5.148  0.00  0.00    -0.298 NA
ATOM     12  C   LIG    1       25.476 -21.022   3.791  0.00  0.00    +0.086 C 
ATOM     13  C   LIG    1       25.347 -19.789   2.863  0.00  0.00    +0.031 C 
ATOM     14  C   LIG    1       25.782 -18.262   4.825  0.00  0.00    +0.000 C 
ATOM     15  C   LIG    1       25.471 -16.870   5.476  0.00  0.00    +0.018 C 
ATOM     16  C   LIG    1       27.192 -18.021   4.215  0.00  0.00    +0.012 C 
ATOM     17  C   LIG    1       21.295 -18.493   2.954  0.00  0.00    +0.159 A 
ATOM     18  C   LIG    1       24.852 -18.549   3.654  0.00  0.00    +0.047 C 
ATOM     19  C   LIG    1       25.703 -15.636   4.446  0.00  0.00    +0.057 C 
ATOM     20  C   LIG    1       27.070 -17.092   2.983  0.00  0.00    +0.039 C 
ENDROOT
BRANCH   1  22
ATOM     21  C   LIG    1       26.813 -14.431   1.948  0.00  0.00    +0.195 C 
ATOM     22  O   LIG    1       25.731 -15.355   1.933  0.00  0.00    -0.372 OA
ENDBRANCH   1  22
BRANCH  17  23
ATOM     23  O   LIG    1       20.500 -17.987   1.978  0.00  0.00    -0.503 OA
ATOM     24  H   LIG    1       19.594 -18.308   2.119  0.00  0.00    +0.292 HD
ENDBRANCH  17  23
BRANCH  19  25
ATOM     25  C   LIG    1       24.771 -14.391   4.861  0.00  0.00    +0.074 C 
ATOM     26  C   LIG    1       25.365 -13.866   6.210  0.00  0.00    +0.042 C 
BRANCH  25  27
ATOM     27  C   LIG    1       24.582 -13.146   3.865  0.00  0.00    -0.009 C 
ATOM     28  C   LIG    1       23.921 -11.895   4.497  0.00  0.00    +0.013 C 
ATOM     29  C   LIG    1       23.764 -13.542   2.618  0.00  0.00    +0.013 C 
ATOM     30  C   LIG    1       25.965 -12.624   3.366  0.00  0.00    +0.013 C 
ENDBRANCH  25  27
BRANCH  25  31
ATOM     31  O   LIG    1       23.471 -14.872   5.240  0.00  0.00    -0.388 OA
ATOM     32  H   LIG    1       22.828 -14.148   5.162  0.00  0.00    +0.210 HD
ENDBRANCH  25  31
ENDBRANCH  19  25
BRANCH  11  33
ATOM     33  C   LIG    1       27.409 -21.143   5.331  0.00  0.00    +0.088 C 
BRANCH  33  34
ATOM     34  C   LIG    1       27.937 -20.710   6.677  0.00  0.00    +0.003 C 
ATOM     35  C   LIG    1       29.389 -20.958   7.035  0.00  0.00    +0.005 C 
ATOM     36  C   LIG    1       28.912 -19.558   6.777  0.00  0.00    +0.005 C 
ENDBRANCH  33  34
ENDBRANCH  11  33
TORSDOF 7
ENDMDL
