MODEL 1
REMARK VINA RESULT:      -6.2      0.000      0.000
REMARK  Name = *****
REMARK                            x       y       z     vdW  Elec       q    Type
REMARK                         _______ _______ _______ _____ _____    ______ ____
ROOT
ATOM      1  C   LIG    1       25.358 -15.518   3.647  0.00  0.00    +0.124 A 
ATOM      2  C   LIG    1       24.096 -15.037   3.990  0.00  0.00    +0.067 A 
ATOM      3 CL   LIG    1       23.692 -13.362   4.108  0.00  0.00    -0.082 Cl
ATOM      4  C   LIG    1       23.075 -15.948   4.272  0.00  0.00    +0.022 A 
ATOM      5  C   LIG    1       23.306 -17.326   4.206  0.00  0.00    +0.010 A 
ATOM      6  C   LIG    1       24.563 -17.833   3.835  0.00  0.00    +0.009 A 
ATOM      7  C   LIG    1       25.588 -16.905   3.568  0.00  0.00    +0.038 A 
ENDROOT
BRANCH   6   8
ATOM      8  C   LIG    1       24.830 -19.329   3.750  0.00  0.00    +0.187 C 
ATOM      9  C   LIG    1       25.713 -19.866   4.839  0.00  0.00    +0.019 A 
ATOM     10  C   LIG    1       24.996 -20.791   5.602  0.00  0.00    +0.045 A 
ATOM     11  C   LIG    1       25.537 -21.458   6.683  0.00  0.00    +0.013 A 
ATOM     12  C   LIG    1       26.870 -21.188   6.995  0.00  0.00    +0.001 A 
ATOM     13  C   LIG    1       27.616 -20.273   6.228  0.00  0.00    +0.001 A 
ATOM     14  C   LIG    1       23.657 -20.908   5.018  0.00  0.00    +0.247 C 
ATOM     15  O   LIG    1       22.740 -21.571   5.454  0.00  0.00    -0.270 OA
ATOM     16  C   LIG    1       27.040 -19.605   5.141  0.00  0.00    +0.009 A 
ATOM     17  N   LIG    1       23.641 -20.116   3.891  0.00  0.00    -0.276 N 
ATOM     18  H   LIG    1       22.787 -19.938   3.384  0.00  0.00    +0.152 HD
BRANCH   8  19
ATOM     19  O   LIG    1       25.353 -19.677   2.489  0.00  0.00    -0.364 OA
ATOM     20  H   LIG    1       25.646 -18.829   2.116  0.00  0.00    +0.213 HD
ENDBRANCH   8  19
ENDBRANCH   6   8
BRANCH   1  21
ATOM     21  S   LIG    1       26.698 -14.427   3.287  0.00  0.00    +0.057 S 
ATOM     22  O   LIG    1       26.902 -14.393   1.855  0.00  0.00    -0.153 OA
ATOM     23  O   LIG    1       26.556 -13.218   4.062  0.00  0.00    -0.153 OA
BRANCH  21  24
ATOM     24  N   LIG    1       28.038 -15.245   3.879  0.00  0.00    -0.203 NA
ATOM     25  H   LIG    1       28.812 -15.168   3.219  0.00  0.00    +0.144 HD
ATOM     26  H   LIG    1       28.261 -14.910   4.818  0.00  0.00    +0.144 HD
ENDBRANCH  21  24
ENDBRANCH   1  21
TORSDOF 4
ENDMDL
MODEL 2
REMARK VINA RESULT:      -5.8      1.992      2.499
REMARK  Name = *****
REMARK                            x       y       z     vdW  Elec       q    Type
REMARK                         _______ _______ _______ _____ _____    ______ ____
ROOT
ATOM      1  C   LIG    1       25.705 -15.201   3.685  0.00  0.00    +0.124 A 
ATOM      2  C   LIG    1       27.086 -15.160   3.871  0.00  0.00    +0.067 A 
ATOM      3 CL   LIG    1       28.004 -13.705   4.025  0.00  0.00    -0.082 Cl
ATOM      4  C   LIG    1       27.800 -16.359   3.931  0.00  0.00    +0.022 A 
ATOM      5  C   LIG    1       27.144 -17.589   3.814  0.00  0.00    +0.010 A 
ATOM      6  C   LIG    1       25.750 -17.656   3.654  0.00  0.00    +0.009 A 
ATOM      7  C   LIG    1       25.044 -16.439   3.580  0.00  0.00    +0.038 A 
ENDROOT
BRANCH   6   8
ATOM      8  C   LIG    1       25.020 -18.986   3.534  0.00  0.00    +0.187 C 
ATOM      9  C   LIG    1       25.056 -19.828   4.777  0.00  0.00    +0.019 A 
ATOM     10  C   LIG    1       23.755 -20.006   5.253  0.00  0.00    +0.045 A 
ATOM     11  C   LIG    1       23.460 -20.736   6.387  0.00  0.00    +0.013 A 
ATOM     12  C   LIG    1       24.530 -21.326   7.061  0.00  0.00    +0.001 A 
ATOM     13  C   LIG    1       25.847 -21.176   6.587  0.00  0.00    +0.001 A 
ATOM     14  C   LIG    1       22.845 -19.324   4.329  0.00  0.00    +0.247 C 
ATOM     15  O   LIG    1       21.644 -19.211   4.457  0.00  0.00    -0.270 OA
ATOM     16  C   LIG    1       26.119 -20.424   5.437  0.00  0.00    +0.009 A 
ATOM     17  N   LIG    1       23.616 -18.832   3.298  0.00  0.00    -0.276 N 
ATOM     18  H   LIG    1       23.228 -18.218   2.597  0.00  0.00    +0.152 HD
BRANCH   8  19
ATOM     19  O   LIG    1       25.498 -19.726   2.435  0.00  0.00    -0.364 OA
ATOM     20  H   LIG    1       26.147 -20.333   2.828  0.00  0.00    +0.213 HD
ENDBRANCH   8  19
ENDBRANCH   6   8
BRANCH   1  21
ATOM     21  S   LIG    1       24.740 -13.727   3.591  0.00  0.00    +0.057 S 
ATOM     22  O   LIG    1       23.363 -14.085   3.327  0.00  0.00    -0.153 OA
ATOM     23  O   LIG    1       25.100 -12.845   4.674  0.00  0.00    -0.153 OA
BRANCH  21  24
ATOM     24  N   LIG    1       25.262 -13.008   2.168  0.00  0.00    -0.203 NA
ATOM     25  H   LIG    1       26.281 -12.950   2.161  0.00  0.00    +0.144 HD
ATOM     26  H   LIG    1       24.871 -13.505   1.365  0.00  0.00    +0.144 HD
ENDBRANCH  21  24
ENDBRANCH   1  21
TORSDOF 4
ENDMDL
MODEL 3
REMARK VINA RESULT:      -5.1      1.026      1.274
REMARK  Name = *****
REMARK                            x       y       z     vdW  Elec       q    Type
REMARK                         _______ _______ _______ _____ _____    ______ ____
ROOT
ATOM      1  C   LIG    1       25.432 -14.925   3.528  0.00  0.00    +0.124 A 
ATOM      2  C   LIG    1       24.237 -14.513   4.115  0.00  0.00    +0.067 A 
ATOM      3 CL   LIG    1       23.810 -12.865   4.402  0.00  0.00    -0.082 Cl
ATOM      4  C   LIG    1       23.309 -15.478   4.515  0.00  0.00    +0.022 A 
ATOM      5  C   LIG    1       23.565 -16.840   4.326  0.00  0.00    +0.010 A 
ATOM      6  C   LIG    1       24.752 -17.276   3.712  0.00  0.00    +0.009 A 
ATOM      7  C   LIG    1       25.685 -16.295   3.327  0.00  0.00    +0.038 A 
ENDROOT
BRANCH   6   8
ATOM      8  C   LIG    1       25.043 -18.753   3.491  0.00  0.00    +0.187 C 
ATOM      9  C   LIG    1       25.889 -19.386   4.559  0.00  0.00    +0.019 A 
ATOM     10  C   LIG    1       25.156 -20.389   5.197  0.00  0.00    +0.045 A 
ATOM     11  C   LIG    1       25.663 -21.154   6.228  0.00  0.00    +0.013 A 
ATOM     12  C   LIG    1       26.979 -20.902   6.620  0.00  0.00    +0.001 A 
ATOM     13  C   LIG    1       27.741 -19.909   5.978  0.00  0.00    +0.001 A 
ATOM     14  C   LIG    1       23.843 -20.462   4.550  0.00  0.00    +0.247 C 
ATOM     15  O   LIG    1       22.919 -21.174   4.881  0.00  0.00    -0.270 OA
ATOM     16  C   LIG    1       27.200 -19.142   4.939  0.00  0.00    +0.009 A 
ATOM     17  N   LIG    1       23.861 -19.563   3.506  0.00  0.00    -0.276 N 
ATOM     18  H   LIG    1       23.025 -19.345   2.984  0.00  0.00    +0.152 HD
BRANCH   8  19
ATOM     19  O   LIG    1       25.620 -18.971   2.226  0.00  0.00    -0.364 OA
ATOM     20  H   LIG    1       26.161 -19.769   2.350  0.00  0.00    +0.213 HD
ENDBRANCH   8  19
ENDBRANCH   6   8
BRANCH   1  21
ATOM     21  S   LIG    1       26.654 -13.764   3.006  0.00  0.00    +0.057 S 
ATOM     22  O   LIG    1       27.368 -13.281   4.168  0.00  0.00    -0.153 OA
ATOM     23  O   LIG    1       27.347 -14.280   1.850  0.00  0.00    -0.153 OA
BRANCH  21  24
ATOM     24  N   LIG    1       25.749 -12.445   2.498  0.00  0.00    -0.203 NA
ATOM     25  H   LIG    1       25.124 -12.724   1.742  0.00  0.00    +0.144 HD
ATOM     26  H   LIG    1       25.269 -12.026   3.297  0.00  0.00    +0.144 HD
ENDBRANCH  21  24
ENDBRANCH   1  21
TORSDOF 4
ENDMDL
MODEL 4
REMARK VINA RESULT:      -3.2      3.102      6.668
REMARK  Name = *****
REMARK                            x       y       z     vdW  Elec       q    Type
REMARK                         _______ _______ _______ _____ _____    ______ ____
ROOT
ATOM      1  C   LIG    1       23.959 -17.847   3.936  0.00  0.00    +0.124 A 
ATOM      2  C   LIG    1       24.768 -18.939   3.625  0.00  0.00    +0.067 A 
ATOM      3 CL   LIG    1       24.253 -20.585   3.700  0.00  0.00    -0.082 Cl
ATOM      4  C   LIG    1       26.091 -18.715   3.233  0.00  0.00    +0.022 A 
ATOM      5  C   LIG    1       26.600 -17.415   3.145  0.00  0.00    +0.010 A 
ATOM      6  C   LIG    1       25.795 -16.299   3.427  0.00  0.00    +0.009 A 
ATOM      7  C   LIG    1       24.468 -16.539   3.835  0.00  0.00    +0.038 A 
ENDROOT
BRANCH   6   8
ATOM      8  C   LIG    1       26.331 -14.879   3.327  0.00  0.00    +0.187 C 
ATOM      9  C   LIG    1       25.321 -13.810   3.634  0.00  0.00    +0.019 A 
ATOM     10  C   LIG    1       25.733 -13.093   4.759  0.00  0.00    +0.045 A 
ATOM     11  C   LIG    1       25.011 -12.043   5.291  0.00  0.00    +0.013 A 
ATOM     12  C   LIG    1       23.825 -11.694   4.644  0.00  0.00    +0.001 A 
ATOM     13  C   LIG    1       23.401 -12.392   3.498  0.00  0.00    +0.001 A 
ATOM     14  C   LIG    1       27.022 -13.642   5.191  0.00  0.00    +0.247 C 
ATOM     15  O   LIG    1       27.650 -13.311   6.174  0.00  0.00    -0.270 OA
ATOM     16  C   LIG    1       24.150 -13.457   2.983  0.00  0.00    +0.009 A 
ATOM     17  N   LIG    1       27.372 -14.608   4.273  0.00  0.00    -0.276 N 
ATOM     18  H   LIG    1       28.166 -15.214   4.423  0.00  0.00    +0.152 HD
BRANCH   8  19
ATOM     19  O   LIG    1       26.912 -14.646   2.066  0.00  0.00    -0.364 OA
ATOM     20  H   LIG    1       27.401 -13.814   2.184  0.00  0.00    +0.213 HD
ENDBRANCH   8  19
ENDBRANCH   6   8
BRANCH   1  21
ATOM     21  S   LIG    1       22.282 -18.055   4.446  0.00  0.00    +0.057 S 
ATOM     22  O   LIG    1       21.866 -16.878   5.177  0.00  0.00    -0.153 OA
ATOM     23  O   LIG    1       21.506 -18.580   3.349  0.00  0.00    -0.153 OA
BRANCH  21  24
ATOM     24  N   LIG    1       22.374 -19.257   5.613  0.00  0.00    -0.203 NA
ATOM     25  H   LIG    1       21.691 -19.080   6.349  0.00  0.00    +0.144 HD
ATOM     26  H   LIG    1       22.280 -20.174   5.173  0.00  0.00    +0.144 HD
ENDBRANCH  21  24
ENDBRANCH   1  21
TORSDOF 4
ENDMDL
