MODEL 1
REMARK VINA RESULT:      55.9      0.000      0.000
REMARK  Name = *****
REMARK                            x       y       z     vdW  Elec       q    Type
REMARK                         _______ _______ _______ _____ _____    ______ ____
ROOT
ATOM      1  C   LIG    1       21.679 -19.640   4.119  0.00  0.00    +0.134 C 
ATOM      2  C   LIG    1       22.886 -20.465   3.651  0.00  0.00    +0.079 C 
ATOM      3  C   LIG    1       24.225 -19.850   4.083  0.00  0.00    +0.158 C 
ATOM      4  C   LIG    1       24.300 -18.378   3.668  0.00  0.00    +0.030 A 
ATOM      5  C   LIG    1       23.122 -17.624   3.460  0.00  0.00    +0.007 A 
ATOM      6  C   LIG    1       23.225 -16.263   3.121  0.00  0.00    +0.132 A 
ATOM      7  C   LIG    1       24.471 -15.633   2.986  0.00  0.00    +0.078 A 
ATOM      8  C   LIG    1       24.537 -14.203   2.656  0.00  0.00    +0.198 C 
ATOM      9  O   LIG    1       23.496 -13.579   2.461  0.00  0.00    -0.286 OA
ATOM     10  C   LIG    1       25.835 -13.521   2.571  0.00  0.00    +0.037 A 
ATOM     11  C   LIG    1       27.030 -14.232   2.710  0.00  0.00    +0.075 A 
ATOM     12  C   LIG    1       28.249 -13.529   2.592  0.00  0.00    +0.132 A 
ATOM     13  C   LIG    1       28.230 -12.139   2.380  0.00  0.00    +0.046 A 
ATOM     14  C   LIG    1       27.030 -11.447   2.252  0.00  0.00    +0.004 A 
ATOM     15  C   LIG    1       26.957 -15.704   2.952  0.00  0.00    +0.202 C 
ATOM     16  O   LIG    1       27.956 -16.418   2.978  0.00  0.00    -0.286 OA
ATOM     17  C   LIG    1       25.832 -12.138   2.341  0.00  0.00    +0.012 A 
ATOM     18  C   LIG    1       25.640 -16.366   3.154  0.00  0.00    +0.078 A 
ATOM     19  C   LIG    1       25.548 -17.737   3.491  0.00  0.00    +0.135 A 
ATOM     20  C   LIG    1       21.741 -18.250   3.481  0.00  0.00    +0.082 C 
ENDROOT
BRANCH   1  21
ATOM     21  O   LIG    1       21.680 -19.566   5.546  0.00  0.00    -0.381 OA
ATOM     22  H   LIG    1       22.151 -18.761   5.830  0.00  0.00    +0.211 HD
ENDBRANCH   1  21
BRANCH  19  23
ATOM     23  O   LIG    1       26.676 -18.511   3.631  0.00  0.00    -0.506 OA
ATOM     24  H   LIG    1       26.408 -19.459   3.605  0.00  0.00    +0.292 HD
ENDBRANCH  19  23
BRANCH   6  25
ATOM     25  O   LIG    1       22.044 -15.589   2.922  0.00  0.00    -0.506 OA
ATOM     26  H   LIG    1       21.351 -15.988   3.498  0.00  0.00    +0.292 HD
ENDBRANCH   6  25
BRANCH  12  27
ATOM     27  O   LIG    1       29.426 -14.214   2.752  0.00  0.00    -0.494 OA
ATOM     28  C   LIG    1       29.429 -15.257   3.723  0.00  0.00    +0.277 C 
ENDBRANCH  12  27
BRANCH   1  29
ATOM     29  C   LIG    1       20.385 -20.331   3.641  0.00  0.00    +0.202 C 
ATOM     30  O   LIG    1       20.183 -21.532   3.855  0.00  0.00    -0.291 OA
BRANCH  29  31
ATOM     31  C   LIG    1       19.368 -19.498   2.870  0.00  0.00    +0.309 C 
BRANCH  31  32
ATOM     32  O   LIG    1       19.710 -18.116   3.009  0.00  0.00    -0.457 OA
BRANCH  32  33
ATOM     33  C   LIG    1       20.156 -17.758   4.237  0.00  0.00    +0.307 C 
ATOM     34  O   LIG    1       21.093 -18.299   4.827  0.00  0.00    -0.251 OA
BRANCH  33  35
ATOM     35  C   LIG    1       19.352 -16.606   4.771  0.00  0.00    +0.120 C 
BRANCH  35  36
ATOM     36  C   LIG    1       20.259 -15.546   5.382  0.00  0.00    +0.011 C 
BRANCH  36  38
ATOM     37  C   LIG    1       22.326 -15.455   6.803  0.00  0.00    +0.004 C 
ATOM     38  C   LIG    1       20.935 -16.046   6.652  0.00  0.00    -0.003 C 
ENDBRANCH  36  38
ENDBRANCH  35  36
ENDBRANCH  33  35
ENDBRANCH  32  33
ENDBRANCH  31  32
ENDBRANCH  29  31
ENDBRANCH   1  29
BRANCH   3  39
ATOM     39  O   LIG    1       24.478 -19.920   5.494  0.00  0.00    -0.343 OA
BRANCH  39  40
ATOM     40  C   LIG    1       25.769 -20.401   5.871  0.00  0.00    +0.253 C 
ATOM     41  O   LIG    1       26.521 -20.937   4.777  0.00  0.00    -0.346 OA
ATOM     42  C   LIG    1       26.824 -19.961   3.764  0.00  0.00    +0.148 C 
ATOM     43  C   LIG    1       27.525 -20.692   2.626  0.00  0.00    +0.040 C 
ATOM     44  C   LIG    1       27.687 -18.830   4.359  0.00  0.00    +0.163 C 
ATOM     45  C   LIG    1       26.900 -18.193   5.521  0.00  0.00    +0.109 C 
ATOM     46  C   LIG    1       26.566 -19.279   6.550  0.00  0.00    +0.086 C 
BRANCH  45  47
ATOM     47  N   LIG    1       27.602 -17.052   6.122  0.00  0.00    -0.302 N 
ATOM     48  H   LIG    1       28.125 -17.201   6.983  0.00  0.00    +0.149 HD
ATOM     49  C   LIG    1       27.501 -15.776   5.568  0.00  0.00    +0.318 C 
ATOM     50  O   LIG    1       26.828 -15.577   4.551  0.00  0.00    -0.266 OA
BRANCH  49  51
ATOM     51  C   LIG    1       28.293 -14.639   6.258  0.00  0.00    +0.469 C 
ATOM     52  F   LIG    1       29.294 -15.113   7.053  0.00  0.00    -0.162 F 
ATOM     53  F   LIG    1       27.500 -13.871   7.057  0.00  0.00    -0.162 F 
ATOM     54  F   LIG    1       28.880 -13.787   5.370  0.00  0.00    -0.162 F 
ENDBRANCH  49  51
ENDBRANCH  45  47
BRANCH  44  55
ATOM     55  O   LIG    1       28.941 -19.341   4.850  0.00  0.00    -0.387 OA
ATOM     56  H   LIG    1       28.732 -20.125   5.394  0.00  0.00    +0.210 HD
ENDBRANCH  44  55
ENDBRANCH  39  40
ENDBRANCH   3  39
TORSDOF 16
ENDMDL
