MODEL 1
REMARK VINA RESULT:      -4.4      0.000      0.000
REMARK  Name = *****
REMARK                            x       y       z     vdW  Elec       q    Type
REMARK                         _______ _______ _______ _____ _____    ______ ____
ROOT
ATOM      1  C   LIG    1       29.877 -18.823   6.349  0.00  0.00    +0.047 C 
ATOM      2  C   LIG    1       30.664 -19.287   7.513  0.00  0.00    -0.013 A 
ATOM      3  C   LIG    1       30.666 -20.539   8.089  0.00  0.00    +0.108 A 
ATOM      4  N   LIG    1       31.545 -20.482   9.130  0.00  0.00    -0.284 N 
ATOM      5  H   LIG    1       31.799 -21.219   9.781  0.00  0.00    +0.188 HD
ATOM      6  N   LIG    1       32.122 -19.279   9.275  0.00  0.00    -0.182 NA
ATOM      7  C   LIG    1       31.587 -18.553   8.290  0.00  0.00    +0.137 A 
ENDROOT
TORSDOF 0
ENDMDL
MODEL 2
REMARK VINA RESULT:      -4.3      1.312      2.167
REMARK  Name = *****
REMARK                            x       y       z     vdW  Elec       q    Type
REMARK                         _______ _______ _______ _____ _____    ______ ____
ROOT
ATOM      1  C   LIG    1       28.946 -21.092   7.355  0.00  0.00    +0.047 C 
ATOM      2  C   LIG    1       30.192 -20.934   8.138  0.00  0.00    -0.013 A 
ATOM      3  C   LIG    1       30.944 -19.793   8.310  0.00  0.00    +0.108 A 
ATOM      4  N   LIG    1       31.995 -20.141   9.106  0.00  0.00    -0.284 N 
ATOM      5  H   LIG    1       32.755 -19.555   9.438  0.00  0.00    +0.188 HD
ATOM      6  N   LIG    1       31.983 -21.432   9.469  0.00  0.00    -0.182 NA
ATOM      7  C   LIG    1       30.885 -21.914   8.881  0.00  0.00    +0.137 A 
ENDROOT
TORSDOF 0
ENDMDL
MODEL 3
REMARK VINA RESULT:      -3.8      8.048      8.685
REMARK  Name = *****
REMARK                            x       y       z     vdW  Elec       q    Type
REMARK                         _______ _______ _______ _____ _____    ______ ____
ROOT
ATOM      1  C   LIG    1       22.217 -18.404   4.503  0.00  0.00    +0.047 C 
ATOM      2  C   LIG    1       22.903 -19.711   4.609  0.00  0.00    -0.013 A 
ATOM      3  C   LIG    1       22.464 -20.847   5.253  0.00  0.00    +0.108 A 
ATOM      4  N   LIG    1       23.435 -21.788   5.078  0.00  0.00    -0.284 N 
ATOM      5  H   LIG    1       23.454 -22.745   5.417  0.00  0.00    +0.188 HD
ATOM      6  N   LIG    1       24.480 -21.348   4.360  0.00  0.00    -0.182 NA
ATOM      7  C   LIG    1       24.155 -20.085   4.074  0.00  0.00    +0.137 A 
ENDROOT
TORSDOF 0
ENDMDL
MODEL 4
REMARK VINA RESULT:      -3.8      7.573      8.337
REMARK  Name = *****
REMARK                            x       y       z     vdW  Elec       q    Type
REMARK                         _______ _______ _______ _____ _____    ______ ____
ROOT
ATOM      1  C   LIG    1       25.922 -26.684   6.881  0.00  0.00    +0.047 C 
ATOM      2  C   LIG    1       25.568 -25.378   6.283  0.00  0.00    -0.013 A 
ATOM      3  C   LIG    1       25.090 -25.129   5.014  0.00  0.00    +0.108 A 
ATOM      4  N   LIG    1       24.915 -23.779   4.926  0.00  0.00    -0.284 N 
ATOM      5  H   LIG    1       24.579 -23.238   4.136  0.00  0.00    +0.188 HD
ATOM      6  N   LIG    1       25.242 -23.125   6.051  0.00  0.00    -0.182 NA
ATOM      7  C   LIG    1       25.638 -24.098   6.877  0.00  0.00    +0.137 A 
ENDROOT
TORSDOF 0
ENDMDL
MODEL 5
REMARK VINA RESULT:      -3.8      5.198      5.657
REMARK  Name = *****
REMARK                            x       y       z     vdW  Elec       q    Type
REMARK                         _______ _______ _______ _____ _____    ______ ____
ROOT
ATOM      1  C   LIG    1       26.204 -20.293   5.440  0.00  0.00    +0.047 C 
ATOM      2  C   LIG    1       25.869 -20.681   6.828  0.00  0.00    -0.013 A 
ATOM      3  C   LIG    1       24.785 -21.412   7.264  0.00  0.00    +0.108 A 
ATOM      4  N   LIG    1       24.906 -21.509   8.619  0.00  0.00    -0.284 N 
ATOM      5  H   LIG    1       24.286 -21.974   9.275  0.00  0.00    +0.188 HD
ATOM      6  N   LIG    1       25.996 -20.894   9.102  0.00  0.00    -0.182 NA
ATOM      7  C   LIG    1       26.582 -20.392   8.012  0.00  0.00    +0.137 A 
ENDROOT
TORSDOF 0
ENDMDL
MODEL 6
REMARK VINA RESULT:      -3.8      8.134      8.358
REMARK  Name = *****
REMARK                            x       y       z     vdW  Elec       q    Type
REMARK                         _______ _______ _______ _____ _____    ______ ____
ROOT
ATOM      1  C   LIG    1       22.453 -19.286   4.922  0.00  0.00    +0.047 C 
ATOM      2  C   LIG    1       23.237 -20.536   5.036  0.00  0.00    -0.013 A 
ATOM      3  C   LIG    1       24.082 -21.094   4.101  0.00  0.00    +0.108 A 
ATOM      4  N   LIG    1       24.570 -22.239   4.659  0.00  0.00    -0.284 N 
ATOM      5  H   LIG    1       25.218 -22.908   4.256  0.00  0.00    +0.188 HD
ATOM      6  N   LIG    1       24.106 -22.469   5.896  0.00  0.00    -0.182 NA
ATOM      7  C   LIG    1       23.296 -21.432   6.126  0.00  0.00    +0.137 A 
ENDROOT
TORSDOF 0
ENDMDL
MODEL 7
REMARK VINA RESULT:      -3.8      7.757      8.450
REMARK  Name = *****
REMARK                            x       y       z     vdW  Elec       q    Type
REMARK                         _______ _______ _______ _____ _____    ______ ____
ROOT
ATOM      1  C   LIG    1       26.215 -22.611   7.252  0.00  0.00    +0.047 C 
ATOM      2  C   LIG    1       24.967 -23.343   6.942  0.00  0.00    -0.013 A 
ATOM      3  C   LIG    1       23.678 -22.855   6.933  0.00  0.00    +0.108 A 
ATOM      4  N   LIG    1       22.872 -23.900   6.591  0.00  0.00    -0.284 N 
ATOM      5  H   LIG    1       21.863 -23.909   6.490  0.00  0.00    +0.188 HD
ATOM      6  N   LIG    1       23.544 -25.041   6.373  0.00  0.00    -0.182 NA
ATOM      7  C   LIG    1       24.818 -24.701   6.585  0.00  0.00    +0.137 A 
ENDROOT
TORSDOF 0
ENDMDL
MODEL 8
REMARK VINA RESULT:      -3.8      1.753      2.318
REMARK  Name = *****
REMARK                            x       y       z     vdW  Elec       q    Type
REMARK                         _______ _______ _______ _____ _____    ______ ____
ROOT
ATOM      1  C   LIG    1       30.213 -17.343   9.727  0.00  0.00    +0.047 C 
ATOM      2  C   LIG    1       30.550 -18.383   8.730  0.00  0.00    -0.013 A 
ATOM      3  C   LIG    1       31.384 -19.469   8.887  0.00  0.00    +0.108 A 
ATOM      4  N   LIG    1       31.380 -20.133   7.697  0.00  0.00    -0.284 N 
ATOM      5  H   LIG    1       31.884 -20.978   7.446  0.00  0.00    +0.188 HD
ATOM      6  N   LIG    1       30.599 -19.560   6.769  0.00  0.00    -0.182 NA
ATOM      7  C   LIG    1       30.093 -18.496   7.398  0.00  0.00    +0.137 A 
ENDROOT
TORSDOF 0
ENDMDL
MODEL 9
REMARK VINA RESULT:      -3.7      5.237      5.934
REMARK  Name = *****
REMARK                            x       y       z     vdW  Elec       q    Type
REMARK                         _______ _______ _______ _____ _____    ______ ____
ROOT
ATOM      1  C   LIG    1       26.014 -20.837   8.464  0.00  0.00    +0.047 C 
ATOM      2  C   LIG    1       26.171 -20.588   7.014  0.00  0.00    -0.013 A 
ATOM      3  C   LIG    1       27.326 -20.283   6.328  0.00  0.00    +0.108 A 
ATOM      4  N   LIG    1       26.970 -20.141   5.019  0.00  0.00    -0.284 N 
ATOM      5  H   LIG    1       27.563 -19.914   4.227  0.00  0.00    +0.188 HD
ATOM      6  N   LIG    1       25.661 -20.335   4.799  0.00  0.00    -0.182 NA
ATOM      7  C   LIG    1       25.175 -20.608   6.013  0.00  0.00    +0.137 A 
ENDROOT
TORSDOF 0
ENDMDL
