MODEL 1
REMARK VINA RESULT:      71.7      0.000      0.000
REMARK  Name = *****
REMARK                            x       y       z     vdW  Elec       q    Type
REMARK                         _______ _______ _______ _____ _____    ______ ____
ROOT
ATOM      1  C   LIG    1       23.251 -21.527   2.707  0.00  0.00    +0.175 C 
ATOM      2  C   LIG    1       22.205 -20.763   1.911  0.00  0.00    +0.058 C 
ATOM      3  C   LIG    1       22.699 -19.308   1.908  0.00  0.00    +0.090 C 
ATOM      4  C   LIG    1       24.262 -19.440   1.942  0.00  0.00    +0.090 C 
ATOM      5  C   LIG    1       25.232 -18.638   2.844  0.00  0.00    +0.218 C 
ATOM      6  O   LIG    1       26.314 -19.113   3.201  0.00  0.00    -0.276 OA
ATOM      7  N   LIG    1       24.966 -17.303   3.028  0.00  0.00    -0.301 N 
ATOM      8  H   LIG    1       23.978 -17.058   3.091  0.00  0.00    +0.150 HD
ATOM      9  C   LIG    1       25.862 -16.420   3.779  0.00  0.00    +0.119 C 
ATOM     10  C   LIG    1       25.362 -15.839   5.117  0.00  0.00    +0.046 C 
ATOM     11  C   LIG    1       24.074 -16.267   5.705  0.00  0.00    -0.025 C 
ATOM     12  C   LIG    1       23.086 -15.468   6.145  0.00  0.00    -0.031 C 
ATOM     13  C   LIG    1       21.746 -15.879   6.718  0.00  0.00    +0.027 C 
ATOM     14  C   LIG    1       21.146 -17.233   6.306  0.00  0.00    +0.006 C 
ATOM     15  C   LIG    1       20.139 -17.138   5.142  0.00  0.00    +0.019 C 
ATOM     16  C   LIG    1       19.970 -18.476   4.411  0.00  0.00    +0.107 C 
ATOM     17  N   LIG    1       20.606 -18.557   3.089  0.00  0.00    -0.304 N 
ATOM     18  C   LIG    1       19.718 -18.802   1.959  0.00  0.00    +0.132 C 
ATOM     19  C   LIG    1       26.470 -16.849   5.108  0.00  0.00    +0.046 C 
ATOM     20  C   LIG    1       21.992 -18.560   3.026  0.00  0.00    +0.219 C 
ATOM     21  O   LIG    1       22.657 -17.960   3.862  0.00  0.00    -0.275 OA
ATOM     22  C   LIG    1       24.532 -20.960   2.118  0.00  0.00    +0.058 C 
ENDROOT
BRANCH   9  23
ATOM     23  C   LIG    1       26.723 -15.503   2.914  0.00  0.00    +0.256 C 
ATOM     24  N   LIG    1       26.923 -14.210   3.451  0.00  0.00    -0.188 N 
ATOM     25  H   LIG    1       26.599 -13.994   4.382  0.00  0.00    +0.176 HD
ATOM     26  O   LIG    1       27.154 -15.867   1.858  0.00  0.00    -0.272 OA
BRANCH  24  27
ATOM     27  S   LIG    1       27.935 -13.077   2.786  0.00  0.00    +0.048 S 
ATOM     28  O   LIG    1       27.186 -12.294   1.812  0.00  0.00    -0.155 OA
ATOM     29  O   LIG    1       29.112 -13.808   2.384  0.00  0.00    -0.155 OA
BRANCH  27  30
ATOM     30  C   LIG    1       28.422 -11.924   4.111  0.00  0.00    +0.151 C 
ATOM     31  C   LIG    1       27.771 -12.155   5.454  0.00  0.00    +0.030 C 
ATOM     32  C   LIG    1       29.198 -12.575   5.233  0.00  0.00    +0.030 C 
ENDBRANCH  27  30
ENDBRANCH  24  27
ENDBRANCH   9  23
BRANCH   1  33
ATOM     33  O   LIG    1       23.164 -21.246   4.116  0.00  0.00    -0.488 OA
BRANCH  33  39
ATOM     34  C   LIG    1       27.666 -20.086   6.228  0.00  0.00    +0.125 A 
ATOM     35  C   LIG    1       26.951 -18.886   6.055  0.00  0.00    +0.017 A 
ATOM     36  C   LIG    1       27.547 -17.539   6.415  0.00  0.00    +0.050 C 
ATOM     37  C   LIG    1       25.670 -18.916   5.479  0.00  0.00    +0.082 A 
ATOM     38  C   LIG    1       25.048 -20.133   5.131  0.00  0.00    +0.043 A 
ATOM     39  C   LIG    1       23.755 -20.064   4.537  0.00  0.00    +0.132 A 
ATOM     40  C   LIG    1       23.154 -18.818   4.347  0.00  0.00    +0.076 A 
ATOM     41  C   LIG    1       23.876 -17.682   4.630  0.00  0.00    +0.100 A 
ATOM     42  C   LIG    1       25.761 -21.323   5.362  0.00  0.00    +0.017 A 
ATOM     43  N   LIG    1       25.089 -17.744   5.213  0.00  0.00    -0.244 NA
ATOM     44  C   LIG    1       27.051 -21.297   5.897  0.00  0.00    +0.046 A 
BRANCH  41  45
ATOM     45  C   LIG    1       23.425 -16.335   4.228  0.00  0.00    +0.127 A 
ATOM     46  S   LIG    1       21.847 -16.147   3.544  0.00  0.00    -0.074 S 
ATOM     47  C   LIG    1       22.098 -14.473   3.422  0.00  0.00    +0.070 A 
ATOM     48  C   LIG    1       23.338 -14.121   3.914  0.00  0.00    +0.052 A 
ATOM     49  N   LIG    1       24.092 -15.199   4.386  0.00  0.00    -0.242 NA
BRANCH  48  50
ATOM     50  C   LIG    1       23.921 -12.727   3.952  0.00  0.00    +0.032 C 
ATOM     51  C   LIG    1       23.653 -12.027   5.287  0.00  0.00    +0.014 C 
ATOM     52  C   LIG    1       23.393 -11.851   2.807  0.00  0.00    +0.014 C 
ENDBRANCH  48  50
ENDBRANCH  41  45
BRANCH  34  54
ATOM     53  C   LIG    1       29.401 -18.699   7.025  0.00  0.00    +0.277 C 
ATOM     54  O   LIG    1       28.953 -20.025   6.712  0.00  0.00    -0.495 OA
ENDBRANCH  34  54
ENDBRANCH  33  39
ENDBRANCH   1  33
TORSDOF 8
ENDMDL
