MODEL 1
REMARK VINA RESULT:      -8.6      0.000      0.000
REMARK  Name = *****
REMARK                            x       y       z     vdW  Elec       q    Type
REMARK                         _______ _______ _______ _____ _____    ______ ____
ROOT
ATOM      1  C   LIG    1       25.271 -21.518   6.934  0.00  0.00    +0.069 C 
ENDROOT
BRANCH   1   2
ATOM      2  C   LIG    1       25.013 -23.023   6.785  0.00  0.00    -0.038 A 
ATOM      3  C   LIG    1       26.084 -23.935   6.771  0.00  0.00    +0.006 A 
ATOM      4  C   LIG    1       25.857 -25.302   6.570  0.00  0.00    +0.020 A 
ATOM      5  C   LIG    1       24.558 -25.765   6.383  0.00  0.00    +0.041 A 
ATOM      6 CL   LIG    1       24.279 -27.442   6.100  0.00  0.00    -0.084 Cl
ATOM      7  C   LIG    1       23.483 -24.884   6.410  0.00  0.00    +0.020 A 
ATOM      8  C   LIG    1       23.710 -23.520   6.611  0.00  0.00    +0.006 A 
ENDBRANCH   1   2
BRANCH   1   9
ATOM      9  C   LIG    1       24.500 -20.688   5.907  0.00  0.00    +0.049 A 
ATOM     10  N   LIG    1       25.120 -20.375   4.739  0.00  0.00    -0.259 NA
ATOM     11  C   LIG    1       24.441 -19.618   3.846  0.00  0.00    +0.111 A 
ATOM     12  C   LIG    1       23.156 -19.150   4.056  0.00  0.00    +0.020 A 
ATOM     13  C   LIG    1       22.519 -19.499   5.238  0.00  0.00    +0.003 A 
ATOM     14  C   LIG    1       23.189 -20.284   6.176  0.00  0.00    +0.024 A 
ENDBRANCH   1   9
BRANCH   1  15
ATOM     15  C   LIG    1       26.798 -21.238   6.903  0.00  0.00    +0.029 C 
BRANCH  15  16
ATOM     16  C   LIG    1       27.296 -20.260   7.985  0.00  0.00    +0.085 C 
BRANCH  16  18
ATOM     17  C   LIG    1       29.528 -21.251   8.089  0.00  0.00    +0.104 C 
ATOM     18  N   LIG    1       28.751 -20.017   7.963  0.00  0.00    -0.308 NA
ATOM     19  C   LIG    1       29.138 -19.314   6.735  0.00  0.00    +0.104 C 
ENDBRANCH  16  18
ENDBRANCH  15  16
ENDBRANCH   1  15
TORSDOF 5
ENDMDL
MODEL 2
REMARK VINA RESULT:      -8.6      0.960      1.273
REMARK  Name = *****
REMARK                            x       y       z     vdW  Elec       q    Type
REMARK                         _______ _______ _______ _____ _____    ______ ____
ROOT
ATOM      1  C   LIG    1       24.398 -22.112   7.333  0.00  0.00    +0.069 C 
ENDROOT
BRANCH   1   2
ATOM      2  C   LIG    1       24.652 -23.567   6.916  0.00  0.00    -0.038 A 
ATOM      3  C   LIG    1       25.956 -24.093   6.910  0.00  0.00    +0.006 A 
ATOM      4  C   LIG    1       26.198 -25.400   6.468  0.00  0.00    +0.020 A 
ATOM      5  C   LIG    1       25.138 -26.188   6.031  0.00  0.00    +0.041 A 
ATOM      6 CL   LIG    1       25.438 -27.784   5.452  0.00  0.00    -0.084 Cl
ATOM      7  C   LIG    1       23.838 -25.694   6.044  0.00  0.00    +0.020 A 
ATOM      8  C   LIG    1       23.598 -24.391   6.485  0.00  0.00    +0.006 A 
ENDBRANCH   1   2
BRANCH   1   9
ATOM      9  C   LIG    1       24.036 -21.219   6.147  0.00  0.00    +0.049 A 
ATOM     10  N   LIG    1       24.749 -21.355   4.999  0.00  0.00    -0.259 NA
ATOM     11  C   LIG    1       24.440 -20.543   3.962  0.00  0.00    +0.111 A 
ATOM     12  C   LIG    1       23.441 -19.587   4.007  0.00  0.00    +0.020 A 
ATOM     13  C   LIG    1       22.697 -19.474   5.172  0.00  0.00    +0.003 A 
ATOM     14  C   LIG    1       22.986 -20.302   6.257  0.00  0.00    +0.024 A 
ENDBRANCH   1   9
BRANCH   1  15
ATOM     15  C   LIG    1       25.613 -21.574   8.137  0.00  0.00    +0.029 C 
BRANCH  15  16
ATOM     16  C   LIG    1       26.402 -20.451   7.437  0.00  0.00    +0.085 C 
BRANCH  16  18
ATOM     17  C   LIG    1       28.159 -19.888   5.834  0.00  0.00    +0.104 C 
ATOM     18  N   LIG    1       27.619 -20.904   6.739  0.00  0.00    -0.308 NA
ATOM     19  C   LIG    1       28.650 -21.301   7.705  0.00  0.00    +0.104 C 
ENDBRANCH  16  18
ENDBRANCH  15  16
ENDBRANCH   1  15
TORSDOF 5
ENDMDL
MODEL 3
REMARK VINA RESULT:      -8.3      2.996      5.207
REMARK  Name = *****
REMARK                            x       y       z     vdW  Elec       q    Type
REMARK                         _______ _______ _______ _____ _____    ______ ____
ROOT
ATOM      1  C   LIG    1       25.908 -21.466   5.997  0.00  0.00    +0.069 C 
ENDROOT
BRANCH   1   2
ATOM      2  C   LIG    1       27.081 -20.610   6.493  0.00  0.00    -0.038 A 
ATOM      3  C   LIG    1       27.919 -19.945   5.580  0.00  0.00    +0.006 A 
ATOM      4  C   LIG    1       29.028 -19.216   6.027  0.00  0.00    +0.020 A 
ATOM      5  C   LIG    1       29.306 -19.147   7.388  0.00  0.00    +0.041 A 
ATOM      6 CL   LIG    1       30.691 -18.281   7.938  0.00  0.00    -0.084 Cl
ATOM      7  C   LIG    1       28.482 -19.783   8.310  0.00  0.00    +0.020 A 
ATOM      8  C   LIG    1       27.375 -20.510   7.864  0.00  0.00    +0.006 A 
ENDBRANCH   1   2
BRANCH   1   9
ATOM      9  C   LIG    1       24.777 -20.623   5.408  0.00  0.00    +0.049 A 
ATOM     10  N   LIG    1       24.974 -20.041   4.196  0.00  0.00    -0.259 NA
ATOM     11  C   LIG    1       23.978 -19.274   3.694  0.00  0.00    +0.111 A 
ATOM     12  C   LIG    1       22.777 -19.053   4.343  0.00  0.00    +0.020 A 
ATOM     13  C   LIG    1       22.571 -19.676   5.565  0.00  0.00    +0.003 A 
ATOM     14  C   LIG    1       23.575 -20.478   6.107  0.00  0.00    +0.024 A 
ENDBRANCH   1   9
BRANCH   1  15
ATOM     15  C   LIG    1       25.423 -22.406   7.133  0.00  0.00    +0.029 C 
BRANCH  15  16
ATOM     16  C   LIG    1       25.880 -23.872   6.997  0.00  0.00    +0.085 C 
BRANCH  16  18
ATOM     17  C   LIG    1       23.496 -24.258   6.624  0.00  0.00    +0.104 C 
ATOM     18  N   LIG    1       24.852 -24.784   6.462  0.00  0.00    -0.308 NA
ATOM     19  C   LIG    1       25.104 -25.070   5.045  0.00  0.00    +0.104 C 
ENDBRANCH  16  18
ENDBRANCH  15  16
ENDBRANCH   1  15
TORSDOF 5
ENDMDL
MODEL 4
REMARK VINA RESULT:      -8.1      2.602      4.796
REMARK  Name = *****
REMARK                            x       y       z     vdW  Elec       q    Type
REMARK                         _______ _______ _______ _____ _____    ______ ____
ROOT
ATOM      1  C   LIG    1       25.842 -22.440   6.486  0.00  0.00    +0.069 C 
ENDROOT
BRANCH   1   2
ATOM      2  C   LIG    1       24.797 -21.488   5.889  0.00  0.00    -0.038 A 
ATOM      3  C   LIG    1       24.890 -21.071   4.550  0.00  0.00    +0.006 A 
ATOM      4  C   LIG    1       23.975 -20.153   4.021  0.00  0.00    +0.020 A 
ATOM      5  C   LIG    1       22.962 -19.646   4.828  0.00  0.00    +0.041 A 
ATOM      6 CL   LIG    1       21.856 -18.487   4.190  0.00  0.00    -0.084 Cl
ATOM      7  C   LIG    1       22.840 -20.056   6.151  0.00  0.00    +0.020 A 
ATOM      8  C   LIG    1       23.753 -20.973   6.678  0.00  0.00    +0.006 A 
ENDBRANCH   1   2
BRANCH   1   9
ATOM      9  C   LIG    1       25.436 -23.908   6.361  0.00  0.00    +0.049 A 
ATOM     10  N   LIG    1       26.417 -24.835   6.204  0.00  0.00    -0.259 NA
ATOM     11  C   LIG    1       26.047 -26.129   6.067  0.00  0.00    +0.111 A 
ATOM     12  C   LIG    1       24.732 -26.558   6.078  0.00  0.00    +0.020 A 
ATOM     13  C   LIG    1       23.738 -25.610   6.269  0.00  0.00    +0.003 A 
ATOM     14  C   LIG    1       24.087 -24.268   6.421  0.00  0.00    +0.024 A 
ENDBRANCH   1   9
BRANCH   1  15
ATOM     15  C   LIG    1       26.154 -22.030   7.951  0.00  0.00    +0.029 C 
BRANCH  15  16
ATOM     16  C   LIG    1       27.198 -20.905   8.098  0.00  0.00    +0.085 C 
BRANCH  16  18
ATOM     17  C   LIG    1       28.433 -19.921   6.233  0.00  0.00    +0.104 C 
ATOM     18  N   LIG    1       28.354 -21.025   7.191  0.00  0.00    -0.308 NA
ATOM     19  C   LIG    1       29.604 -21.103   7.957  0.00  0.00    +0.104 C 
ENDBRANCH  16  18
ENDBRANCH  15  16
ENDBRANCH   1  15
TORSDOF 5
ENDMDL
MODEL 5
REMARK VINA RESULT:      -7.9      2.920      5.774
REMARK  Name = *****
REMARK                            x       y       z     vdW  Elec       q    Type
REMARK                         _______ _______ _______ _____ _____    ______ ____
ROOT
ATOM      1  C   LIG    1       24.759 -21.255   7.232  0.00  0.00    +0.069 C 
ENDROOT
BRANCH   1   2
ATOM      2  C   LIG    1       26.163 -20.659   7.055  0.00  0.00    -0.038 A 
ATOM      3  C   LIG    1       26.642 -20.323   5.777  0.00  0.00    +0.006 A 
ATOM      4  C   LIG    1       27.945 -19.840   5.606  0.00  0.00    +0.020 A 
ATOM      5  C   LIG    1       28.776 -19.689   6.712  0.00  0.00    +0.041 A 
ATOM      6 CL   LIG    1       30.392 -19.128   6.500  0.00  0.00    -0.084 Cl
ATOM      7  C   LIG    1       28.317 -19.998   7.988  0.00  0.00    +0.020 A 
ATOM      8  C   LIG    1       27.017 -20.481   8.157  0.00  0.00    +0.006 A 
ENDBRANCH   1   2
BRANCH   1   9
ATOM      9  C   LIG    1       24.720 -22.755   6.933  0.00  0.00    +0.049 A 
ATOM     10  N   LIG    1       23.507 -23.347   6.781  0.00  0.00    -0.259 NA
ATOM     11  C   LIG    1       23.479 -24.679   6.544  0.00  0.00    +0.111 A 
ATOM     12  C   LIG    1       24.612 -25.465   6.447  0.00  0.00    +0.020 A 
ATOM     13  C   LIG    1       25.848 -24.848   6.572  0.00  0.00    +0.003 A 
ATOM     14  C   LIG    1       25.911 -23.475   6.810  0.00  0.00    +0.024 A 
ENDBRANCH   1   9
BRANCH   1  15
ATOM     15  C   LIG    1       23.734 -20.451   6.388  0.00  0.00    +0.029 C 
BRANCH  15  16
ATOM     16  C   LIG    1       23.764 -20.753   4.877  0.00  0.00    +0.085 C 
BRANCH  16  18
ATOM     17  C   LIG    1       22.303 -18.801   4.712  0.00  0.00    +0.104 C 
ATOM     18  N   LIG    1       23.276 -19.652   4.025  0.00  0.00    -0.308 NA
ATOM     19  C   LIG    1       24.396 -18.835   3.546  0.00  0.00    +0.104 C 
ENDBRANCH  16  18
ENDBRANCH  15  16
ENDBRANCH   1  15
TORSDOF 5
ENDMDL
MODEL 6
REMARK VINA RESULT:      -7.7      2.613      5.546
REMARK  Name = *****
REMARK                            x       y       z     vdW  Elec       q    Type
REMARK                         _______ _______ _______ _____ _____    ______ ____
ROOT
ATOM      1  C   LIG    1       26.056 -21.898   7.231  0.00  0.00    +0.069 C 
ENDROOT
BRANCH   1   2
ATOM      2  C   LIG    1       24.966 -21.179   6.424  0.00  0.00    -0.038 A 
ATOM      3  C   LIG    1       25.130 -20.949   5.047  0.00  0.00    +0.006 A 
ATOM      4  C   LIG    1       24.168 -20.237   4.321  0.00  0.00    +0.020 A 
ATOM      5  C   LIG    1       23.035 -19.753   4.967  0.00  0.00    +0.041 A 
ATOM      6 CL   LIG    1       21.866 -18.845   4.084  0.00  0.00    -0.084 Cl
ATOM      7  C   LIG    1       22.844 -19.983   6.325  0.00  0.00    +0.020 A 
ATOM      8  C   LIG    1       23.805 -20.694   7.048  0.00  0.00    +0.006 A 
ENDBRANCH   1   2
BRANCH   1   9
ATOM      9  C   LIG    1       27.406 -21.182   7.157  0.00  0.00    +0.049 A 
ATOM     10  N   LIG    1       28.372 -21.542   8.041  0.00  0.00    -0.259 NA
ATOM     11  C   LIG    1       29.555 -20.886   7.987  0.00  0.00    +0.111 A 
ATOM     12  C   LIG    1       29.832 -19.876   7.083  0.00  0.00    +0.020 A 
ATOM     13  C   LIG    1       28.851 -19.536   6.163  0.00  0.00    +0.003 A 
ATOM     14  C   LIG    1       27.623 -20.198   6.189  0.00  0.00    +0.024 A 
ENDBRANCH   1   9
BRANCH   1  15
ATOM     15  C   LIG    1       26.144 -23.384   6.794  0.00  0.00    +0.029 C 
BRANCH  15  16
ATOM     16  C   LIG    1       24.810 -24.155   6.856  0.00  0.00    +0.085 C 
BRANCH  16  18
ATOM     17  C   LIG    1       25.094 -25.363   4.751  0.00  0.00    +0.104 C 
ATOM     18  N   LIG    1       24.833 -25.469   6.187  0.00  0.00    -0.308 NA
ATOM     19  C   LIG    1       25.834 -26.345   6.806  0.00  0.00    +0.104 C 
ENDBRANCH  16  18
ENDBRANCH  15  16
ENDBRANCH   1  15
TORSDOF 5
ENDMDL
MODEL 7
REMARK VINA RESULT:      -7.6      2.534      5.601
REMARK  Name = *****
REMARK                            x       y       z     vdW  Elec       q    Type
REMARK                         _______ _______ _______ _____ _____    ______ ____
ROOT
ATOM      1  C   LIG    1       26.328 -21.772   7.114  0.00  0.00    +0.069 C 
ENDROOT
BRANCH   1   2
ATOM      2  C   LIG    1       25.214 -21.006   6.388  0.00  0.00    -0.038 A 
ATOM      3  C   LIG    1       23.996 -20.731   7.034  0.00  0.00    +0.006 A 
ATOM      4  C   LIG    1       22.953 -20.090   6.354  0.00  0.00    +0.020 A 
ATOM      5  C   LIG    1       23.123 -19.719   5.023  0.00  0.00    +0.041 A 
ATOM      6 CL   LIG    1       21.829 -18.963   4.173  0.00  0.00    -0.084 Cl
ATOM      7  C   LIG    1       24.325 -19.966   4.369  0.00  0.00    +0.020 A 
ATOM      8  C   LIG    1       25.364 -20.606   5.049  0.00  0.00    +0.006 A 
ENDBRANCH   1   2
BRANCH   1   9
ATOM      9  C   LIG    1       27.659 -21.017   7.103  0.00  0.00    +0.049 A 
ATOM     10  N   LIG    1       28.588 -21.343   8.039  0.00  0.00    -0.259 NA
ATOM     11  C   LIG    1       29.752 -20.653   8.040  0.00  0.00    +0.111 A 
ATOM     12  C   LIG    1       30.046 -19.641   7.144  0.00  0.00    +0.020 A 
ATOM     13  C   LIG    1       29.105 -19.335   6.172  0.00  0.00    +0.003 A 
ATOM     14  C   LIG    1       27.897 -20.034   6.140  0.00  0.00    +0.024 A 
ENDBRANCH   1   9
BRANCH   1  15
ATOM     15  C   LIG    1       26.450 -23.205   6.530  0.00  0.00    +0.029 C 
BRANCH  15  16
ATOM     16  C   LIG    1       25.654 -24.282   7.293  0.00  0.00    +0.085 C 
BRANCH  16  18
ATOM     17  C   LIG    1       23.304 -24.275   6.624  0.00  0.00    +0.104 C 
ATOM     18  N   LIG    1       24.601 -24.940   6.498  0.00  0.00    -0.308 NA
ATOM     19  C   LIG    1       24.988 -25.004   5.084  0.00  0.00    +0.104 C 
ENDBRANCH  16  18
ENDBRANCH  15  16
ENDBRANCH   1  15
TORSDOF 5
ENDMDL
MODEL 8
REMARK VINA RESULT:      -7.2      1.381      3.981
REMARK  Name = *****
REMARK                            x       y       z     vdW  Elec       q    Type
REMARK                         _______ _______ _______ _____ _____    ______ ____
ROOT
ATOM      1  C   LIG    1       24.643 -22.263   5.889  0.00  0.00    +0.069 C 
ENDROOT
BRANCH   1   2
ATOM      2  C   LIG    1       24.782 -23.773   6.128  0.00  0.00    -0.038 A 
ATOM      3  C   LIG    1       26.034 -24.338   6.430  0.00  0.00    +0.006 A 
ATOM      4  C   LIG    1       26.176 -25.722   6.585  0.00  0.00    +0.020 A 
ATOM      5  C   LIG    1       25.067 -26.550   6.438  0.00  0.00    +0.041 A 
ATOM      6 CL   LIG    1       25.246 -28.257   6.592  0.00  0.00    -0.084 Cl
ATOM      7  C   LIG    1       23.816 -26.012   6.156  0.00  0.00    +0.020 A 
ATOM      8  C   LIG    1       23.676 -24.630   6.002  0.00  0.00    +0.006 A 
ENDBRANCH   1   2
BRANCH   1   9
ATOM      9  C   LIG    1       25.674 -21.450   6.673  0.00  0.00    +0.049 A 
ATOM     10  N   LIG    1       26.750 -20.962   6.003  0.00  0.00    -0.259 NA
ATOM     11  C   LIG    1       27.672 -20.266   6.708  0.00  0.00    +0.111 A 
ATOM     12  C   LIG    1       27.576 -20.024   8.067  0.00  0.00    +0.020 A 
ATOM     13  C   LIG    1       26.459 -20.499   8.738  0.00  0.00    +0.003 A 
ATOM     14  C   LIG    1       25.488 -21.215   8.037  0.00  0.00    +0.024 A 
ENDBRANCH   1   9
BRANCH   1  15
ATOM     15  C   LIG    1       23.185 -21.815   6.177  0.00  0.00    +0.029 C 
BRANCH  15  16
ATOM     16  C   LIG    1       22.539 -20.968   5.064  0.00  0.00    +0.085 C 
BRANCH  16  18
ATOM     17  C   LIG    1       24.086 -19.720   3.641  0.00  0.00    +0.104 C 
ATOM     18  N   LIG    1       23.209 -19.678   4.812  0.00  0.00    -0.308 NA
ATOM     19  C   LIG    1       22.221 -18.606   4.650  0.00  0.00    +0.104 C 
ENDBRANCH  16  18
ENDBRANCH  15  16
ENDBRANCH   1  15
TORSDOF 5
ENDMDL
MODEL 9
REMARK VINA RESULT:      -6.8      2.875      5.745
REMARK  Name = *****
REMARK                            x       y       z     vdW  Elec       q    Type
REMARK                         _______ _______ _______ _____ _____    ______ ____
ROOT
ATOM      1  C   LIG    1       24.558 -23.110   7.120  0.00  0.00    +0.069 C 
ENDROOT
BRANCH   1   2
ATOM      2  C   LIG    1       25.703 -22.128   7.405  0.00  0.00    -0.038 A 
ATOM      3  C   LIG    1       25.686 -21.323   8.557  0.00  0.00    +0.006 A 
ATOM      4  C   LIG    1       26.696 -20.381   8.787  0.00  0.00    +0.020 A 
ATOM      5  C   LIG    1       27.730 -20.240   7.866  0.00  0.00    +0.041 A 
ATOM      6 CL   LIG    1       28.955 -19.056   8.128  0.00  0.00    -0.084 Cl
ATOM      7  C   LIG    1       27.776 -21.037   6.728  0.00  0.00    +0.020 A 
ATOM      8  C   LIG    1       26.767 -21.977   6.500  0.00  0.00    +0.006 A 
ENDBRANCH   1   2
BRANCH   1   9
ATOM      9  C   LIG    1       25.044 -24.401   6.462  0.00  0.00    +0.049 A 
ATOM     10  N   LIG    1       25.719 -25.297   7.227  0.00  0.00    -0.259 NA
ATOM     11  C   LIG    1       26.170 -26.425   6.631  0.00  0.00    +0.111 A 
ATOM     12  C   LIG    1       25.980 -26.715   5.292  0.00  0.00    +0.020 A 
ATOM     13  C   LIG    1       25.262 -25.810   4.524  0.00  0.00    +0.003 A 
ATOM     14  C   LIG    1       24.778 -24.640   5.111  0.00  0.00    +0.024 A 
ENDBRANCH   1   9
BRANCH   1  15
ATOM     15  C   LIG    1       23.448 -22.401   6.298  0.00  0.00    +0.029 C 
BRANCH  15  16
ATOM     16  C   LIG    1       23.381 -20.873   6.486  0.00  0.00    +0.085 C 
BRANCH  16  18
ATOM     17  C   LIG    1       24.020 -20.941   4.128  0.00  0.00    +0.104 C 
ATOM     18  N   LIG    1       23.629 -20.096   5.257  0.00  0.00    -0.308 NA
ATOM     19  C   LIG    1       22.443 -19.310   4.897  0.00  0.00    +0.104 C 
ENDBRANCH  16  18
ENDBRANCH  15  16
ENDBRANCH   1  15
TORSDOF 5
ENDMDL
