MODEL 1
REMARK VINA RESULT:      -8.0      0.000      0.000
REMARK  Name = *****
REMARK                            x       y       z     vdW  Elec       q    Type
REMARK                         _______ _______ _______ _____ _____    ______ ____
ROOT
ATOM      1  C   LIG    1       25.311 -21.253   5.523  0.00  0.00    +0.138 A 
ATOM      2  C   LIG    1       26.258 -20.234   5.197  0.00  0.00    -0.002 A 
ATOM      3  C   LIG    1       26.034 -19.311   4.022  0.00  0.00    +0.048 C 
ATOM      4  C   LIG    1       27.418 -20.077   6.007  0.00  0.00    -0.002 A 
ATOM      5  C   LIG    1       28.510 -19.099   5.655  0.00  0.00    +0.048 C 
ATOM      6  C   LIG    1       27.528 -20.852   7.171  0.00  0.00    +0.124 A 
ATOM      7  C   LIG    1       26.655 -21.905   7.412  0.00  0.00    +0.052 A 
ATOM      8  C   LIG    1       25.509 -22.098   6.629  0.00  0.00    -0.004 A 
ATOM      9  C   LIG    1       24.593 -23.196   7.080  0.00  0.00    +0.048 C 
ENDROOT
BRANCH   1  10
ATOM     10  O   LIG    1       24.084 -21.249   4.767  0.00  0.00    -0.425 OA
BRANCH  10  12
ATOM     11  C   LIG    1       22.644 -19.415   5.254  0.00  0.00    +0.136 C 
ATOM     12  C   LIG    1       22.781 -20.905   5.167  0.00  0.00    +0.309 C 
ATOM     13  O   LIG    1       21.846 -21.684   5.384  0.00  0.00    -0.251 OA
ENDBRANCH  10  12
ENDBRANCH   1  10
BRANCH   6  14
ATOM     14  O   LIG    1       28.454 -20.601   8.156  0.00  0.00    -0.489 OA
BRANCH  14  15
ATOM     15  C   LIG    1       29.574 -21.513   8.053  0.00  0.00    +0.261 C 
BRANCH  15  16
ATOM     16  C   LIG    1       30.807 -20.991   8.816  0.00  0.00    +0.166 C 
BRANCH  16  17
ATOM     17  O   LIG    1       31.928 -21.864   8.633  0.00  0.00    -0.387 OA
ATOM     18  H   LIG    1       31.741 -22.661   9.156  0.00  0.00    +0.210 HD
ENDBRANCH  16  17
BRANCH  16  19
ATOM     19  C   LIG    1       31.165 -19.564   8.368  0.00  0.00    +0.115 C 
BRANCH  19  20
ATOM     20  N   LIG    1       31.909 -18.820   9.401  0.00  0.00    -0.311 NA
ATOM     21  H   LIG    1       32.905 -18.849   9.167  0.00  0.00    +0.122 HD
BRANCH  20  22
ATOM     22  C   LIG    1       31.440 -17.433   9.535  0.00  0.00    +0.048 C 
ATOM     23  C   LIG    1       32.619 -16.474   9.735  0.00  0.00    +0.024 C 
ATOM     24  C   LIG    1       30.483 -17.301  10.724  0.00  0.00    +0.024 C 
ENDBRANCH  20  22
ENDBRANCH  19  20
ENDBRANCH  16  19
ENDBRANCH  15  16
ENDBRANCH  14  15
ENDBRANCH   6  14
TORSDOF 9
ENDMDL
MODEL 2
REMARK VINA RESULT:      -7.9      1.168      1.306
REMARK  Name = *****
REMARK                            x       y       z     vdW  Elec       q    Type
REMARK                         _______ _______ _______ _____ _____    ______ ____
ROOT
ATOM      1  C   LIG    1       25.878 -21.228   6.112  0.00  0.00    +0.138 A 
ATOM      2  C   LIG    1       26.450 -20.155   5.362  0.00  0.00    -0.002 A 
ATOM      3  C   LIG    1       25.740 -19.584   4.157  0.00  0.00    +0.048 C 
ATOM      4  C   LIG    1       27.697 -19.606   5.772  0.00  0.00    -0.002 A 
ATOM      5  C   LIG    1       28.409 -18.551   4.963  0.00  0.00    +0.048 C 
ATOM      6  C   LIG    1       28.263 -20.058   6.973  0.00  0.00    +0.124 A 
ATOM      7  C   LIG    1       27.749 -21.171   7.629  0.00  0.00    +0.052 A 
ATOM      8  C   LIG    1       26.530 -21.746   7.246  0.00  0.00    -0.004 A 
ATOM      9  C   LIG    1       26.036 -22.860   8.119  0.00  0.00    +0.048 C 
ENDROOT
BRANCH   1  10
ATOM     10  O   LIG    1       24.543 -21.624   5.744  0.00  0.00    -0.425 OA
BRANCH  10  12
ATOM     11  C   LIG    1       22.386 -20.716   5.296  0.00  0.00    +0.136 C 
ATOM     12  C   LIG    1       23.310 -21.286   6.329  0.00  0.00    +0.309 C 
ATOM     13  O   LIG    1       22.983 -21.455   7.509  0.00  0.00    -0.251 OA
ENDBRANCH  10  12
ENDBRANCH   1  10
BRANCH   6  14
ATOM     14  O   LIG    1       29.309 -19.423   7.598  0.00  0.00    -0.489 OA
BRANCH  14  15
ATOM     15  C   LIG    1       30.415 -20.334   7.804  0.00  0.00    +0.261 C 
BRANCH  15  16
ATOM     16  C   LIG    1       31.186 -20.012   9.099  0.00  0.00    +0.166 C 
BRANCH  16  17
ATOM     17  O   LIG    1       32.240 -20.958   9.315  0.00  0.00    -0.387 OA
ATOM     18  H   LIG    1       31.957 -21.519  10.055  0.00  0.00    +0.210 HD
ENDBRANCH  16  17
BRANCH  16  19
ATOM     19  C   LIG    1       31.753 -18.583   9.060  0.00  0.00    +0.115 C 
BRANCH  19  20
ATOM     20  N   LIG    1       32.045 -18.056  10.405  0.00  0.00    -0.311 NA
ATOM     21  H   LIG    1       33.027 -18.241  10.620  0.00  0.00    +0.122 HD
BRANCH  20  22
ATOM     22  C   LIG    1       31.742 -16.622  10.520  0.00  0.00    +0.048 C 
ATOM     23  C   LIG    1       32.822 -15.779   9.832  0.00  0.00    +0.024 C 
ATOM     24  C   LIG    1       31.645 -16.207  11.990  0.00  0.00    +0.024 C 
ENDBRANCH  20  22
ENDBRANCH  19  20
ENDBRANCH  16  19
ENDBRANCH  15  16
ENDBRANCH  14  15
ENDBRANCH   6  14
TORSDOF 9
ENDMDL
MODEL 3
REMARK VINA RESULT:      -7.8      1.134      2.518
REMARK  Name = *****
REMARK                            x       y       z     vdW  Elec       q    Type
REMARK                         _______ _______ _______ _____ _____    ______ ____
ROOT
ATOM      1  C   LIG    1       24.729 -20.845   5.280  0.00  0.00    +0.138 A 
ATOM      2  C   LIG    1       24.884 -21.627   6.465  0.00  0.00    -0.002 A 
ATOM      3  C   LIG    1       23.767 -22.514   6.962  0.00  0.00    +0.048 C 
ATOM      4  C   LIG    1       26.118 -21.583   7.172  0.00  0.00    -0.002 A 
ATOM      5  C   LIG    1       26.310 -22.295   8.488  0.00  0.00    +0.048 C 
ATOM      6  C   LIG    1       27.183 -20.864   6.611  0.00  0.00    +0.124 A 
ATOM      7  C   LIG    1       26.982 -20.028   5.519  0.00  0.00    +0.052 A 
ATOM      8  C   LIG    1       25.776 -20.035   4.806  0.00  0.00    -0.004 A 
ATOM      9  C   LIG    1       25.745 -19.176   3.578  0.00  0.00    +0.048 C 
ENDROOT
BRANCH   1  10
ATOM     10  O   LIG    1       23.522 -21.062   4.525  0.00  0.00    -0.425 OA
BRANCH  10  12
ATOM     11  C   LIG    1       22.312 -19.037   4.859  0.00  0.00    +0.136 C 
ATOM     12  C   LIG    1       22.235 -20.526   4.709  0.00  0.00    +0.309 C 
ATOM     13  O   LIG    1       21.169 -21.152   4.712  0.00  0.00    -0.251 OA
ENDBRANCH  10  12
ENDBRANCH   1  10
BRANCH   6  14
ATOM     14  O   LIG    1       28.479 -20.969   7.057  0.00  0.00    -0.489 OA
BRANCH  14  15
ATOM     15  C   LIG    1       29.204 -19.737   6.825  0.00  0.00    +0.261 C 
BRANCH  15  16
ATOM     16  C   LIG    1       30.349 -19.549   7.839  0.00  0.00    +0.166 C 
BRANCH  16  17
ATOM     17  O   LIG    1       31.596 -19.993   7.290  0.00  0.00    -0.387 OA
ATOM     18  H   LIG    1       32.163 -20.217   8.045  0.00  0.00    +0.210 HD
ENDBRANCH  16  17
BRANCH  16  19
ATOM     19  C   LIG    1       30.455 -18.080   8.280  0.00  0.00    +0.115 C 
BRANCH  19  20
ATOM     20  N   LIG    1       31.851 -17.653   8.485  0.00  0.00    -0.311 NA
ATOM     21  H   LIG    1       32.081 -16.946   7.782  0.00  0.00    +0.122 HD
BRANCH  20  22
ATOM     22  C   LIG    1       32.082 -17.139   9.843  0.00  0.00    +0.048 C 
ATOM     23  C   LIG    1       30.755 -16.940  10.585  0.00  0.00    +0.024 C 
ATOM     24  C   LIG    1       32.831 -15.804   9.794  0.00  0.00    +0.024 C 
ENDBRANCH  20  22
ENDBRANCH  19  20
ENDBRANCH  16  19
ENDBRANCH  15  16
ENDBRANCH  14  15
ENDBRANCH   6  14
TORSDOF 9
ENDMDL
MODEL 4
REMARK VINA RESULT:      -7.5      2.594      7.621
REMARK  Name = *****
REMARK                            x       y       z     vdW  Elec       q    Type
REMARK                         _______ _______ _______ _____ _____    ______ ____
ROOT
ATOM      1  C   LIG    1       29.595 -19.953   6.874  0.00  0.00    +0.138 A 
ATOM      2  C   LIG    1       28.941 -20.987   7.610  0.00  0.00    -0.002 A 
ATOM      3  C   LIG    1       29.676 -21.768   8.674  0.00  0.00    +0.048 C 
ATOM      4  C   LIG    1       27.570 -21.269   7.349  0.00  0.00    -0.002 A 
ATOM      5  C   LIG    1       26.852 -22.419   8.010  0.00  0.00    +0.048 C 
ATOM      6  C   LIG    1       26.876 -20.435   6.461  0.00  0.00    +0.124 A 
ATOM      7  C   LIG    1       27.552 -19.507   5.678  0.00  0.00    +0.052 A 
ATOM      8  C   LIG    1       28.904 -19.212   5.898  0.00  0.00    -0.004 A 
ATOM      9  C   LIG    1       29.470 -18.102   5.064  0.00  0.00    +0.048 C 
ENDROOT
BRANCH   1  10
ATOM     10  O   LIG    1       30.927 -19.609   7.301  0.00  0.00    -0.425 OA
BRANCH  10  12
ATOM     11  C   LIG    1       30.588 -17.745   8.746  0.00  0.00    +0.136 C 
ATOM     12  C   LIG    1       31.361 -19.004   8.493  0.00  0.00    +0.309 C 
ATOM     13  O   LIG    1       32.222 -19.436   9.268  0.00  0.00    -0.251 OA
ENDBRANCH  10  12
ENDBRANCH   1  10
BRANCH   6  14
ATOM     14  O   LIG    1       25.507 -20.442   6.337  0.00  0.00    -0.489 OA
BRANCH  14  15
ATOM     15  C   LIG    1       25.115 -20.370   4.945  0.00  0.00    +0.261 C 
BRANCH  15  16
ATOM     16  C   LIG    1       23.905 -21.274   4.645  0.00  0.00    +0.166 C 
BRANCH  16  17
ATOM     17  O   LIG    1       23.853 -21.614   3.254  0.00  0.00    -0.387 OA
ATOM     18  H   LIG    1       24.740 -21.932   3.017  0.00  0.00    +0.210 HD
ENDBRANCH  16  17
BRANCH  16  19
ATOM     19  C   LIG    1       23.946 -22.549   5.503  0.00  0.00    +0.115 C 
BRANCH  19  20
ATOM     20  N   LIG    1       25.056 -23.444   5.129  0.00  0.00    -0.311 NA
ATOM     21  H   LIG    1       25.912 -23.101   5.571  0.00  0.00    +0.122 HD
BRANCH  20  22
ATOM     22  C   LIG    1       24.794 -24.842   5.501  0.00  0.00    +0.048 C 
ATOM     23  C   LIG    1       23.643 -24.933   6.509  0.00  0.00    +0.024 C 
ATOM     24  C   LIG    1       26.045 -25.480   6.113  0.00  0.00    +0.024 C 
ENDBRANCH  20  22
ENDBRANCH  19  20
ENDBRANCH  16  19
ENDBRANCH  15  16
ENDBRANCH  14  15
ENDBRANCH   6  14
TORSDOF 9
ENDMDL
MODEL 5
REMARK VINA RESULT:      -7.5      1.521      2.798
REMARK  Name = *****
REMARK                            x       y       z     vdW  Elec       q    Type
REMARK                         _______ _______ _______ _____ _____    ______ ____
ROOT
ATOM      1  C   LIG    1       26.439 -20.076   5.313  0.00  0.00    +0.138 A 
ATOM      2  C   LIG    1       25.827 -21.040   6.170  0.00  0.00    -0.002 A 
ATOM      3  C   LIG    1       24.502 -21.670   5.810  0.00  0.00    +0.048 C 
ATOM      4  C   LIG    1       26.488 -21.424   7.371  0.00  0.00    -0.002 A 
ATOM      5  C   LIG    1       25.846 -22.350   8.374  0.00  0.00    +0.048 C 
ATOM      6  C   LIG    1       27.779 -20.931   7.609  0.00  0.00    +0.124 A 
ATOM      7  C   LIG    1       28.311 -19.918   6.821  0.00  0.00    +0.052 A 
ATOM      8  C   LIG    1       27.682 -19.505   5.639  0.00  0.00    -0.004 A 
ATOM      9  C   LIG    1       28.432 -18.493   4.825  0.00  0.00    +0.048 C 
ENDROOT
BRANCH   1  10
ATOM     10  O   LIG    1       25.801 -19.857   4.040  0.00  0.00    -0.425 OA
BRANCH  10  12
ATOM     11  C   LIG    1       23.658 -18.877   3.689  0.00  0.00    +0.136 C 
ATOM     12  C   LIG    1       25.141 -18.717   3.549  0.00  0.00    +0.309 C 
ATOM     13  O   LIG    1       25.671 -17.695   3.097  0.00  0.00    -0.251 OA
ENDBRANCH  10  12
ENDBRANCH   1  10
BRANCH   6  14
ATOM     14  O   LIG    1       28.609 -21.435   8.582  0.00  0.00    -0.489 OA
BRANCH  14  15
ATOM     15  C   LIG    1       29.935 -21.676   8.052  0.00  0.00    +0.261 C 
BRANCH  15  16
ATOM     16  C   LIG    1       31.030 -21.343   9.083  0.00  0.00    +0.166 C 
BRANCH  16  17
ATOM     17  O   LIG    1       32.206 -22.128   8.851  0.00  0.00    -0.387 OA
ATOM     18  H   LIG    1       31.915 -22.922   8.372  0.00  0.00    +0.210 HD
ENDBRANCH  16  17
BRANCH  16  19
ATOM     19  C   LIG    1       31.376 -19.845   9.052  0.00  0.00    +0.115 C 
BRANCH  19  20
ATOM     20  N   LIG    1       30.309 -19.009   9.631  0.00  0.00    -0.311 NA
ATOM     21  H   LIG    1       30.163 -19.296  10.602  0.00  0.00    +0.122 HD
BRANCH  20  22
ATOM     22  C   LIG    1       30.618 -17.574   9.547  0.00  0.00    +0.048 C 
ATOM     23  C   LIG    1       31.990 -17.347   8.902  0.00  0.00    +0.024 C 
ATOM     24  C   LIG    1       30.611 -16.939  10.941  0.00  0.00    +0.024 C 
ENDBRANCH  20  22
ENDBRANCH  19  20
ENDBRANCH  16  19
ENDBRANCH  15  16
ENDBRANCH  14  15
ENDBRANCH   6  14
TORSDOF 9
ENDMDL
MODEL 6
REMARK VINA RESULT:      -7.5      2.960      7.482
REMARK  Name = *****
REMARK                            x       y       z     vdW  Elec       q    Type
REMARK                         _______ _______ _______ _____ _____    ______ ____
ROOT
ATOM      1  C   LIG    1       29.223 -20.022   6.907  0.00  0.00    +0.138 A 
ATOM      2  C   LIG    1       28.283 -19.562   5.935  0.00  0.00    -0.002 A 
ATOM      3  C   LIG    1       28.598 -18.378   5.050  0.00  0.00    +0.048 C 
ATOM      4  C   LIG    1       27.043 -20.244   5.787  0.00  0.00    -0.002 A 
ATOM      5  C   LIG    1       25.963 -19.744   4.860  0.00  0.00    +0.048 C 
ATOM      6  C   LIG    1       26.838 -21.422   6.519  0.00  0.00    +0.124 A 
ATOM      7  C   LIG    1       27.714 -21.793   7.533  0.00  0.00    +0.052 A 
ATOM      8  C   LIG    1       28.938 -21.136   7.717  0.00  0.00    -0.004 A 
ATOM      9  C   LIG    1       29.837 -21.722   8.764  0.00  0.00    +0.048 C 
ENDROOT
BRANCH   1  10
ATOM     10  O   LIG    1       30.519 -19.393   6.891  0.00  0.00    -0.425 OA
BRANCH  10  12
ATOM     11  C   LIG    1       30.059 -17.944   8.726  0.00  0.00    +0.136 C 
ATOM     12  C   LIG    1       31.107 -18.519   7.823  0.00  0.00    +0.309 C 
ATOM     13  O   LIG    1       32.312 -18.268   7.939  0.00  0.00    -0.251 OA
ENDBRANCH  10  12
ENDBRANCH   1  10
BRANCH   6  14
ATOM     14  O   LIG    1       25.810 -22.298   6.263  0.00  0.00    -0.489 OA
BRANCH  14  15
ATOM     15  C   LIG    1       24.854 -22.301   7.350  0.00  0.00    +0.261 C 
BRANCH  15  16
ATOM     16  C   LIG    1       23.503 -22.904   6.920  0.00  0.00    +0.166 C 
BRANCH  16  17
ATOM     17  O   LIG    1       22.971 -22.209   5.786  0.00  0.00    -0.387 OA
ATOM     18  H   LIG    1       22.173 -21.750   6.096  0.00  0.00    +0.210 HD
ENDBRANCH  16  17
BRANCH  16  19
ATOM     19  C   LIG    1       23.646 -24.403   6.606  0.00  0.00    +0.115 C 
BRANCH  19  20
ATOM     20  N   LIG    1       24.278 -24.646   5.296  0.00  0.00    -0.311 NA
ATOM     21  H   LIG    1       24.831 -23.823   5.045  0.00  0.00    +0.122 HD
BRANCH  20  22
ATOM     22  C   LIG    1       25.109 -25.859   5.295  0.00  0.00    +0.048 C 
ATOM     23  C   LIG    1       24.277 -27.092   5.668  0.00  0.00    +0.024 C 
ATOM     24  C   LIG    1       26.267 -25.720   6.288  0.00  0.00    +0.024 C 
ENDBRANCH  20  22
ENDBRANCH  19  20
ENDBRANCH  16  19
ENDBRANCH  15  16
ENDBRANCH  14  15
ENDBRANCH   6  14
TORSDOF 9
ENDMDL
MODEL 7
REMARK VINA RESULT:      -7.2      4.332      7.579
REMARK  Name = *****
REMARK                            x       y       z     vdW  Elec       q    Type
REMARK                         _______ _______ _______ _____ _____    ______ ____
ROOT
ATOM      1  C   LIG    1       24.871 -20.711   5.806  0.00  0.00    +0.138 A 
ATOM      2  C   LIG    1       23.722 -21.554   5.907  0.00  0.00    -0.002 A 
ATOM      3  C   LIG    1       22.390 -21.125   5.338  0.00  0.00    +0.048 C 
ATOM      4  C   LIG    1       23.844 -22.825   6.537  0.00  0.00    -0.002 A 
ATOM      5  C   LIG    1       22.650 -23.714   6.777  0.00  0.00    +0.048 C 
ATOM      6  C   LIG    1       25.120 -23.256   6.927  0.00  0.00    +0.124 A 
ATOM      7  C   LIG    1       26.202 -22.384   6.917  0.00  0.00    +0.052 A 
ATOM      8  C   LIG    1       26.115 -21.120   6.317  0.00  0.00    -0.004 A 
ATOM      9  C   LIG    1       27.393 -20.337   6.269  0.00  0.00    +0.048 C 
ENDROOT
BRANCH   1  10
ATOM     10  O   LIG    1       24.719 -19.517   5.014  0.00  0.00    -0.425 OA
BRANCH  10  12
ATOM     11  C   LIG    1       25.626 -18.061   3.361  0.00  0.00    +0.136 C 
ATOM     12  C   LIG    1       24.874 -19.329   3.630  0.00  0.00    +0.309 C 
ATOM     13  O   LIG    1       24.497 -20.095   2.735  0.00  0.00    -0.251 OA
ENDBRANCH  10  12
ENDBRANCH   1  10
BRANCH   6  14
ATOM     14  O   LIG    1       25.397 -24.552   7.293  0.00  0.00    -0.489 OA
BRANCH  14  15
ATOM     15  C   LIG    1       26.164 -25.224   6.264  0.00  0.00    +0.261 C 
BRANCH  15  16
ATOM     16  C   LIG    1       25.260 -26.028   5.311  0.00  0.00    +0.166 C 
BRANCH  16  17
ATOM     17  O   LIG    1       26.035 -26.670   4.292  0.00  0.00    -0.387 OA
ATOM     18  H   LIG    1       25.501 -26.640   3.481  0.00  0.00    +0.210 HD
ENDBRANCH  16  17
BRANCH  16  19
ATOM     19  C   LIG    1       24.433 -27.068   6.086  0.00  0.00    +0.115 C 
BRANCH  19  20
ATOM     20  N   LIG    1       25.243 -27.816   7.064  0.00  0.00    -0.311 NA
ATOM     21  H   LIG    1       25.054 -27.440   7.996  0.00  0.00    +0.122 HD
BRANCH  20  22
ATOM     22  C   LIG    1       24.981 -29.262   7.015  0.00  0.00    +0.048 C 
ATOM     23  C   LIG    1       24.145 -29.624   5.782  0.00  0.00    +0.024 C 
ATOM     24  C   LIG    1       24.238 -29.717   8.274  0.00  0.00    +0.024 C 
ENDBRANCH  20  22
ENDBRANCH  19  20
ENDBRANCH  16  19
ENDBRANCH  15  16
ENDBRANCH  14  15
ENDBRANCH   6  14
TORSDOF 9
ENDMDL
MODEL 8
REMARK VINA RESULT:      -7.0      3.459      7.735
REMARK  Name = *****
REMARK                            x       y       z     vdW  Elec       q    Type
REMARK                         _______ _______ _______ _____ _____    ______ ____
ROOT
ATOM      1  C   LIG    1       29.156 -20.073   6.866  0.00  0.00    +0.138 A 
ATOM      2  C   LIG    1       28.181 -19.644   5.914  0.00  0.00    -0.002 A 
ATOM      3  C   LIG    1       28.451 -18.473   4.999  0.00  0.00    +0.048 C 
ATOM      4  C   LIG    1       26.946 -20.345   5.817  0.00  0.00    -0.002 A 
ATOM      5  C   LIG    1       25.831 -19.878   4.915  0.00  0.00    +0.048 C 
ATOM      6  C   LIG    1       26.781 -21.512   6.577  0.00  0.00    +0.124 A 
ATOM      7  C   LIG    1       27.693 -21.852   7.569  0.00  0.00    +0.052 A 
ATOM      8  C   LIG    1       28.912 -21.176   7.703  0.00  0.00    -0.004 A 
ATOM      9  C   LIG    1       29.851 -21.730   8.733  0.00  0.00    +0.048 C 
ENDROOT
BRANCH   1  10
ATOM     10  O   LIG    1       30.442 -19.427   6.798  0.00  0.00    -0.425 OA
BRANCH  10  12
ATOM     11  C   LIG    1       30.060 -17.966   8.641  0.00  0.00    +0.136 C 
ATOM     12  C   LIG    1       31.075 -18.582   7.726  0.00  0.00    +0.309 C 
ATOM     13  O   LIG    1       32.291 -18.383   7.832  0.00  0.00    -0.251 OA
ENDBRANCH  10  12
ENDBRANCH   1  10
BRANCH   6  14
ATOM     14  O   LIG    1       25.758 -22.407   6.369  0.00  0.00    -0.489 OA
BRANCH  14  15
ATOM     15  C   LIG    1       25.986 -23.630   7.109  0.00  0.00    +0.261 C 
BRANCH  15  16
ATOM     16  C   LIG    1       25.267 -24.831   6.464  0.00  0.00    +0.166 C 
BRANCH  16  17
ATOM     17  O   LIG    1       24.533 -24.423   5.304  0.00  0.00    -0.387 OA
ATOM     18  H   LIG    1       25.036 -24.741   4.536  0.00  0.00    +0.210 HD
ENDBRANCH  16  17
BRANCH  16  19
ATOM     19  C   LIG    1       26.268 -25.939   6.099  0.00  0.00    +0.115 C 
BRANCH  19  20
ATOM     20  N   LIG    1       26.105 -27.143   6.934  0.00  0.00    -0.311 NA
ATOM     21  H   LIG    1       26.115 -26.860   7.916  0.00  0.00    +0.122 HD
BRANCH  20  22
ATOM     22  C   LIG    1       24.876 -27.882   6.611  0.00  0.00    +0.048 C 
ATOM     23  C   LIG    1       24.765 -29.155   7.458  0.00  0.00    +0.024 C 
ATOM     24  C   LIG    1       24.852 -28.266   5.128  0.00  0.00    +0.024 C 
ENDBRANCH  20  22
ENDBRANCH  19  20
ENDBRANCH  16  19
ENDBRANCH  15  16
ENDBRANCH  14  15
ENDBRANCH   6  14
TORSDOF 9
ENDMDL
MODEL 9
REMARK VINA RESULT:      -6.9      2.676      7.099
REMARK  Name = *****
REMARK                            x       y       z     vdW  Elec       q    Type
REMARK                         _______ _______ _______ _____ _____    ______ ____
ROOT
ATOM      1  C   LIG    1       29.603 -20.041   7.270  0.00  0.00    +0.138 A 
ATOM      2  C   LIG    1       28.789 -19.509   6.223  0.00  0.00    -0.002 A 
ATOM      3  C   LIG    1       29.240 -18.310   5.422  0.00  0.00    +0.048 C 
ATOM      4  C   LIG    1       27.546 -20.133   5.922  0.00  0.00    -0.002 A 
ATOM      5  C   LIG    1       26.589 -19.557   4.908  0.00  0.00    +0.048 C 
ATOM      6  C   LIG    1       27.221 -21.325   6.583  0.00  0.00    +0.124 A 
ATOM      7  C   LIG    1       27.971 -21.767   7.667  0.00  0.00    +0.052 A 
ATOM      8  C   LIG    1       29.193 -21.170   8.002  0.00  0.00    -0.004 A 
ATOM      9  C   LIG    1       29.954 -21.828   9.113  0.00  0.00    +0.048 C 
ENDROOT
BRANCH   1  10
ATOM     10  O   LIG    1       30.917 -19.467   7.412  0.00  0.00    -0.425 OA
BRANCH  10  12
ATOM     11  C   LIG    1       30.986 -17.471   8.712  0.00  0.00    +0.136 C 
ATOM     12  C   LIG    1       31.518 -18.860   8.528  0.00  0.00    +0.309 C 
ATOM     13  O   LIG    1       32.338 -19.378   9.296  0.00  0.00    -0.251 OA
ENDBRANCH  10  12
ENDBRANCH   1  10
BRANCH   6  14
ATOM     14  O   LIG    1       26.193 -22.148   6.189  0.00  0.00    -0.489 OA
BRANCH  14  15
ATOM     15  C   LIG    1       25.506 -22.701   7.338  0.00  0.00    +0.261 C 
BRANCH  15  16
ATOM     16  C   LIG    1       24.190 -21.956   7.629  0.00  0.00    +0.166 C 
BRANCH  16  17
ATOM     17  O   LIG    1       24.445 -20.700   8.269  0.00  0.00    -0.387 OA
ATOM     18  H   LIG    1       23.690 -20.534   8.858  0.00  0.00    +0.210 HD
ENDBRANCH  16  17
BRANCH  16  19
ATOM     19  C   LIG    1       23.383 -21.741   6.337  0.00  0.00    +0.115 C 
BRANCH  19  20
ATOM     20  N   LIG    1       22.894 -20.357   6.202  0.00  0.00    -0.311 NA
ATOM     21  H   LIG    1       23.262 -19.806   6.982  0.00  0.00    +0.122 HD
BRANCH  20  22
ATOM     22  C   LIG    1       23.266 -19.758   4.912  0.00  0.00    +0.048 C 
ATOM     23  C   LIG    1       22.162 -18.824   4.405  0.00  0.00    +0.024 C 
ATOM     24  C   LIG    1       23.518 -20.847   3.866  0.00  0.00    +0.024 C 
ENDBRANCH  20  22
ENDBRANCH  19  20
ENDBRANCH  16  19
ENDBRANCH  15  16
ENDBRANCH  14  15
ENDBRANCH   6  14
TORSDOF 9
ENDMDL
