MODEL 1
REMARK VINA RESULT:      -7.0      0.000      0.000
REMARK  Name = *****
REMARK                            x       y       z     vdW  Elec       q    Type
REMARK                         _______ _______ _______ _____ _____    ______ ____
ROOT
ATOM      1  C   LIG    1       29.553 -19.004   8.331  0.00  0.00    +0.040 C 
ATOM      2  C   LIG    1       30.289 -20.248   7.815  0.00  0.00    +0.116 C 
ENDROOT
BRANCH   2   3
ATOM      3  N   LIG    1       31.362 -19.726   6.909  0.00  0.00    -0.316 NA
ATOM      4  H   LIG    1       31.129 -19.982   5.948  0.00  0.00    +0.119 HD
ATOM      5  H   LIG    1       31.288 -18.702   6.908  0.00  0.00    +0.119 HD
ENDBRANCH   2   3
BRANCH   2   6
ATOM      6  C   LIG    1       30.975 -21.047   8.952  0.00  0.00    +0.325 C 
ATOM      7  O   LIG    1       30.420 -21.982   9.529  0.00  0.00    -0.249 OA
BRANCH   6   8
ATOM      8  O   LIG    1       32.217 -20.656   9.301  0.00  0.00    -0.479 OA
ATOM      9  H   LIG    1       32.261 -19.893   9.914  0.00  0.00    +0.295 HD
ENDBRANCH   6   8
ENDBRANCH   2   6
BRANCH   2  10
ATOM     10  C   LIG    1       29.396 -21.184   6.964  0.00  0.00    +0.068 C 
BRANCH  10  11
ATOM     11  C   LIG    1       27.904 -21.030   7.160  0.00  0.00    -0.045 A 
ATOM     12  C   LIG    1       27.297 -21.436   8.356  0.00  0.00    +0.007 A 
ATOM     13  C   LIG    1       25.918 -21.316   8.524  0.00  0.00    +0.045 A 
ATOM     14  C   LIG    1       25.142 -20.782   7.503  0.00  0.00    +0.117 A 
ATOM     15  C   LIG    1       25.727 -20.351   6.317  0.00  0.00    +0.045 A 
ATOM     16  C   LIG    1       27.107 -20.474   6.147  0.00  0.00    +0.007 A 
BRANCH  14  17
ATOM     17  O   LIG    1       23.797 -20.703   7.703  0.00  0.00    -0.507 OA
ATOM     18  H   LIG    1       23.345 -21.100   6.940  0.00  0.00    +0.292 HD
ENDBRANCH  14  17
ENDBRANCH  10  11
ENDBRANCH   2  10
TORSDOF 6
ENDMDL
MODEL 2
REMARK VINA RESULT:      -6.7      5.295      6.725
REMARK  Name = *****
REMARK                            x       y       z     vdW  Elec       q    Type
REMARK                         _______ _______ _______ _____ _____    ______ ____
ROOT
ATOM      1  C   LIG    1       22.461 -19.259   5.274  0.00  0.00    +0.040 C 
ATOM      2  C   LIG    1       22.904 -20.728   5.281  0.00  0.00    +0.116 C 
ENDROOT
BRANCH   2   3
ATOM      3  N   LIG    1       21.711 -21.503   4.812  0.00  0.00    -0.316 NA
ATOM      4  H   LIG    1       21.253 -20.975   4.065  0.00  0.00    +0.119 HD
ATOM      5  H   LIG    1       22.061 -22.340   4.332  0.00  0.00    +0.119 HD
ENDBRANCH   2   3
BRANCH   2   6
ATOM      6  C   LIG    1       24.066 -21.003   4.294  0.00  0.00    +0.325 C 
ATOM      7  O   LIG    1       25.130 -20.384   4.339  0.00  0.00    -0.249 OA
BRANCH   6   8
ATOM      8  O   LIG    1       23.854 -21.949   3.358  0.00  0.00    -0.479 OA
ATOM      9  H   LIG    1       22.977 -22.384   3.391  0.00  0.00    +0.295 HD
ENDBRANCH   6   8
ENDBRANCH   2   6
BRANCH   2  10
ATOM     10  C   LIG    1       23.260 -21.259   6.691  0.00  0.00    +0.068 C 
BRANCH  10  11
ATOM     11  C   LIG    1       23.970 -22.594   6.733  0.00  0.00    -0.045 A 
ATOM     12  C   LIG    1       25.344 -22.662   7.005  0.00  0.00    +0.007 A 
ATOM     13  C   LIG    1       26.001 -23.891   7.018  0.00  0.00    +0.045 A 
ATOM     14  C   LIG    1       25.289 -25.058   6.766  0.00  0.00    +0.117 A 
ATOM     15  C   LIG    1       23.921 -25.015   6.517  0.00  0.00    +0.045 A 
ATOM     16  C   LIG    1       23.263 -23.784   6.501  0.00  0.00    +0.007 A 
BRANCH  14  17
ATOM     17  O   LIG    1       25.976 -26.234   6.769  0.00  0.00    -0.507 OA
ATOM     18  H   LIG    1       26.535 -26.265   7.563  0.00  0.00    +0.292 HD
ENDBRANCH  14  17
ENDBRANCH  10  11
ENDBRANCH   2  10
TORSDOF 6
ENDMDL
MODEL 3
REMARK VINA RESULT:      -6.6      2.225      2.884
REMARK  Name = *****
REMARK                            x       y       z     vdW  Elec       q    Type
REMARK                         _______ _______ _______ _____ _____    ______ ____
ROOT
ATOM      1  C   LIG    1       27.780 -19.909   5.756  0.00  0.00    +0.040 C 
ATOM      2  C   LIG    1       28.387 -20.228   7.128  0.00  0.00    +0.116 C 
ENDROOT
BRANCH   2   3
ATOM      3  N   LIG    1       29.211 -21.461   6.920  0.00  0.00    -0.316 NA
ATOM      4  H   LIG    1       28.697 -22.097   6.307  0.00  0.00    +0.119 HD
ATOM      5  H   LIG    1       30.025 -21.192   6.356  0.00  0.00    +0.119 HD
ENDBRANCH   2   3
BRANCH   2   6
ATOM      6  C   LIG    1       29.329 -19.108   7.636  0.00  0.00    +0.325 C 
ATOM      7  O   LIG    1       29.509 -18.890   8.834  0.00  0.00    -0.249 OA
BRANCH   6   8
ATOM      8  O   LIG    1       29.938 -18.357   6.696  0.00  0.00    -0.479 OA
ATOM      9  H   LIG    1       29.410 -18.183   5.890  0.00  0.00    +0.295 HD
ENDBRANCH   6   8
ENDBRANCH   2   6
BRANCH   2  10
ATOM     10  C   LIG    1       27.330 -20.569   8.207  0.00  0.00    +0.068 C 
BRANCH  10  11
ATOM     11  C   LIG    1       26.136 -21.366   7.731  0.00  0.00    -0.045 A 
ATOM     12  C   LIG    1       24.886 -20.751   7.573  0.00  0.00    +0.007 A 
ATOM     13  C   LIG    1       23.781 -21.494   7.159  0.00  0.00    +0.045 A 
ATOM     14  C   LIG    1       23.921 -22.850   6.892  0.00  0.00    +0.117 A 
ATOM     15  C   LIG    1       25.157 -23.476   7.020  0.00  0.00    +0.045 A 
ATOM     16  C   LIG    1       26.263 -22.733   7.438  0.00  0.00    +0.007 A 
BRANCH  14  17
ATOM     17  O   LIG    1       22.811 -23.540   6.509  0.00  0.00    -0.507 OA
ATOM     18  H   LIG    1       22.027 -23.093   6.869  0.00  0.00    +0.292 HD
ENDBRANCH  14  17
ENDBRANCH  10  11
ENDBRANCH   2  10
TORSDOF 6
ENDMDL
MODEL 4
REMARK VINA RESULT:      -6.6      2.221      2.797
REMARK  Name = *****
REMARK                            x       y       z     vdW  Elec       q    Type
REMARK                         _______ _______ _______ _____ _____    ______ ____
ROOT
ATOM      1  C   LIG    1       27.756 -19.916   5.772  0.00  0.00    +0.040 C 
ATOM      2  C   LIG    1       28.366 -20.222   7.146  0.00  0.00    +0.116 C 
ENDROOT
BRANCH   2   3
ATOM      3  N   LIG    1       29.178 -21.466   6.951  0.00  0.00    -0.316 NA
ATOM      4  H   LIG    1       29.547 -21.760   7.857  0.00  0.00    +0.119 HD
ATOM      5  H   LIG    1       28.526 -22.219   6.703  0.00  0.00    +0.119 HD
ENDBRANCH   2   3
BRANCH   2   6
ATOM      6  C   LIG    1       29.322 -19.104   7.635  0.00  0.00    +0.325 C 
ATOM      7  O   LIG    1       29.504 -18.868   8.829  0.00  0.00    -0.249 OA
BRANCH   6   8
ATOM      8  O   LIG    1       29.939 -18.377   6.683  0.00  0.00    -0.479 OA
ATOM      9  H   LIG    1       30.866 -18.631   6.494  0.00  0.00    +0.295 HD
ENDBRANCH   6   8
ENDBRANCH   2   6
BRANCH   2  10
ATOM     10  C   LIG    1       27.311 -20.538   8.234  0.00  0.00    +0.068 C 
BRANCH  10  11
ATOM     11  C   LIG    1       26.112 -21.339   7.775  0.00  0.00    -0.045 A 
ATOM     12  C   LIG    1       26.230 -22.710   7.511  0.00  0.00    +0.007 A 
ATOM     13  C   LIG    1       25.130 -23.440   7.064  0.00  0.00    +0.045 A 
ATOM     14  C   LIG    1       23.906 -22.806   6.887  0.00  0.00    +0.117 A 
ATOM     15  C   LIG    1       23.760 -21.451   7.166  0.00  0.00    +0.045 A 
ATOM     16  C   LIG    1       24.863 -20.719   7.611  0.00  0.00    +0.007 A 
BRANCH  14  17
ATOM     17  O   LIG    1       22.863 -23.554   6.430  0.00  0.00    -0.507 OA
ATOM     18  H   LIG    1       23.094 -24.494   6.515  0.00  0.00    +0.292 HD
ENDBRANCH  14  17
ENDBRANCH  10  11
ENDBRANCH   2  10
TORSDOF 6
ENDMDL
MODEL 5
REMARK VINA RESULT:      -6.6      5.062      6.342
REMARK  Name = *****
REMARK                            x       y       z     vdW  Elec       q    Type
REMARK                         _______ _______ _______ _____ _____    ______ ____
ROOT
ATOM      1  C   LIG    1       25.847 -23.600   6.968  0.00  0.00    +0.040 C 
ATOM      2  C   LIG    1       24.537 -23.326   6.220  0.00  0.00    +0.116 C 
ENDROOT
BRANCH   2   3
ATOM      3  N   LIG    1       24.881 -23.436   4.766  0.00  0.00    -0.316 NA
ATOM      4  H   LIG    1       24.105 -23.892   4.281  0.00  0.00    +0.119 HD
ATOM      5  H   LIG    1       24.877 -22.485   4.379  0.00  0.00    +0.119 HD
ENDBRANCH   2   3
BRANCH   2   6
ATOM      6  C   LIG    1       23.444 -24.380   6.529  0.00  0.00    +0.325 C 
ATOM      7  O   LIG    1       23.680 -25.588   6.551  0.00  0.00    -0.249 OA
BRANCH   6   8
ATOM      8  O   LIG    1       22.200 -23.913   6.757  0.00  0.00    -0.479 OA
ATOM      9  H   LIG    1       21.478 -24.564   6.642  0.00  0.00    +0.295 HD
ENDBRANCH   6   8
ENDBRANCH   2   6
BRANCH   2  10
ATOM     10  C   LIG    1       23.983 -21.897   6.446  0.00  0.00    +0.068 C 
BRANCH  10  11
ATOM     11  C   LIG    1       24.515 -20.830   5.514  0.00  0.00    -0.045 A 
ATOM     12  C   LIG    1       23.661 -20.186   4.608  0.00  0.00    +0.007 A 
ATOM     13  C   LIG    1       24.158 -19.222   3.734  0.00  0.00    +0.045 A 
ATOM     14  C   LIG    1       25.507 -18.890   3.766  0.00  0.00    +0.117 A 
ATOM     15  C   LIG    1       26.367 -19.499   4.673  0.00  0.00    +0.045 A 
ATOM     16  C   LIG    1       25.870 -20.468   5.547  0.00  0.00    +0.007 A 
BRANCH  14  17
ATOM     17  O   LIG    1       25.953 -17.956   2.879  0.00  0.00    -0.507 OA
ATOM     18  H   LIG    1       25.989 -17.095   3.327  0.00  0.00    +0.292 HD
ENDBRANCH  14  17
ENDBRANCH  10  11
ENDBRANCH   2  10
TORSDOF 6
ENDMDL
MODEL 6
REMARK VINA RESULT:      -6.5      3.309      6.090
REMARK  Name = *****
REMARK                            x       y       z     vdW  Elec       q    Type
REMARK                         _______ _______ _______ _____ _____    ______ ____
ROOT
ATOM      1  C   LIG    1       31.276 -20.238   9.198  0.00  0.00    +0.040 C 
ATOM      2  C   LIG    1       30.501 -19.617   8.028  0.00  0.00    +0.116 C 
ENDROOT
BRANCH   2   3
ATOM      3  N   LIG    1       31.434 -19.680   6.858  0.00  0.00    -0.316 NA
ATOM      4  H   LIG    1       31.244 -20.538   6.336  0.00  0.00    +0.119 HD
ATOM      5  H   LIG    1       31.156 -18.939   6.206  0.00  0.00    +0.119 HD
ENDBRANCH   2   3
BRANCH   2   6
ATOM      6  C   LIG    1       29.228 -20.421   7.664  0.00  0.00    +0.325 C 
ATOM      7  O   LIG    1       28.185 -20.334   8.312  0.00  0.00    -0.249 OA
BRANCH   6   8
ATOM      8  O   LIG    1       29.317 -21.247   6.604  0.00  0.00    -0.479 OA
ATOM      9  H   LIG    1       28.993 -22.160   6.752  0.00  0.00    +0.295 HD
ENDBRANCH   6   8
ENDBRANCH   2   6
BRANCH   2  10
ATOM     10  C   LIG    1       30.150 -18.124   8.245  0.00  0.00    +0.068 C 
BRANCH  10  11
ATOM     11  C   LIG    1       30.935 -17.412   9.323  0.00  0.00    -0.045 A 
ATOM     12  C   LIG    1       30.400 -17.256  10.609  0.00  0.00    +0.007 A 
ATOM     13  C   LIG    1       31.115 -16.577  11.594  0.00  0.00    +0.045 A 
ATOM     14  C   LIG    1       32.371 -16.057  11.302  0.00  0.00    +0.117 A 
ATOM     15  C   LIG    1       32.930 -16.220  10.039  0.00  0.00    +0.045 A 
ATOM     16  C   LIG    1       32.213 -16.898   9.051  0.00  0.00    +0.007 A 
BRANCH  14  17
ATOM     17  O   LIG    1       33.024 -15.384  12.289  0.00  0.00    -0.507 OA
ATOM     18  H   LIG    1       33.213 -14.483  11.978  0.00  0.00    +0.292 HD
ENDBRANCH  14  17
ENDBRANCH  10  11
ENDBRANCH   2  10
TORSDOF 6
ENDMDL
MODEL 7
REMARK VINA RESULT:      -6.5      4.391      5.991
REMARK  Name = *****
REMARK                            x       y       z     vdW  Elec       q    Type
REMARK                         _______ _______ _______ _____ _____    ______ ____
ROOT
ATOM      1  C   LIG    1       23.220 -20.334   5.355  0.00  0.00    +0.040 C 
ATOM      2  C   LIG    1       24.357 -21.324   5.641  0.00  0.00    +0.116 C 
ENDROOT
BRANCH   2   3
ATOM      3  N   LIG    1       24.456 -22.177   4.413  0.00  0.00    -0.316 NA
ATOM      4  H   LIG    1       23.511 -22.408   4.100  0.00  0.00    +0.119 HD
ATOM      5  H   LIG    1       24.820 -21.585   3.659  0.00  0.00    +0.119 HD
ENDBRANCH   2   3
BRANCH   2   6
ATOM      6  C   LIG    1       25.722 -20.620   5.841  0.00  0.00    +0.325 C 
ATOM      7  O   LIG    1       26.172 -20.357   6.956  0.00  0.00    -0.249 OA
BRANCH   6   8
ATOM      8  O   LIG    1       26.399 -20.285   4.724  0.00  0.00    -0.479 OA
ATOM      9  H   LIG    1       26.576 -21.020   4.102  0.00  0.00    +0.295 HD
ENDBRANCH   6   8
ENDBRANCH   2   6
BRANCH   2  10
ATOM     10  C   LIG    1       24.064 -22.274   6.828  0.00  0.00    +0.068 C 
BRANCH  10  11
ATOM     11  C   LIG    1       24.536 -23.701   6.662  0.00  0.00    -0.045 A 
ATOM     12  C   LIG    1       25.885 -24.033   6.851  0.00  0.00    +0.007 A 
ATOM     13  C   LIG    1       26.321 -25.344   6.672  0.00  0.00    +0.045 A 
ATOM     14  C   LIG    1       25.412 -26.331   6.311  0.00  0.00    +0.117 A 
ATOM     15  C   LIG    1       24.066 -26.030   6.141  0.00  0.00    +0.045 A 
ATOM     16  C   LIG    1       23.628 -24.715   6.317  0.00  0.00    +0.007 A 
BRANCH  14  17
ATOM     17  O   LIG    1       25.887 -27.595   6.128  0.00  0.00    -0.507 OA
ATOM     18  H   LIG    1       25.537 -28.164   6.833  0.00  0.00    +0.292 HD
ENDBRANCH  14  17
ENDBRANCH  10  11
ENDBRANCH   2  10
TORSDOF 6
ENDMDL
MODEL 8
REMARK VINA RESULT:      -6.4      1.717      2.449
REMARK  Name = *****
REMARK                            x       y       z     vdW  Elec       q    Type
REMARK                         _______ _______ _______ _____ _____    ______ ____
ROOT
ATOM      1  C   LIG    1       30.559 -21.190   8.544  0.00  0.00    +0.040 C 
ATOM      2  C   LIG    1       29.818 -20.186   7.652  0.00  0.00    +0.116 C 
ENDROOT
BRANCH   2   3
ATOM      3  N   LIG    1       28.895 -19.447   8.572  0.00  0.00    -0.316 NA
ATOM      4  H   LIG    1       28.778 -19.995   9.427  0.00  0.00    +0.119 HD
ATOM      5  H   LIG    1       29.391 -18.608   8.893  0.00  0.00    +0.119 HD
ENDBRANCH   2   3
BRANCH   2   6
ATOM      6  C   LIG    1       30.770 -19.150   7.003  0.00  0.00    +0.325 C 
ATOM      7  O   LIG    1       31.898 -18.927   7.441  0.00  0.00    -0.249 OA
BRANCH   6   8
ATOM      8  O   LIG    1       30.296 -18.479   5.935  0.00  0.00    -0.479 OA
ATOM      9  H   LIG    1       29.331 -18.311   5.937  0.00  0.00    +0.295 HD
ENDBRANCH   6   8
ENDBRANCH   2   6
BRANCH   2  10
ATOM     10  C   LIG    1       28.935 -20.855   6.570  0.00  0.00    +0.068 C 
BRANCH  10  11
ATOM     11  C   LIG    1       27.475 -21.032   6.927  0.00  0.00    -0.045 A 
ATOM     12  C   LIG    1       26.473 -20.462   6.129  0.00  0.00    +0.007 A 
ATOM     13  C   LIG    1       25.131 -20.604   6.474  0.00  0.00    +0.045 A 
ATOM     14  C   LIG    1       24.782 -21.322   7.611  0.00  0.00    +0.117 A 
ATOM     15  C   LIG    1       25.758 -21.916   8.404  0.00  0.00    +0.045 A 
ATOM     16  C   LIG    1       27.104 -21.771   8.060  0.00  0.00    +0.007 A 
BRANCH  14  17
ATOM     17  O   LIG    1       23.459 -21.419   7.920  0.00  0.00    -0.507 OA
ATOM     18  H   LIG    1       23.062 -20.533   7.869  0.00  0.00    +0.292 HD
ENDBRANCH  14  17
ENDBRANCH  10  11
ENDBRANCH   2  10
TORSDOF 6
ENDMDL
MODEL 9
REMARK VINA RESULT:      -6.4      2.565      3.499
REMARK  Name = *****
REMARK                            x       y       z     vdW  Elec       q    Type
REMARK                         _______ _______ _______ _____ _____    ______ ____
ROOT
ATOM      1  C   LIG    1       26.662 -22.740   7.383  0.00  0.00    +0.040 C 
ATOM      2  C   LIG    1       27.208 -21.320   7.582  0.00  0.00    +0.116 C 
ENDROOT
BRANCH   2   3
ATOM      3  N   LIG    1       26.706 -20.888   8.926  0.00  0.00    -0.316 NA
ATOM      4  H   LIG    1       25.929 -21.495   9.194  0.00  0.00    +0.119 HD
ATOM      5  H   LIG    1       27.434 -21.116   9.611  0.00  0.00    +0.119 HD
ENDBRANCH   2   3
BRANCH   2   6
ATOM      6  C   LIG    1       28.756 -21.277   7.618  0.00  0.00    +0.325 C 
ATOM      7  O   LIG    1       29.398 -21.492   8.646  0.00  0.00    -0.249 OA
BRANCH   6   8
ATOM      8  O   LIG    1       29.380 -20.971   6.463  0.00  0.00    -0.479 OA
ATOM      9  H   LIG    1       30.206 -20.453   6.556  0.00  0.00    +0.295 HD
ENDBRANCH   6   8
ENDBRANCH   2   6
BRANCH   2  10
ATOM     10  C   LIG    1       26.667 -20.300   6.549  0.00  0.00    +0.068 C 
BRANCH  10  11
ATOM     11  C   LIG    1       25.270 -20.564   6.032  0.00  0.00    -0.045 A 
ATOM     12  C   LIG    1       24.191 -20.673   6.920  0.00  0.00    +0.007 A 
ATOM     13  C   LIG    1       22.909 -20.942   6.443  0.00  0.00    +0.045 A 
ATOM     14  C   LIG    1       22.698 -21.094   5.078  0.00  0.00    +0.117 A 
ATOM     15  C   LIG    1       23.750 -20.967   4.177  0.00  0.00    +0.045 A 
ATOM     16  C   LIG    1       25.035 -20.701   4.655  0.00  0.00    +0.007 A 
BRANCH  14  17
ATOM     17  O   LIG    1       21.433 -21.375   4.658  0.00  0.00    -0.507 OA
ATOM     18  H   LIG    1       21.340 -22.339   4.574  0.00  0.00    +0.292 HD
ENDBRANCH  14  17
ENDBRANCH  10  11
ENDBRANCH   2  10
TORSDOF 6
ENDMDL
