MODEL 1
REMARK VINA RESULT:      18.2      0.000      0.000
REMARK  Name = *****
REMARK                            x       y       z     vdW  Elec       q    Type
REMARK                         _______ _______ _______ _____ _____    ______ ____
ROOT
ATOM      1  C   LIG    1       26.806 -13.129   2.988  0.00  0.00    +0.132 A 
ATOM      2  C   LIG    1       25.983 -14.141   3.528  0.00  0.00    +0.075 A 
ATOM      3  C   LIG    1       26.154 -15.592   3.202  0.00  0.00    +0.202 C 
ATOM      4  C   LIG    1       25.192 -16.598   3.735  0.00  0.00    +0.078 A 
ATOM      5  C   LIG    1       24.108 -16.172   4.493  0.00  0.00    +0.078 A 
ATOM      6  C   LIG    1       23.997 -14.762   4.905  0.00  0.00    +0.198 C 
ATOM      7  O   LIG    1       23.085 -14.420   5.646  0.00  0.00    -0.286 OA
ATOM      8  C   LIG    1       23.100 -17.082   4.842  0.00  0.00    +0.132 A 
ATOM      9  C   LIG    1       23.182 -18.435   4.476  0.00  0.00    +0.007 A 
ATOM     10  C   LIG    1       21.945 -19.297   4.676  0.00  0.00    +0.082 C 
ATOM     11  C   LIG    1       22.039 -20.746   4.193  0.00  0.00    +0.130 C 
ATOM     12  C   LIG    1       23.103 -20.885   3.084  0.00  0.00    +0.079 C 
ATOM     13  C   LIG    1       24.486 -20.407   3.538  0.00  0.00    +0.158 C 
ATOM     14  C   LIG    1       24.350 -18.915   3.841  0.00  0.00    +0.030 A 
ATOM     15  C   LIG    1       25.327 -17.976   3.443  0.00  0.00    +0.135 A 
ATOM     16  O   LIG    1       27.062 -16.003   2.495  0.00  0.00    -0.286 OA
ATOM     17  C   LIG    1       24.964 -13.771   4.410  0.00  0.00    +0.037 A 
ATOM     18  C   LIG    1       24.806 -12.440   4.821  0.00  0.00    +0.012 A 
ATOM     19  C   LIG    1       25.656 -11.457   4.337  0.00  0.00    +0.004 A 
ATOM     20  C   LIG    1       26.646 -11.799   3.418  0.00  0.00    +0.046 A 
ENDROOT
BRANCH  11  21
ATOM     21  C   LIG    1       20.687 -21.233   3.635  0.00  0.00    +0.162 C 
ATOM     22  O   LIG    1       20.541 -21.569   2.456  0.00  0.00    -0.295 OA
ATOM     23  C   LIG    1       19.519 -21.299   4.587  0.00  0.00    +0.089 C 
ENDBRANCH  11  21
BRANCH   1  25
ATOM     24  C   LIG    1       29.121 -13.308   2.484  0.00  0.00    +0.277 C 
ATOM     25  O   LIG    1       27.766 -13.472   2.072  0.00  0.00    -0.494 OA
ENDBRANCH   1  25
BRANCH   8  26
ATOM     26  O   LIG    1       21.965 -16.690   5.510  0.00  0.00    -0.506 OA
ATOM     27  H   LIG    1       21.229 -16.617   4.862  0.00  0.00    +0.292 HD
ENDBRANCH   8  26
BRANCH  11  28
ATOM     28  O   LIG    1       22.282 -21.558   5.347  0.00  0.00    -0.381 OA
ATOM     29  H   LIG    1       21.433 -21.628   5.826  0.00  0.00    +0.211 HD
ENDBRANCH  11  28
BRANCH  15  30
ATOM     30  O   LIG    1       26.388 -18.448   2.710  0.00  0.00    -0.506 OA
ATOM     31  H   LIG    1       26.076 -18.623   1.790  0.00  0.00    +0.292 HD
ENDBRANCH  15  30
BRANCH  13  32
ATOM     32  O   LIG    1       24.987 -21.089   4.705  0.00  0.00    -0.343 OA
BRANCH  32  33
ATOM     33  C   LIG    1       26.334 -20.750   5.076  0.00  0.00    +0.253 C 
ATOM     34  O   LIG    1       26.428 -20.703   6.501  0.00  0.00    -0.346 OA
ATOM     35  C   LIG    1       27.693 -20.389   7.061  0.00  0.00    +0.148 C 
ATOM     36  C   LIG    1       28.660 -21.563   6.931  0.00  0.00    +0.040 C 
ATOM     37  C   LIG    1       28.158 -19.015   6.565  0.00  0.00    +0.160 C 
ATOM     38  C   LIG    1       28.021 -18.839   5.033  0.00  0.00    +0.087 C 
ATOM     39  C   LIG    1       26.657 -19.353   4.545  0.00  0.00    +0.082 C 
BRANCH  38  40
ATOM     40  N   LIG    1       29.122 -19.444   4.270  0.00  0.00    -0.325 NA
ATOM     41  H   LIG    1       28.760 -20.198   3.686  0.00  0.00    +0.119 HD
ATOM     42  H   LIG    1       29.591 -18.779   3.663  0.00  0.00    +0.119 HD
ENDBRANCH  38  40
BRANCH  37  43
ATOM     43  O   LIG    1       29.472 -18.701   7.018  0.00  0.00    -0.388 OA
ATOM     44  H   LIG    1       29.757 -19.416   7.610  0.00  0.00    +0.210 HD
ENDBRANCH  37  43
ENDBRANCH  32  33
ENDBRANCH  13  32
TORSDOF 9
ENDMDL
MODEL 2
REMARK VINA RESULT:      21.1      1.462      1.535
REMARK  Name = *****
REMARK                            x       y       z     vdW  Elec       q    Type
REMARK                         _______ _______ _______ _____ _____    ______ ____
ROOT
ATOM      1  C   LIG    1       28.104 -13.094   4.138  0.00  0.00    +0.132 A 
ATOM      2  C   LIG    1       26.988 -13.910   4.425  0.00  0.00    +0.075 A 
ATOM      3  C   LIG    1       26.784 -15.260   3.811  0.00  0.00    +0.202 C 
ATOM      4  C   LIG    1       25.539 -16.029   4.088  0.00  0.00    +0.078 A 
ATOM      5  C   LIG    1       24.547 -15.461   4.877  0.00  0.00    +0.078 A 
ATOM      6  C   LIG    1       24.788 -14.183   5.569  0.00  0.00    +0.198 C 
ATOM      7  O   LIG    1       23.938 -13.740   6.331  0.00  0.00    -0.286 OA
ATOM      8  C   LIG    1       23.300 -16.091   4.993  0.00  0.00    +0.132 A 
ATOM      9  C   LIG    1       23.041 -17.317   4.356  0.00  0.00    +0.007 A 
ATOM     10  C   LIG    1       21.603 -17.808   4.327  0.00  0.00    +0.082 C 
ATOM     11  C   LIG    1       21.341 -19.105   3.558  0.00  0.00    +0.130 C 
ATOM     12  C   LIG    1       22.426 -19.331   2.483  0.00  0.00    +0.079 C 
ATOM     13  C   LIG    1       23.837 -19.366   3.077  0.00  0.00    +0.158 C 
ATOM     14  C   LIG    1       24.087 -17.983   3.679  0.00  0.00    +0.030 A 
ATOM     15  C   LIG    1       25.317 -17.306   3.521  0.00  0.00    +0.135 A 
ATOM     16  O   LIG    1       27.608 -15.774   3.068  0.00  0.00    -0.286 OA
ATOM     17  C   LIG    1       26.032 -13.437   5.327  0.00  0.00    +0.037 A 
ATOM     18  C   LIG    1       26.206 -12.219   6.000  0.00  0.00    +0.012 A 
ATOM     19  C   LIG    1       27.335 -11.449   5.762  0.00  0.00    +0.004 A 
ATOM     20  C   LIG    1       28.275 -11.881   4.829  0.00  0.00    +0.046 A 
ENDROOT
BRANCH  11  21
ATOM     21  C   LIG    1       19.966 -19.068   2.861  0.00  0.00    +0.162 C 
ATOM     22  O   LIG    1       19.352 -20.094   2.556  0.00  0.00    -0.295 OA
ATOM     23  C   LIG    1       19.368 -17.715   2.562  0.00  0.00    +0.089 C 
ENDBRANCH  11  21
BRANCH   1  25
ATOM     24  C   LIG    1       29.474 -12.540   2.277  0.00  0.00    +0.277 C 
ATOM     25  O   LIG    1       29.015 -13.520   3.207  0.00  0.00    -0.494 OA
ENDBRANCH   1  25
BRANCH   8  26
ATOM     26  O   LIG    1       22.258 -15.524   5.685  0.00  0.00    -0.506 OA
ATOM     27  H   LIG    1       21.494 -16.143   5.668  0.00  0.00    +0.292 HD
ENDBRANCH   8  26
BRANCH  11  28
ATOM     28  O   LIG    1       21.242 -20.155   4.526  0.00  0.00    -0.381 OA
ATOM     29  H   LIG    1       22.151 -20.341   4.832  0.00  0.00    +0.211 HD
ENDBRANCH  11  28
BRANCH  15  30
ATOM     30  O   LIG    1       26.273 -17.916   2.744  0.00  0.00    -0.506 OA
ATOM     31  H   LIG    1       26.782 -17.215   2.272  0.00  0.00    +0.292 HD
ENDBRANCH  15  30
BRANCH  13  32
ATOM     32  O   LIG    1       24.020 -20.370   4.095  0.00  0.00    -0.343 OA
BRANCH  32  33
ATOM     33  C   LIG    1       25.341 -20.431   4.659  0.00  0.00    +0.253 C 
ATOM     34  O   LIG    1       25.276 -20.068   6.039  0.00  0.00    -0.346 OA
ATOM     35  C   LIG    1       26.491 -20.077   6.774  0.00  0.00    +0.148 C 
ATOM     36  C   LIG    1       26.949 -21.504   7.062  0.00  0.00    +0.040 C 
ATOM     37  C   LIG    1       27.496 -19.113   6.133  0.00  0.00    +0.160 C 
ATOM     38  C   LIG    1       27.617 -19.286   4.600  0.00  0.00    +0.087 C 
ATOM     39  C   LIG    1       26.229 -19.407   3.952  0.00  0.00    +0.082 C 
BRANCH  38  40
ATOM     40  N   LIG    1       28.490 -20.400   4.200  0.00  0.00    -0.325 NA
ATOM     41  H   LIG    1       27.954 -21.267   4.188  0.00  0.00    +0.119 HD
ATOM     42  H   LIG    1       28.894 -20.271   3.278  0.00  0.00    +0.119 HD
ENDBRANCH  38  40
BRANCH  37  43
ATOM     43  O   LIG    1       28.767 -19.166   6.774  0.00  0.00    -0.388 OA
ATOM     44  H   LIG    1       29.347 -19.724   6.232  0.00  0.00    +0.210 HD
ENDBRANCH  37  43
ENDBRANCH  32  33
ENDBRANCH  13  32
TORSDOF 9
ENDMDL
