MODEL 1
REMARK VINA RESULT:      -7.3      0.000      0.000
REMARK  Name = *****
REMARK                            x       y       z     vdW  Elec       q    Type
REMARK                         _______ _______ _______ _____ _____    ______ ____
ROOT
ATOM      1  C   LIG    1       29.307 -20.310   6.485  0.00  0.00    +0.264 C 
ENDROOT
BRANCH   1   2
ATOM      2  O   LIG    1       28.140 -20.040   5.692  0.00  0.00    -0.486 OA
BRANCH   2   4
ATOM      3  C   LIG    1       25.659 -20.432   5.619  0.00  0.00    +0.162 A 
ATOM      4  C   LIG    1       26.912 -20.320   6.261  0.00  0.00    +0.162 A 
ATOM      5  C   LIG    1       26.975 -20.500   7.654  0.00  0.00    +0.049 A 
ATOM      6  C   LIG    1       25.831 -20.792   8.400  0.00  0.00    +0.004 A 
ATOM      7  C   LIG    1       24.604 -20.917   7.762  0.00  0.00    +0.004 A 
ATOM      8  C   LIG    1       24.520 -20.738   6.382  0.00  0.00    +0.049 A 
BRANCH   3  10
ATOM      9  C   LIG    1       24.372 -20.476   3.595  0.00  0.00    +0.277 C 
ATOM     10  O   LIG    1       25.601 -20.244   4.265  0.00  0.00    -0.491 OA
ENDBRANCH   3  10
ENDBRANCH   2   4
ENDBRANCH   1   2
BRANCH   1  11
ATOM     11  C   LIG    1       30.299 -19.136   6.431  0.00  0.00    +0.189 C 
BRANCH  11  12
ATOM     12  O   LIG    1       29.864 -18.165   5.474  0.00  0.00    -0.385 OA
ATOM     13  H   LIG    1       30.622 -18.012   4.879  0.00  0.00    +0.210 HD
ENDBRANCH  11  12
BRANCH  11  14
ATOM     14  C   LIG    1       30.410 -18.447   7.801  0.00  0.00    +0.268 C 
BRANCH  14  15
ATOM     15  O   LIG    1       31.676 -17.777   7.901  0.00  0.00    -0.448 OA
BRANCH  15  16
ATOM     16  C   LIG    1       32.124 -17.558   9.161  0.00  0.00    +0.398 C 
ATOM     17  O   LIG    1       32.032 -18.298  10.118  0.00  0.00    -0.227 OA
ATOM     18  N   LIG    1       32.671 -16.318   9.217  0.00  0.00    -0.295 N 
ATOM     19  H   LIG    1       33.015 -15.977  10.102  0.00  0.00    +0.148 HD
ATOM     20  H   LIG    1       32.718 -15.757   8.385  0.00  0.00    +0.148 HD
ENDBRANCH  15  16
ENDBRANCH  14  15
ENDBRANCH  11  14
ENDBRANCH   1  11
TORSDOF 8
ENDMDL
MODEL 2
REMARK VINA RESULT:      -7.3      2.254      3.302
REMARK  Name = *****
REMARK                            x       y       z     vdW  Elec       q    Type
REMARK                         _______ _______ _______ _____ _____    ______ ____
ROOT
ATOM      1  C   LIG    1       26.788 -20.610   7.049  0.00  0.00    +0.264 C 
ENDROOT
BRANCH   1   2
ATOM      2  O   LIG    1       25.987 -21.302   6.079  0.00  0.00    -0.486 OA
BRANCH   2   4
ATOM      3  C   LIG    1       23.583 -20.573   6.022  0.00  0.00    +0.162 A 
ATOM      4  C   LIG    1       24.911 -20.617   5.545  0.00  0.00    +0.162 A 
ATOM      5  C   LIG    1       25.235 -19.899   4.381  0.00  0.00    +0.049 A 
ATOM      6  C   LIG    1       24.274 -19.144   3.703  0.00  0.00    +0.004 A 
ATOM      7  C   LIG    1       22.972 -19.091   4.185  0.00  0.00    +0.004 A 
ATOM      8  C   LIG    1       22.631 -19.801   5.336  0.00  0.00    +0.049 A 
BRANCH   3  10
ATOM      9  C   LIG    1       22.944 -22.659   7.020  0.00  0.00    +0.277 C 
ATOM     10  O   LIG    1       23.270 -21.284   7.148  0.00  0.00    -0.491 OA
ENDBRANCH   3  10
ENDBRANCH   2   4
ENDBRANCH   1   2
BRANCH   1  11
ATOM     11  C   LIG    1       28.283 -20.703   6.703  0.00  0.00    +0.189 C 
BRANCH  11  12
ATOM     12  O   LIG    1       28.521 -20.182   5.391  0.00  0.00    -0.385 OA
ATOM     13  H   LIG    1       27.645 -19.970   5.020  0.00  0.00    +0.210 HD
ENDBRANCH  11  12
BRANCH  11  14
ATOM     14  C   LIG    1       29.130 -19.898   7.702  0.00  0.00    +0.268 C 
BRANCH  14  15
ATOM     15  O   LIG    1       29.868 -20.798   8.543  0.00  0.00    -0.448 OA
BRANCH  15  16
ATOM     16  C   LIG    1       31.211 -20.618   8.557  0.00  0.00    +0.398 C 
ATOM     17  O   LIG    1       32.005 -21.030   9.377  0.00  0.00    -0.227 OA
ATOM     18  N   LIG    1       31.553 -19.833   7.505  0.00  0.00    -0.295 N 
ATOM     19  H   LIG    1       32.519 -19.561   7.394  0.00  0.00    +0.148 HD
ATOM     20  H   LIG    1       30.845 -19.527   6.861  0.00  0.00    +0.148 HD
ENDBRANCH  15  16
ENDBRANCH  14  15
ENDBRANCH  11  14
ENDBRANCH   1  11
TORSDOF 8
ENDMDL
MODEL 3
REMARK VINA RESULT:      -7.3      2.824      3.236
REMARK  Name = *****
REMARK                            x       y       z     vdW  Elec       q    Type
REMARK                         _______ _______ _______ _____ _____    ______ ____
ROOT
ATOM      1  C   LIG    1       27.459 -21.547   7.656  0.00  0.00    +0.264 C 
ENDROOT
BRANCH   1   2
ATOM      2  O   LIG    1       26.171 -21.186   7.133  0.00  0.00    -0.486 OA
BRANCH   2   4
ATOM      3  C   LIG    1       23.842 -22.101   6.907  0.00  0.00    +0.162 A 
ATOM      4  C   LIG    1       25.249 -22.202   6.968  0.00  0.00    +0.162 A 
ATOM      5  C   LIG    1       25.840 -23.473   6.861  0.00  0.00    +0.049 A 
ATOM      6  C   LIG    1       25.063 -24.622   6.688  0.00  0.00    +0.004 A 
ATOM      7  C   LIG    1       23.680 -24.516   6.612  0.00  0.00    +0.004 A 
ATOM      8  C   LIG    1       23.076 -23.264   6.722  0.00  0.00    +0.049 A 
BRANCH   3  10
ATOM      9  C   LIG    1       22.859 -20.185   5.849  0.00  0.00    +0.277 C 
ATOM     10  O   LIG    1       23.271 -20.863   7.025  0.00  0.00    -0.491 OA
ENDBRANCH   3  10
ENDBRANCH   2   4
ENDBRANCH   1   2
BRANCH   1  11
ATOM     11  C   LIG    1       28.592 -20.977   6.788  0.00  0.00    +0.189 C 
BRANCH  11  12
ATOM     12  O   LIG    1       28.050 -20.294   5.653  0.00  0.00    -0.385 OA
ATOM     13  H   LIG    1       28.398 -19.384   5.692  0.00  0.00    +0.210 HD
ENDBRANCH  11  12
BRANCH  11  14
ATOM     14  C   LIG    1       29.448 -19.980   7.586  0.00  0.00    +0.268 C 
BRANCH  14  15
ATOM     15  O   LIG    1       29.927 -20.610   8.784  0.00  0.00    -0.448 OA
BRANCH  15  16
ATOM     16  C   LIG    1       31.275 -20.689   8.905  0.00  0.00    +0.398 C 
ATOM     17  O   LIG    1       32.048 -19.795   9.179  0.00  0.00    -0.227 OA
ATOM     18  N   LIG    1       31.662 -21.956   8.612  0.00  0.00    -0.295 N 
ATOM     19  H   LIG    1       32.646 -22.177   8.610  0.00  0.00    +0.148 HD
ATOM     20  H   LIG    1       30.969 -22.650   8.395  0.00  0.00    +0.148 HD
ENDBRANCH  15  16
ENDBRANCH  14  15
ENDBRANCH  11  14
ENDBRANCH   1  11
TORSDOF 8
ENDMDL
MODEL 4
REMARK VINA RESULT:      -7.3      3.139      3.535
REMARK  Name = *****
REMARK                            x       y       z     vdW  Elec       q    Type
REMARK                         _______ _______ _______ _____ _____    ______ ____
ROOT
ATOM      1  C   LIG    1       27.347 -21.161   7.410  0.00  0.00    +0.264 C 
ENDROOT
BRANCH   1   2
ATOM      2  O   LIG    1       27.022 -22.553   7.276  0.00  0.00    -0.486 OA
BRANCH   2   4
ATOM      3  C   LIG    1       25.135 -24.103   6.682  0.00  0.00    +0.162 A 
ATOM      4  C   LIG    1       25.688 -22.877   7.110  0.00  0.00    +0.162 A 
ATOM      5  C   LIG    1       24.819 -21.813   7.412  0.00  0.00    +0.049 A 
ATOM      6  C   LIG    1       23.433 -21.955   7.304  0.00  0.00    +0.004 A 
ATOM      7  C   LIG    1       22.894 -23.169   6.897  0.00  0.00    +0.004 A 
ATOM      8  C   LIG    1       23.740 -24.234   6.589  0.00  0.00    +0.049 A 
BRANCH   3  10
ATOM      9  C   LIG    1       25.632 -26.023   5.331  0.00  0.00    +0.277 C 
ATOM     10  O   LIG    1       25.985 -25.131   6.377  0.00  0.00    -0.491 OA
ENDBRANCH   3  10
ENDBRANCH   2   4
ENDBRANCH   1   2
BRANCH   1  11
ATOM     11  C   LIG    1       28.585 -20.797   6.574  0.00  0.00    +0.189 C 
BRANCH  11  12
ATOM     12  O   LIG    1       28.193 -20.113   5.380  0.00  0.00    -0.385 OA
ATOM     13  H   LIG    1       27.249 -20.317   5.247  0.00  0.00    +0.210 HD
ENDBRANCH  11  12
BRANCH  11  14
ATOM     14  C   LIG    1       29.533 -19.881   7.365  0.00  0.00    +0.268 C 
BRANCH  14  15
ATOM     15  O   LIG    1       29.888 -20.511   8.605  0.00  0.00    -0.448 OA
BRANCH  15  16
ATOM     16  C   LIG    1       31.217 -20.642   8.836  0.00  0.00    +0.398 C 
ATOM     17  O   LIG    1       32.001 -19.775   9.163  0.00  0.00    -0.227 OA
ATOM     18  N   LIG    1       31.575 -21.927   8.589  0.00  0.00    -0.295 N 
ATOM     19  H   LIG    1       32.547 -22.186   8.668  0.00  0.00    +0.148 HD
ATOM     20  H   LIG    1       30.874 -22.597   8.323  0.00  0.00    +0.148 HD
ENDBRANCH  15  16
ENDBRANCH  14  15
ENDBRANCH  11  14
ENDBRANCH   1  11
TORSDOF 8
ENDMDL
MODEL 5
REMARK VINA RESULT:      -7.2      1.707      1.739
REMARK  Name = *****
REMARK                            x       y       z     vdW  Elec       q    Type
REMARK                         _______ _______ _______ _____ _____    ______ ____
ROOT
ATOM      1  C   LIG    1       28.971 -20.318   6.046  0.00  0.00    +0.264 C 
ENDROOT
BRANCH   1   2
ATOM      2  O   LIG    1       27.710 -19.799   5.595  0.00  0.00    -0.486 OA
BRANCH   2   4
ATOM      3  C   LIG    1       25.360 -20.686   5.551  0.00  0.00    +0.162 A 
ATOM      4  C   LIG    1       26.569 -20.317   6.179  0.00  0.00    +0.162 A 
ATOM      5  C   LIG    1       26.680 -20.466   7.572  0.00  0.00    +0.049 A 
ATOM      6  C   LIG    1       25.625 -20.977   8.333  0.00  0.00    +0.004 A 
ATOM      7  C   LIG    1       24.443 -21.355   7.709  0.00  0.00    +0.004 A 
ATOM      8  C   LIG    1       24.313 -21.210   6.328  0.00  0.00    +0.049 A 
BRANCH   3  10
ATOM      9  C   LIG    1       24.391 -19.518   3.693  0.00  0.00    +0.277 C 
ATOM     10  O   LIG    1       25.253 -20.527   4.196  0.00  0.00    -0.491 OA
ENDBRANCH   3  10
ENDBRANCH   2   4
ENDBRANCH   1   2
BRANCH   1  11
ATOM     11  C   LIG    1       29.979 -19.186   6.300  0.00  0.00    +0.189 C 
BRANCH  11  12
ATOM     12  O   LIG    1       29.681 -18.061   5.467  0.00  0.00    -0.385 OA
ATOM     13  H   LIG    1       29.709 -18.388   4.549  0.00  0.00    +0.210 HD
ENDBRANCH  11  12
BRANCH  11  14
ATOM     14  C   LIG    1       29.931 -18.725   7.766  0.00  0.00    +0.268 C 
BRANCH  14  15
ATOM     15  O   LIG    1       30.020 -19.867   8.633  0.00  0.00    -0.448 OA
BRANCH  15  16
ATOM     16  C   LIG    1       31.276 -20.293   8.912  0.00  0.00    +0.398 C 
ATOM     17  O   LIG    1       32.196 -19.642   9.359  0.00  0.00    -0.227 OA
ATOM     18  N   LIG    1       31.378 -21.599   8.558  0.00  0.00    -0.295 N 
ATOM     19  H   LIG    1       32.269 -22.062   8.657  0.00  0.00    +0.148 HD
ATOM     20  H   LIG    1       30.575 -22.081   8.194  0.00  0.00    +0.148 HD
ENDBRANCH  15  16
ENDBRANCH  14  15
ENDBRANCH  11  14
ENDBRANCH   1  11
TORSDOF 8
ENDMDL
MODEL 6
REMARK VINA RESULT:      -6.7      2.078      2.985
REMARK  Name = *****
REMARK                            x       y       z     vdW  Elec       q    Type
REMARK                         _______ _______ _______ _____ _____    ______ ____
ROOT
ATOM      1  C   LIG    1       28.179 -19.336   5.856  0.00  0.00    +0.264 C 
ENDROOT
BRANCH   1   2
ATOM      2  O   LIG    1       27.438 -20.462   5.360  0.00  0.00    -0.486 OA
BRANCH   2   4
ATOM      3  C   LIG    1       25.237 -20.833   6.516  0.00  0.00    +0.162 A 
ATOM      4  C   LIG    1       26.060 -20.401   5.453  0.00  0.00    +0.162 A 
ATOM      5  C   LIG    1       25.454 -19.834   4.317  0.00  0.00    +0.049 A 
ATOM      6  C   LIG    1       24.067 -19.689   4.232  0.00  0.00    +0.004 A 
ATOM      7  C   LIG    1       23.263 -20.101   5.287  0.00  0.00    +0.004 A 
ATOM      8  C   LIG    1       23.846 -20.669   6.419  0.00  0.00    +0.049 A 
BRANCH   3  10
ATOM      9  C   LIG    1       25.952 -20.622   8.796  0.00  0.00    +0.277 C 
ATOM     10  O   LIG    1       25.831 -21.395   7.613  0.00  0.00    -0.491 OA
ENDBRANCH   3  10
ENDBRANCH   2   4
ENDBRANCH   1   2
BRANCH   1  11
ATOM     11  C   LIG    1       29.517 -19.778   6.469  0.00  0.00    +0.189 C 
BRANCH  11  12
ATOM     12  O   LIG    1       30.548 -18.842   6.136  0.00  0.00    -0.385 OA
ATOM     13  H   LIG    1       30.705 -18.314   6.941  0.00  0.00    +0.210 HD
ENDBRANCH  11  12
BRANCH  11  14
ATOM     14  C   LIG    1       29.419 -19.861   8.001  0.00  0.00    +0.268 C 
BRANCH  14  15
ATOM     15  O   LIG    1       29.990 -21.099   8.453  0.00  0.00    -0.448 OA
BRANCH  15  16
ATOM     16  C   LIG    1       31.242 -21.013   8.966  0.00  0.00    +0.398 C 
ATOM     17  O   LIG    1       31.943 -21.920   9.363  0.00  0.00    -0.227 OA
ATOM     18  N   LIG    1       31.598 -19.705   9.022  0.00  0.00    -0.295 N 
ATOM     19  H   LIG    1       32.490 -19.460   9.425  0.00  0.00    +0.148 HD
ATOM     20  H   LIG    1       30.970 -19.003   8.674  0.00  0.00    +0.148 HD
ENDBRANCH  15  16
ENDBRANCH  14  15
ENDBRANCH  11  14
ENDBRANCH   1  11
TORSDOF 8
ENDMDL
MODEL 7
REMARK VINA RESULT:      -6.6      3.264      4.985
REMARK  Name = *****
REMARK                            x       y       z     vdW  Elec       q    Type
REMARK                         _______ _______ _______ _____ _____    ______ ____
ROOT
ATOM      1  C   LIG    1       31.285 -17.605   9.274  0.00  0.00    +0.264 C 
ENDROOT
BRANCH   1   2
ATOM      2  O   LIG    1       31.490 -18.207   7.986  0.00  0.00    -0.486 OA
BRANCH   2   4
ATOM      3  C   LIG    1       30.003 -20.232   8.019  0.00  0.00    +0.162 A 
ATOM      4  C   LIG    1       30.477 -19.010   7.496  0.00  0.00    +0.162 A 
ATOM      5  C   LIG    1       29.885 -18.500   6.327  0.00  0.00    +0.049 A 
ATOM      6  C   LIG    1       28.841 -19.175   5.689  0.00  0.00    +0.004 A 
ATOM      7  C   LIG    1       28.367 -20.369   6.216  0.00  0.00    +0.004 A 
ATOM      8  C   LIG    1       28.945 -20.893   7.372  0.00  0.00    +0.049 A 
BRANCH   3  10
ATOM      9  C   LIG    1       31.339 -21.932   9.058  0.00  0.00    +0.277 C 
ATOM     10  O   LIG    1       30.591 -20.730   9.149  0.00  0.00    -0.491 OA
ENDBRANCH   3  10
ENDBRANCH   2   4
ENDBRANCH   1   2
BRANCH   1  11
ATOM     11  C   LIG    1       32.512 -16.787   9.707  0.00  0.00    +0.189 C 
BRANCH  11  12
ATOM     12  O   LIG    1       32.812 -15.788   8.726  0.00  0.00    -0.385 OA
ATOM     13  H   LIG    1       32.517 -16.151   7.870  0.00  0.00    +0.210 HD
ENDBRANCH  11  12
BRANCH  11  14
ATOM     14  C   LIG    1       32.258 -16.082  11.049  0.00  0.00    +0.268 C 
BRANCH  14  15
ATOM     15  O   LIG    1       32.677 -16.933  12.126  0.00  0.00    -0.448 OA
BRANCH  15  16
ATOM     16  C   LIG    1       32.678 -16.364  13.356  0.00  0.00    +0.398 C 
ATOM     17  O   LIG    1       32.464 -16.902  14.422  0.00  0.00    -0.227 OA
ATOM     18  N   LIG    1       32.912 -15.034  13.217  0.00  0.00    -0.295 N 
ATOM     19  H   LIG    1       32.900 -14.449  14.039  0.00  0.00    +0.148 HD
ATOM     20  H   LIG    1       33.084 -14.652  12.304  0.00  0.00    +0.148 HD
ENDBRANCH  15  16
ENDBRANCH  14  15
ENDBRANCH  11  14
ENDBRANCH   1  11
TORSDOF 8
ENDMDL
MODEL 8
REMARK VINA RESULT:      -6.6      1.908      2.746
REMARK  Name = *****
REMARK                            x       y       z     vdW  Elec       q    Type
REMARK                         _______ _______ _______ _____ _____    ______ ____
ROOT
ATOM      1  C   LIG    1       28.596 -20.599   6.398  0.00  0.00    +0.264 C 
ENDROOT
BRANCH   1   2
ATOM      2  O   LIG    1       27.267 -20.459   6.923  0.00  0.00    -0.486 OA
BRANCH   2   4
ATOM      3  C   LIG    1       25.257 -21.781   6.198  0.00  0.00    +0.162 A 
ATOM      4  C   LIG    1       26.218 -20.756   6.072  0.00  0.00    +0.162 A 
ATOM      5  C   LIG    1       26.153 -19.902   4.957  0.00  0.00    +0.049 A 
ATOM      6  C   LIG    1       25.156 -20.049   3.988  0.00  0.00    +0.004 A 
ATOM      7  C   LIG    1       24.203 -21.050   4.125  0.00  0.00    +0.004 A 
ATOM      8  C   LIG    1       24.254 -21.909   5.222  0.00  0.00    +0.049 A 
BRANCH   3  10
ATOM      9  C   LIG    1       25.808 -23.940   7.088  0.00  0.00    +0.277 C 
ATOM     10  O   LIG    1       25.332 -22.617   7.279  0.00  0.00    -0.491 OA
ENDBRANCH   3  10
ENDBRANCH   2   4
ENDBRANCH   1   2
BRANCH   1  11
ATOM     11  C   LIG    1       29.650 -20.182   7.437  0.00  0.00    +0.189 C 
BRANCH  11  12
ATOM     12  O   LIG    1       30.309 -21.338   7.965  0.00  0.00    -0.385 OA
ATOM     13  H   LIG    1       30.563 -21.112   8.879  0.00  0.00    +0.210 HD
ENDBRANCH  11  12
BRANCH  11  14
ATOM     14  C   LIG    1       30.713 -19.267   6.806  0.00  0.00    +0.268 C 
BRANCH  14  15
ATOM     15  O   LIG    1       31.865 -19.208   7.661  0.00  0.00    -0.448 OA
BRANCH  15  16
ATOM     16  C   LIG    1       31.817 -18.276   8.644  0.00  0.00    +0.398 C 
ATOM     17  O   LIG    1       32.085 -17.096   8.558  0.00  0.00    -0.227 OA
ATOM     18  N   LIG    1       31.459 -18.885   9.801  0.00  0.00    -0.295 N 
ATOM     19  H   LIG    1       31.420 -18.338  10.648  0.00  0.00    +0.148 HD
ATOM     20  H   LIG    1       31.248 -19.868   9.802  0.00  0.00    +0.148 HD
ENDBRANCH  15  16
ENDBRANCH  14  15
ENDBRANCH  11  14
ENDBRANCH   1  11
TORSDOF 8
ENDMDL
MODEL 9
REMARK VINA RESULT:      -6.5      4.072      7.167
REMARK  Name = *****
REMARK                            x       y       z     vdW  Elec       q    Type
REMARK                         _______ _______ _______ _____ _____    ______ ____
ROOT
ATOM      1  C   LIG    1       26.938 -22.161   7.482  0.00  0.00    +0.264 C 
ENDROOT
BRANCH   1   2
ATOM      2  O   LIG    1       27.855 -21.413   8.295  0.00  0.00    -0.486 OA
BRANCH   2   4
ATOM      3  C   LIG    1       30.024 -20.176   8.016  0.00  0.00    +0.162 A 
ATOM      4  C   LIG    1       28.714 -20.547   7.645  0.00  0.00    +0.162 A 
ATOM      5  C   LIG    1       28.160 -19.991   6.478  0.00  0.00    +0.049 A 
ATOM      6  C   LIG    1       28.882 -19.094   5.688  0.00  0.00    +0.004 A 
ATOM      7  C   LIG    1       30.177 -18.744   6.049  0.00  0.00    +0.004 A 
ATOM      8  C   LIG    1       30.742 -19.281   7.205  0.00  0.00    +0.049 A 
BRANCH   3  10
ATOM      9  C   LIG    1       31.286 -21.922   9.071  0.00  0.00    +0.277 C 
ATOM     10  O   LIG    1       30.555 -20.709   9.159  0.00  0.00    -0.491 OA
ENDBRANCH   3  10
ENDBRANCH   2   4
ENDBRANCH   1   2
BRANCH   1  11
ATOM     11  C   LIG    1       25.528 -22.163   8.094  0.00  0.00    +0.189 C 
BRANCH  11  12
ATOM     12  O   LIG    1       25.149 -20.835   8.470  0.00  0.00    -0.385 OA
ATOM     13  H   LIG    1       25.362 -20.266   7.707  0.00  0.00    +0.210 HD
ENDBRANCH  11  12
BRANCH  11  14
ATOM     14  C   LIG    1       24.492 -22.693   7.089  0.00  0.00    +0.268 C 
BRANCH  14  15
ATOM     15  O   LIG    1       25.167 -23.205   5.929  0.00  0.00    -0.448 OA
BRANCH  15  16
ATOM     16  C   LIG    1       24.929 -24.508   5.641  0.00  0.00    +0.398 C 
ATOM     17  O   LIG    1       25.659 -25.282   5.058  0.00  0.00    -0.227 OA
ATOM     18  N   LIG    1       23.683 -24.826   6.072  0.00  0.00    -0.295 N 
ATOM     19  H   LIG    1       23.328 -25.754   5.894  0.00  0.00    +0.148 HD
ATOM     20  H   LIG    1       23.130 -24.137   6.550  0.00  0.00    +0.148 HD
ENDBRANCH  15  16
ENDBRANCH  14  15
ENDBRANCH  11  14
ENDBRANCH   1  11
TORSDOF 8
ENDMDL
