MODEL 1
REMARK VINA RESULT:      -4.0      0.000      0.000
REMARK  Name = *****
REMARK                            x       y       z     vdW  Elec       q    Type
REMARK                         _______ _______ _______ _____ _____    ______ ____
ROOT
ATOM      1  C   LIG    1       21.949 -31.773  10.833  0.00  0.00    +0.200 C 
ATOM      2  C   LIG    1       23.312 -31.374  11.524  0.00  0.00    +0.010 C 
ATOM      3  C   LIG    1       23.873 -32.610  12.258  0.00  0.00    +0.015 C 
ATOM      4  C   LIG    1       22.887 -30.151  12.401  0.00  0.00    +0.003 C 
ATOM      5  C   LIG    1       23.786 -28.889  12.304  0.00  0.00    -0.004 C 
ATOM      6  C   LIG    1       25.295 -29.189  12.409  0.00  0.00    -0.001 C 
ATOM      7  C   LIG    1       25.659 -30.265  11.336  0.00  0.00    +0.005 C 
ATOM      8  C   LIG    1       25.836 -29.380  13.903  0.00  0.00    -0.025 C 
ATOM      9  C   LIG    1       25.500 -30.790  14.447  0.00  0.00    +0.012 C 
ATOM     10  C   LIG    1       25.190 -28.369  14.892  0.00  0.00    -0.001 C 
ATOM     11  C   LIG    1       25.888 -27.019  14.830  0.00  0.00    +0.050 C 
ATOM     12  C   LIG    1       27.252 -27.138  15.492  0.00  0.00    +0.194 C 
ATOM     13  C   LIG    1       28.161 -28.135  14.716  0.00  0.00    +0.098 C 
ATOM     14  C   LIG    1       23.685 -28.174  14.704  0.00  0.00    +0.004 C 
ATOM     15  C   LIG    1       27.405 -29.274  13.952  0.00  0.00    +0.029 C 
ATOM     16  C   LIG    1       23.364 -27.788  13.277  0.00  0.00    +0.004 C 
ATOM     17  C   LIG    1       21.471 -29.777  11.910  0.00  0.00    +0.027 C 
ATOM     18  C   LIG    1       24.442 -30.890  10.570  0.00  0.00    +0.011 C 
ATOM     19  C   LIG    1       20.774 -31.117  11.680  0.00  0.00    +0.099 C 
ENDROOT
BRANCH  13  20
ATOM     20  N   LIG    1       29.376 -28.570  15.489  0.00  0.00    -0.286 NA
ATOM     21  C   LIG    1       29.872 -29.939  15.307  0.00  0.00    +0.136 C 
ATOM     22  C   LIG    1       30.600 -30.151  13.977  0.00  0.00    +0.148 C 
ATOM     23  N   LIG    1       31.802 -29.186  13.792  0.00  0.00    +0.241 N 
ATOM     24  C   LIG    1       32.127 -29.118  12.301  0.00  0.00    +0.192 C 
ATOM     25  C   LIG    1       33.019 -29.758  14.512  0.00  0.00    +0.192 C 
ATOM     26  C   LIG    1       31.536 -27.740  14.321  0.00  0.00    +0.148 C 
ATOM     27  C   LIG    1       30.526 -27.651  15.500  0.00  0.00    +0.136 C 
ENDBRANCH  13  20
BRANCH  19  28
ATOM     28  N   LIG    1       20.308 -31.666  13.001  0.00  0.00    -0.286 NA
ATOM     29  C   LIG    1       19.501 -30.694  13.800  0.00  0.00    +0.136 C 
ATOM     30  C   LIG    1       18.107 -30.327  13.230  0.00  0.00    +0.148 C 
ATOM     31  N   LIG    1       17.244 -31.561  12.869  0.00  0.00    +0.241 N 
ATOM     32  C   LIG    1       16.220 -31.130  11.808  0.00  0.00    +0.192 C 
ATOM     33  C   LIG    1       16.461 -32.051  14.084  0.00  0.00    +0.192 C 
ATOM     34  C   LIG    1       18.094 -32.700  12.262  0.00  0.00    +0.148 C 
ATOM     35  C   LIG    1       19.476 -32.882  12.930  0.00  0.00    +0.136 C 
ENDBRANCH  19  28
BRANCH   1  36
ATOM     36  O   LIG    1       21.782 -33.183  10.633  0.00  0.00    -0.459 OA
BRANCH  36  38
ATOM     37  C   LIG    1       20.032 -33.546   9.112  0.00  0.00    +0.136 C 
ATOM     38  C   LIG    1       21.504 -33.575   9.367  0.00  0.00    +0.304 C 
ATOM     39  O   LIG    1       22.350 -33.802   8.498  0.00  0.00    -0.251 OA
ENDBRANCH  36  38
ENDBRANCH   1  36
BRANCH  12  40
ATOM     40  O   LIG    1       27.844 -25.825  15.482  0.00  0.00    -0.460 OA
BRANCH  40  41
ATOM     41  C   LIG    1       27.367 -24.980  14.521  0.00  0.00    +0.304 C 
ATOM     42  O   LIG    1       27.817 -24.883  13.388  0.00  0.00    -0.251 OA
ATOM     43  C   LIG    1       26.337 -24.062  15.103  0.00  0.00    +0.136 C 
ENDBRANCH  40  41
ENDBRANCH  12  40
TORSDOF 6
ENDMDL
MODEL 2
REMARK VINA RESULT:      -3.9      4.715      8.823
REMARK  Name = *****
REMARK                            x       y       z     vdW  Elec       q    Type
REMARK                         _______ _______ _______ _____ _____    ______ ____
ROOT
ATOM      1  C   LIG    1       25.931 -32.649   6.881  0.00  0.00    +0.200 C 
ATOM      2  C   LIG    1       24.934 -32.876   8.083  0.00  0.00    +0.010 C 
ATOM      3  C   LIG    1       23.649 -33.537   7.540  0.00  0.00    +0.015 C 
ATOM      4  C   LIG    1       24.803 -31.435   8.676  0.00  0.00    +0.003 C 
ATOM      5  C   LIG    1       24.964 -31.306  10.215  0.00  0.00    -0.004 C 
ATOM      6  C   LIG    1       24.153 -32.344  11.015  0.00  0.00    -0.001 C 
ATOM      7  C   LIG    1       24.525 -33.770  10.493  0.00  0.00    +0.005 C 
ATOM      8  C   LIG    1       22.606 -31.978  11.211  0.00  0.00    -0.025 C 
ATOM      9  C   LIG    1       21.788 -32.294   9.935  0.00  0.00    +0.012 C 
ATOM     10  C   LIG    1       22.397 -30.463  11.495  0.00  0.00    -0.001 C 
ATOM     11  C   LIG    1       22.641 -30.141  12.962  0.00  0.00    +0.050 C 
ATOM     12  C   LIG    1       21.485 -30.686  13.785  0.00  0.00    +0.194 C 
ATOM     13  C   LIG    1       21.413 -32.237  13.686  0.00  0.00    +0.098 C 
ATOM     14  C   LIG    1       23.239 -29.533  10.622  0.00  0.00    +0.004 C 
ATOM     15  C   LIG    1       21.961 -32.848  12.352  0.00  0.00    +0.029 C 
ATOM     16  C   LIG    1       24.708 -29.885  10.717  0.00  0.00    +0.004 C 
ATOM     17  C   LIG    1       25.928 -30.619   8.000  0.00  0.00    +0.027 C 
ATOM     18  C   LIG    1       25.446 -33.802   9.224  0.00  0.00    +0.011 C 
ATOM     19  C   LIG    1       25.932 -31.094   6.548  0.00  0.00    +0.099 C 
ENDROOT
BRANCH  13  20
ATOM     20  N   LIG    1       20.111 -32.813  14.173  0.00  0.00    -0.286 NA
ATOM     21  C   LIG    1       19.080 -31.896  14.671  0.00  0.00    +0.136 C 
ATOM     22  C   LIG    1       18.363 -31.124  13.560  0.00  0.00    +0.148 C 
ATOM     23  N   LIG    1       17.696 -32.060  12.516  0.00  0.00    +0.241 N 
ATOM     24  C   LIG    1       17.467 -31.253  11.238  0.00  0.00    +0.192 C 
ATOM     25  C   LIG    1       16.335 -32.506  13.040  0.00  0.00    +0.192 C 
ATOM     26  C   LIG    1       18.545 -33.326  12.172  0.00  0.00    +0.148 C 
ATOM     27  C   LIG    1       19.467 -33.825  13.321  0.00  0.00    +0.136 C 
ENDBRANCH  13  20
BRANCH  19  28
ATOM     28  N   LIG    1       24.818 -30.412   5.801  0.00  0.00    -0.286 NA
ATOM     29  C   LIG    1       24.018 -29.473   6.647  0.00  0.00    +0.136 C 
ATOM     30  C   LIG    1       24.748 -28.195   7.131  0.00  0.00    +0.148 C 
ATOM     31  N   LIG    1       25.448 -27.416   5.991  0.00  0.00    +0.241 N 
ATOM     32  C   LIG    1       26.582 -26.584   6.610  0.00  0.00    +0.192 C 
ATOM     33  C   LIG    1       24.481 -26.440   5.326  0.00  0.00    +0.192 C 
ATOM     34  C   LIG    1       26.081 -28.366   4.948  0.00  0.00    +0.148 C 
ATOM     35  C   LIG    1       25.227 -29.614   4.631  0.00  0.00    +0.136 C 
ENDBRANCH  19  28
BRANCH   1  36
ATOM     36  O   LIG    1       25.668 -33.470   5.735  0.00  0.00    -0.459 OA
BRANCH  36  38
ATOM     37  C   LIG    1       27.889 -33.742   5.025  0.00  0.00    +0.136 C 
ATOM     38  C   LIG    1       26.503 -33.304   4.681  0.00  0.00    +0.304 C 
ATOM     39  O   LIG    1       26.149 -32.962   3.550  0.00  0.00    -0.251 OA
ENDBRANCH  36  38
ENDBRANCH   1  36
BRANCH  12  40
ATOM     40  O   LIG    1       21.715 -30.293  15.152  0.00  0.00    -0.460 OA
BRANCH  40  41
ATOM     41  C   LIG    1       21.507 -28.969  15.418  0.00  0.00    +0.304 C 
ATOM     42  O   LIG    1       20.413 -28.423  15.440  0.00  0.00    -0.251 OA
ATOM     43  C   LIG    1       22.815 -28.244  15.497  0.00  0.00    +0.136 C 
ENDBRANCH  40  41
ENDBRANCH  12  40
TORSDOF 6
ENDMDL
MODEL 3
REMARK VINA RESULT:      -3.3      1.876      2.272
REMARK  Name = *****
REMARK                            x       y       z     vdW  Elec       q    Type
REMARK                         _______ _______ _______ _____ _____    ______ ____
ROOT
ATOM      1  C   LIG    1       20.563 -30.211  12.051  0.00  0.00    +0.200 C 
ATOM      2  C   LIG    1       22.055 -30.142  12.564  0.00  0.00    +0.010 C 
ATOM      3  C   LIG    1       22.275 -31.273  13.591  0.00  0.00    +0.015 C 
ATOM      4  C   LIG    1       22.153 -28.671  13.084  0.00  0.00    +0.003 C 
ATOM      5  C   LIG    1       23.390 -27.857  12.616  0.00  0.00    -0.004 C 
ATOM      6  C   LIG    1       24.724 -28.617  12.752  0.00  0.00    -0.001 C 
ATOM      7  C   LIG    1       24.592 -29.983  12.005  0.00  0.00    +0.005 C 
ATOM      8  C   LIG    1       25.354 -28.604  14.224  0.00  0.00    -0.025 C 
ATOM      9  C   LIG    1       24.652 -29.634  15.144  0.00  0.00    +0.012 C 
ATOM     10  C   LIG    1       25.190 -27.222  14.917  0.00  0.00    -0.001 C 
ATOM     11  C   LIG    1       26.270 -26.250  14.466  0.00  0.00    +0.050 C 
ATOM     12  C   LIG    1       27.594 -26.659  15.092  0.00  0.00    +0.194 C 
ATOM     13  C   LIG    1       28.035 -28.065  14.591  0.00  0.00    +0.098 C 
ATOM     14  C   LIG    1       23.815 -26.579  14.730  0.00  0.00    +0.004 C 
ATOM     15  C   LIG    1       26.868 -29.030  14.193  0.00  0.00    +0.029 C 
ATOM     16  C   LIG    1       23.463 -26.473  13.263  0.00  0.00    +0.004 C 
ATOM     17  C   LIG    1       20.882 -27.971  12.553  0.00  0.00    +0.027 C 
ATOM     18  C   LIG    1       23.155 -30.325  11.478  0.00  0.00    +0.011 C 
ATOM     19  C   LIG    1       19.771 -29.007  12.721  0.00  0.00    +0.099 C 
ENDROOT
BRANCH  13  20
ATOM     20  N   LIG    1       29.131 -28.682  15.417  0.00  0.00    -0.286 NA
ATOM     21  C   LIG    1       29.431 -30.107  15.236  0.00  0.00    +0.136 C 
ATOM     22  C   LIG    1       30.187 -30.412  13.940  0.00  0.00    +0.148 C 
ATOM     23  N   LIG    1       31.526 -29.632  13.832  0.00  0.00    +0.241 N 
ATOM     24  C   LIG    1       31.934 -29.598  12.359  0.00  0.00    +0.192 C 
ATOM     25  C   LIG    1       32.607 -30.384  14.601  0.00  0.00    +0.192 C 
ATOM     26  C   LIG    1       31.447 -28.167  14.371  0.00  0.00    +0.148 C 
ATOM     27  C   LIG    1       30.402 -27.943  15.500  0.00  0.00    +0.136 C 
ENDBRANCH  13  20
BRANCH  19  28
ATOM     28  N   LIG    1       19.318 -29.018  14.156  0.00  0.00    -0.286 NA
ATOM     29  C   LIG    1       19.182 -27.652  14.750  0.00  0.00    +0.136 C 
ATOM     30  C   LIG    1       18.041 -26.768  14.185  0.00  0.00    +0.148 C 
ATOM     31  N   LIG    1       16.665 -27.477  14.165  0.00  0.00    +0.241 N 
ATOM     32  C   LIG    1       15.800 -26.803  13.088  0.00  0.00    +0.192 C 
ATOM     33  C   LIG    1       15.945 -27.304  15.500  0.00  0.00    +0.192 C 
ATOM     34  C   LIG    1       16.792 -28.972  13.793  0.00  0.00    +0.148 C 
ATOM     35  C   LIG    1       18.022 -29.674  14.412  0.00  0.00    +0.136 C 
ENDBRANCH  19  28
BRANCH   1  36
ATOM     36  O   LIG    1       19.931 -31.482  12.251  0.00  0.00    -0.459 OA
BRANCH  36  38
ATOM     37  C   LIG    1       18.733 -31.322  10.239  0.00  0.00    +0.136 C 
ATOM     38  C   LIG    1       19.591 -32.161  11.129  0.00  0.00    +0.304 C 
ATOM     39  O   LIG    1       20.030 -33.270  10.817  0.00  0.00    -0.251 OA
ENDBRANCH  36  38
ENDBRANCH   1  36
BRANCH  12  40
ATOM     40  O   LIG    1       28.569 -25.672  14.704  0.00  0.00    -0.460 OA
BRANCH  40  41
ATOM     41  C   LIG    1       28.055 -24.461  14.337  0.00  0.00    +0.304 C 
ATOM     42  O   LIG    1       27.703 -24.164  13.204  0.00  0.00    -0.251 OA
ATOM     43  C   LIG    1       28.153 -23.491  15.474  0.00  0.00    +0.136 C 
ENDBRANCH  40  41
ENDBRANCH  12  40
TORSDOF 6
ENDMDL
MODEL 4
REMARK VINA RESULT:      -3.2      4.253      8.037
REMARK  Name = *****
REMARK                            x       y       z     vdW  Elec       q    Type
REMARK                         _______ _______ _______ _____ _____    ______ ____
ROOT
ATOM      1  C   LIG    1       25.892 -32.341   6.263  0.00  0.00    +0.200 C 
ATOM      2  C   LIG    1       25.294 -32.568   7.708  0.00  0.00    +0.010 C 
ATOM      3  C   LIG    1       23.880 -33.170   7.566  0.00  0.00    +0.015 C 
ATOM      4  C   LIG    1       25.407 -31.141   8.336  0.00  0.00    +0.003 C 
ATOM      5  C   LIG    1       26.030 -31.061   9.756  0.00  0.00    -0.004 C 
ATOM      6  C   LIG    1       25.455 -32.093  10.747  0.00  0.00    -0.001 C 
ATOM      7  C   LIG    1       25.595 -33.516  10.113  0.00  0.00    +0.005 C 
ATOM      8  C   LIG    1       24.056 -31.681  11.407  0.00  0.00    -0.025 C 
ATOM      9  C   LIG    1       22.879 -31.933  10.433  0.00  0.00    +0.012 C 
ATOM     10  C   LIG    1       24.004 -30.169  11.767  0.00  0.00    -0.001 C 
ATOM     11  C   LIG    1       24.692 -29.897  13.096  0.00  0.00    +0.050 C 
ATOM     12  C   LIG    1       23.816 -30.426  14.221  0.00  0.00    +0.194 C 
ATOM     13  C   LIG    1       23.654 -31.971  14.122  0.00  0.00    +0.098 C 
ATOM     14  C   LIG    1       24.581 -29.243  10.695  0.00  0.00    +0.004 C 
ATOM     15  C   LIG    1       23.750 -32.561  12.674  0.00  0.00    +0.029 C 
ATOM     16  C   LIG    1       25.995 -29.647  10.337  0.00  0.00    +0.004 C 
ATOM     17  C   LIG    1       26.309 -30.345   7.366  0.00  0.00    +0.027 C 
ATOM     18  C   LIG    1       26.088 -33.543   8.624  0.00  0.00    +0.011 C 
ATOM     19  C   LIG    1       25.855 -30.778   5.973  0.00  0.00    +0.099 C 
ENDROOT
BRANCH  13  20
ATOM     20  N   LIG    1       22.538 -32.515  14.970  0.00  0.00    -0.286 NA
ATOM     21  C   LIG    1       21.444 -31.616  15.355  0.00  0.00    +0.136 C 
ATOM     22  C   LIG    1       20.474 -31.312  14.210  0.00  0.00    +0.148 C 
ATOM     23  N   LIG    1       19.838 -32.595  13.609  0.00  0.00    +0.241 N 
ATOM     24  C   LIG    1       19.318 -32.254  12.213  0.00  0.00    +0.192 C 
ATOM     25  C   LIG    1       18.647 -33.014  14.464  0.00  0.00    +0.192 C 
ATOM     26  C   LIG    1       20.831 -33.798  13.500  0.00  0.00    +0.148 C 
ATOM     27  C   LIG    1       21.962 -33.809  14.567  0.00  0.00    +0.136 C 
ENDBRANCH  13  20
BRANCH  19  28
ATOM     28  N   LIG    1       24.597 -30.038   5.609  0.00  0.00    -0.286 NA
ATOM     29  C   LIG    1       24.057 -29.195   6.719  0.00  0.00    +0.136 C 
ATOM     30  C   LIG    1       24.907 -27.962   7.120  0.00  0.00    +0.148 C 
ATOM     31  N   LIG    1       25.301 -27.068   5.919  0.00  0.00    +0.241 N 
ATOM     32  C   LIG    1       26.569 -26.289   6.301  0.00  0.00    +0.192 C 
ATOM     33  C   LIG    1       24.210 -26.042   5.624  0.00  0.00    +0.192 C 
ATOM     34  C   LIG    1       25.628 -27.905   4.661  0.00  0.00    +0.148 C 
ATOM     35  C   LIG    1       24.702 -29.126   4.456  0.00  0.00    +0.136 C 
ENDBRANCH  19  28
BRANCH   1  36
ATOM     36  O   LIG    1       25.263 -33.120   5.238  0.00  0.00    -0.459 OA
BRANCH  36  38
ATOM     37  C   LIG    1       27.347 -33.787   4.387  0.00  0.00    +0.136 C 
ATOM     38  C   LIG    1       25.972 -33.280   4.094  0.00  0.00    +0.304 C 
ATOM     39  O   LIG    1       25.512 -33.151   2.957  0.00  0.00    -0.251 OA
ENDBRANCH  36  38
ENDBRANCH   1  36
BRANCH  12  40
ATOM     40  O   LIG    1       24.464 -30.079  15.461  0.00  0.00    -0.460 OA
BRANCH  40  41
ATOM     41  C   LIG    1       25.828 -30.040  15.411  0.00  0.00    +0.304 C 
ATOM     42  O   LIG    1       26.559 -31.020  15.441  0.00  0.00    -0.251 OA
ATOM     43  C   LIG    1       26.309 -28.624  15.499  0.00  0.00    +0.136 C 
ENDBRANCH  40  41
ENDBRANCH  12  40
TORSDOF 6
ENDMDL
MODEL 5
REMARK VINA RESULT:      -3.1      4.464      7.744
REMARK  Name = *****
REMARK                            x       y       z     vdW  Elec       q    Type
REMARK                         _______ _______ _______ _____ _____    ______ ____
ROOT
ATOM      1  C   LIG    1       25.874 -31.739   5.727  0.00  0.00    +0.200 C 
ATOM      2  C   LIG    1       25.566 -32.069   7.240  0.00  0.00    +0.010 C 
ATOM      3  C   LIG    1       24.155 -32.687   7.332  0.00  0.00    +0.015 C 
ATOM      4  C   LIG    1       25.788 -30.682   7.928  0.00  0.00    +0.003 C 
ATOM      5  C   LIG    1       26.671 -30.681   9.205  0.00  0.00    -0.004 C 
ATOM      6  C   LIG    1       26.304 -31.784  10.217  0.00  0.00    -0.001 C 
ATOM      7  C   LIG    1       26.328 -33.160   9.476  0.00  0.00    +0.005 C 
ATOM      8  C   LIG    1       25.055 -31.441  11.158  0.00  0.00    -0.025 C 
ATOM      9  C   LIG    1       23.715 -31.653  10.412  0.00  0.00    +0.012 C 
ATOM     10  C   LIG    1       25.063 -29.956  11.619  0.00  0.00    -0.001 C 
ATOM     11  C   LIG    1       25.991 -29.756  12.808  0.00  0.00    +0.050 C 
ATOM     12  C   LIG    1       25.350 -30.370  14.042  0.00  0.00    +0.194 C 
ATOM     13  C   LIG    1       25.183 -31.908  13.875  0.00  0.00    +0.098 C 
ATOM     14  C   LIG    1       25.418 -28.953  10.520  0.00  0.00    +0.004 C 
ATOM     15  C   LIG    1       25.003 -32.405  12.400  0.00  0.00    +0.029 C 
ATOM     16  C   LIG    1       26.739 -29.307   9.873  0.00  0.00    +0.004 C 
ATOM     17  C   LIG    1       26.482 -29.809   6.857  0.00  0.00    +0.027 C 
ATOM     18  C   LIG    1       26.528 -33.085   7.923  0.00  0.00    +0.011 C 
ATOM     19  C   LIG    1       25.773 -30.162   5.551  0.00  0.00    +0.099 C 
ENDROOT
BRANCH  13  20
ATOM     20  N   LIG    1       24.253 -32.527  14.883  0.00  0.00    -0.286 NA
ATOM     21  C   LIG    1       23.219 -31.685  15.495  0.00  0.00    +0.136 C 
ATOM     22  C   LIG    1       22.051 -31.375  14.555  0.00  0.00    +0.148 C 
ATOM     23  N   LIG    1       21.357 -32.657  14.020  0.00  0.00    +0.241 N 
ATOM     24  C   LIG    1       20.586 -32.283  12.755  0.00  0.00    +0.192 C 
ATOM     25  C   LIG    1       20.352 -33.153  15.054  0.00  0.00    +0.192 C 
ATOM     26  C   LIG    1       22.351 -33.817  13.685  0.00  0.00    +0.148 C 
ATOM     27  C   LIG    1       23.654 -33.825  14.532  0.00  0.00    +0.136 C 
ENDBRANCH  13  20
BRANCH  19  28
ATOM     28  N   LIG    1       24.463 -29.425   5.484  0.00  0.00    -0.286 NA
ATOM     29  C   LIG    1       24.111 -28.715   6.752  0.00  0.00    +0.136 C 
ATOM     30  C   LIG    1       25.003 -27.506   7.132  0.00  0.00    +0.148 C 
ATOM     31  N   LIG    1       25.178 -26.483   5.983  0.00  0.00    +0.241 N 
ATOM     32  C   LIG    1       26.484 -25.713   6.227  0.00  0.00    +0.192 C 
ATOM     33  C   LIG    1       24.042 -25.464   5.985  0.00  0.00    +0.192 C 
ATOM     34  C   LIG    1       25.296 -27.178   4.607  0.00  0.00    +0.148 C 
ATOM     35  C   LIG    1       24.361 -28.397   4.432  0.00  0.00    +0.136 C 
ENDBRANCH  19  28
BRANCH   1  36
ATOM     36  O   LIG    1       25.065 -32.464   4.791  0.00  0.00    -0.459 OA
BRANCH  36  38
ATOM     37  C   LIG    1       27.069 -33.426   4.035  0.00  0.00    +0.136 C 
ATOM     38  C   LIG    1       25.703 -32.929   3.689  0.00  0.00    +0.304 C 
ATOM     39  O   LIG    1       25.187 -33.048   2.575  0.00  0.00    -0.251 OA
ENDBRANCH  36  38
ENDBRANCH   1  36
BRANCH  12  40
ATOM     40  O   LIG    1       26.221 -30.091  15.156  0.00  0.00    -0.460 OA
BRANCH  40  41
ATOM     41  C   LIG    1       27.541 -30.376  14.946  0.00  0.00    +0.304 C 
ATOM     42  O   LIG    1       27.994 -31.498  14.766  0.00  0.00    -0.251 OA
ATOM     43  C   LIG    1       28.376 -29.150  15.149  0.00  0.00    +0.136 C 
ENDBRANCH  40  41
ENDBRANCH  12  40
TORSDOF 6
ENDMDL
MODEL 6
REMARK VINA RESULT:      -1.6      2.684      9.346
REMARK  Name = *****
REMARK                            x       y       z     vdW  Elec       q    Type
REMARK                         _______ _______ _______ _____ _____    ______ ____
ROOT
ATOM      1  C   LIG    1       27.260 -29.972  14.642  0.00  0.00    +0.200 C 
ATOM      2  C   LIG    1       25.848 -30.589  14.295  0.00  0.00    +0.010 C 
ATOM      3  C   LIG    1       25.900 -31.165  12.864  0.00  0.00    +0.015 C 
ATOM      4  C   LIG    1       24.892 -29.377  14.546  0.00  0.00    +0.003 C 
ATOM      5  C   LIG    1       23.629 -29.662  15.403  0.00  0.00    -0.004 C 
ATOM      6  C   LIG    1       22.865 -30.933  14.983  0.00  0.00    -0.001 C 
ATOM      7  C   LIG    1       23.868 -32.133  14.979  0.00  0.00    +0.005 C 
ATOM      8  C   LIG    1       21.891 -30.744  13.726  0.00  0.00    -0.025 C 
ATOM      9  C   LIG    1       22.681 -30.757  12.395  0.00  0.00    +0.012 C 
ATOM     10  C   LIG    1       21.139 -29.383  13.771  0.00  0.00    -0.001 C 
ATOM     11  C   LIG    1       19.923 -29.458  14.681  0.00  0.00    +0.050 C 
ATOM     12  C   LIG    1       18.846 -30.286  13.999  0.00  0.00    +0.194 C 
ATOM     13  C   LIG    1       19.322 -31.752  13.787  0.00  0.00    +0.098 C 
ATOM     14  C   LIG    1       22.009 -28.193  14.178  0.00  0.00    +0.004 C 
ATOM     15  C   LIG    1       20.869 -31.936  13.621  0.00  0.00    +0.029 C 
ATOM     16  C   LIG    1       22.697 -28.454  15.500  0.00  0.00    +0.004 C 
ATOM     17  C   LIG    1       25.755 -28.331  15.286  0.00  0.00    +0.027 C 
ATOM     18  C   LIG    1       25.371 -31.753  15.211  0.00  0.00    +0.011 C 
ATOM     19  C   LIG    1       27.115 -28.390  14.592  0.00  0.00    +0.099 C 
ENDROOT
BRANCH  13  20
ATOM     20  N   LIG    1       18.471 -32.529  12.820  0.00  0.00    -0.286 NA
ATOM     21  C   LIG    1       17.892 -31.824  11.671  0.00  0.00    +0.136 C 
ATOM     22  C   LIG    1       18.912 -31.506  10.573  0.00  0.00    +0.148 C 
ATOM     23  N   LIG    1       19.627 -32.776  10.035  0.00  0.00    +0.241 N 
ATOM     24  C   LIG    1       20.923 -32.335   9.357  0.00  0.00    +0.192 C 
ATOM     25  C   LIG    1       18.746 -33.438   8.981  0.00  0.00    +0.192 C 
ATOM     26  C   LIG    1       19.964 -33.825  11.143  0.00  0.00    +0.148 C 
ATOM     27  C   LIG    1       18.996 -33.825  12.359  0.00  0.00    +0.136 C 
ENDBRANCH  13  20
BRANCH  19  28
ATOM     28  N   LIG    1       27.049 -27.610  13.307  0.00  0.00    -0.286 NA
ATOM     29  C   LIG    1       25.670 -27.150  12.957  0.00  0.00    +0.136 C 
ATOM     30  C   LIG    1       25.052 -26.070  13.880  0.00  0.00    +0.148 C 
ATOM     31  N   LIG    1       25.976 -24.849  14.105  0.00  0.00    +0.241 N 
ATOM     32  C   LIG    1       25.573 -24.185  15.430  0.00  0.00    +0.192 C 
ATOM     33  C   LIG    1       25.785 -23.812  13.001  0.00  0.00    +0.192 C 
ATOM     34  C   LIG    1       27.461 -25.264  14.223  0.00  0.00    +0.148 C 
ATOM     35  C   LIG    1       27.880 -26.393  13.255  0.00  0.00    +0.136 C 
ENDBRANCH  19  28
BRANCH   1  36
ATOM     36  O   LIG    1       28.332 -30.466  13.830  0.00  0.00    -0.459 OA
BRANCH  36  38
ATOM     37  C   LIG    1       30.115 -30.031  15.294  0.00  0.00    +0.136 C 
ATOM     38  C   LIG    1       29.514 -29.813  13.944  0.00  0.00    +0.304 C 
ATOM     39  O   LIG    1       30.083 -29.223  13.022  0.00  0.00    -0.251 OA
ENDBRANCH  36  38
ENDBRANCH   1  36
BRANCH  12  40
ATOM     40  O   LIG    1       17.688 -30.266  14.856  0.00  0.00    -0.460 OA
BRANCH  40  41
ATOM     41  C   LIG    1       16.636 -29.527  14.393  0.00  0.00    +0.304 C 
ATOM     42  O   LIG    1       15.851 -29.892  13.529  0.00  0.00    -0.251 OA
ATOM     43  C   LIG    1       16.689 -28.140  14.956  0.00  0.00    +0.136 C 
ENDBRANCH  40  41
ENDBRANCH  12  40
TORSDOF 6
ENDMDL
MODEL 7
REMARK VINA RESULT:      -1.2      4.787      7.831
REMARK  Name = *****
REMARK                            x       y       z     vdW  Elec       q    Type
REMARK                         _______ _______ _______ _____ _____    ______ ____
ROOT
ATOM      1  C   LIG    1       22.111 -31.242  13.326  0.00  0.00    +0.200 C 
ATOM      2  C   LIG    1       22.716 -30.688  11.976  0.00  0.00    +0.010 C 
ATOM      3  C   LIG    1       21.768 -29.603  11.421  0.00  0.00    +0.015 C 
ATOM      4  C   LIG    1       22.884 -31.994  11.132  0.00  0.00    +0.003 C 
ATOM      5  C   LIG    1       24.257 -32.191  10.436  0.00  0.00    -0.004 C 
ATOM      6  C   LIG    1       24.761 -30.941   9.687  0.00  0.00    -0.001 C 
ATOM      7  C   LIG    1       24.765 -29.737  10.684  0.00  0.00    +0.005 C 
ATOM      8  C   LIG    1       24.126 -30.731   8.233  0.00  0.00    -0.025 C 
ATOM      9  C   LIG    1       22.703 -30.126   8.322  0.00  0.00    +0.012 C 
ATOM     10  C   LIG    1       23.977 -32.073   7.461  0.00  0.00    -0.001 C 
ATOM     11  C   LIG    1       25.290 -32.480   6.810  0.00  0.00    +0.050 C 
ATOM     12  C   LIG    1       25.555 -31.567   5.623  0.00  0.00    +0.194 C 
ATOM     13  C   LIG    1       25.736 -30.092   6.084  0.00  0.00    +0.098 C 
ATOM     14  C   LIG    1       23.446 -33.232   8.304  0.00  0.00    +0.004 C 
ATOM     15  C   LIG    1       24.968 -29.702   7.393  0.00  0.00    +0.029 C 
ATOM     16  C   LIG    1       24.292 -33.432   9.543  0.00  0.00    +0.004 C 
ATOM     17  C   LIG    1       22.678 -33.150  12.137  0.00  0.00    +0.027 C 
ATOM     18  C   LIG    1       24.118 -30.021  12.084  0.00  0.00    +0.011 C 
ATOM     19  C   LIG    1       21.524 -32.690  13.026  0.00  0.00    +0.099 C 
ENDROOT
BRANCH  13  20
ATOM     20  N   LIG    1       25.650 -29.094   4.962  0.00  0.00    -0.286 NA
ATOM     21  C   LIG    1       24.414 -28.320   4.803  0.00  0.00    +0.136 C 
ATOM     22  C   LIG    1       24.249 -27.212   5.847  0.00  0.00    +0.148 C 
ATOM     23  N   LIG    1       25.435 -26.210   5.847  0.00  0.00    +0.241 N 
ATOM     24  C   LIG    1       25.441 -25.486   7.193  0.00  0.00    +0.192 C 
ATOM     25  C   LIG    1       25.212 -25.169   4.755  0.00  0.00    +0.192 C 
ATOM     26  C   LIG    1       26.828 -26.883   5.627  0.00  0.00    +0.148 C 
ATOM     27  C   LIG    1       26.797 -28.189   4.783  0.00  0.00    +0.136 C 
ENDBRANCH  13  20
BRANCH  19  28
ATOM     28  N   LIG    1       20.223 -32.917  12.307  0.00  0.00    -0.286 NA
ATOM     29  C   LIG    1       19.258 -33.765  13.071  0.00  0.00    +0.136 C 
ATOM     30  C   LIG    1       18.668 -33.142  14.361  0.00  0.00    +0.148 C 
ATOM     31  N   LIG    1       18.076 -31.727  14.148  0.00  0.00    +0.241 N 
ATOM     32  C   LIG    1       18.092 -30.997  15.500  0.00  0.00    +0.192 C 
ATOM     33  C   LIG    1       16.622 -31.810  13.694  0.00  0.00    +0.192 C 
ATOM     34  C   LIG    1       18.920 -30.894  13.157  0.00  0.00    +0.148 C 
ATOM     35  C   LIG    1       19.466 -31.701  11.957  0.00  0.00    +0.136 C 
ENDBRANCH  19  28
BRANCH   1  36
ATOM     36  O   LIG    1       21.162 -30.367  13.948  0.00  0.00    -0.459 OA
BRANCH  36  38
ATOM     37  C   LIG    1       20.801 -28.175  14.707  0.00  0.00    +0.136 C 
ATOM     38  C   LIG    1       21.680 -29.382  14.722  0.00  0.00    +0.304 C 
ATOM     39  O   LIG    1       22.673 -29.504  15.443  0.00  0.00    -0.251 OA
ENDBRANCH  36  38
ENDBRANCH   1  36
BRANCH  12  40
ATOM     40  O   LIG    1       26.762 -32.034   4.990  0.00  0.00    -0.460 OA
BRANCH  40  41
ATOM     41  C   LIG    1       26.573 -32.855   3.915  0.00  0.00    +0.304 C 
ATOM     42  O   LIG    1       25.503 -33.036   3.352  0.00  0.00    -0.251 OA
ATOM     43  C   LIG    1       27.818 -33.641   3.637  0.00  0.00    +0.136 C 
ENDBRANCH  40  41
ENDBRANCH  12  40
TORSDOF 6
ENDMDL
