MODEL 1
REMARK VINA RESULT:      -5.2      0.000      0.000
REMARK  Name = *****
REMARK                            x       y       z     vdW  Elec       q    Type
REMARK                         _______ _______ _______ _____ _____    ______ ____
ROOT
ATOM      1  N   LIG    1       27.311 -17.325   4.101  0.00  0.00    -0.283 NA
ATOM      2  C   LIG    1       26.053 -17.149   3.868  0.00  0.00    +0.076 C 
ENDROOT
BRANCH   2   3
ATOM      3  C   LIG    1       24.966 -18.194   3.949  0.00  0.00    +0.045 A 
ATOM      4  C   LIG    1       25.242 -19.577   4.038  0.00  0.00    +0.126 A 
ATOM      5  C   LIG    1       24.218 -20.518   4.220  0.00  0.00    +0.049 A 
ATOM      6  C   LIG    1       22.897 -20.089   4.285  0.00  0.00    +0.042 A 
ATOM      7  C   LIG    1       22.613 -18.739   4.111  0.00  0.00    +0.124 A 
ATOM      8  F   LIG    1       21.337 -18.337   4.147  0.00  0.00    -0.205 F 
ATOM      9  C   LIG    1       23.626 -17.795   3.926  0.00  0.00    +0.052 A 
BRANCH   4  10
ATOM     10  O   LIG    1       26.522 -20.051   3.951  0.00  0.00    -0.506 OA
ATOM     11  H   LIG    1       26.495 -20.981   3.666  0.00  0.00    +0.292 HD
ENDBRANCH   4  10
ENDBRANCH   2   3
BRANCH   2  12
ATOM     12  C   LIG    1       25.668 -15.742   3.468  0.00  0.00    +0.001 A 
ATOM     13  C   LIG    1       26.569 -15.008   2.678  0.00  0.00    +0.011 A 
ATOM     14  C   LIG    1       26.258 -13.713   2.254  0.00  0.00    +0.020 A 
ATOM     15  C   LIG    1       25.042 -13.144   2.620  0.00  0.00    +0.041 A 
ATOM     16 CL   LIG    1       24.638 -11.567   2.065  0.00  0.00    -0.084 Cl
ATOM     17  C   LIG    1       24.150 -13.847   3.429  0.00  0.00    +0.020 A 
ATOM     18  C   LIG    1       24.467 -15.140   3.866  0.00  0.00    +0.011 A 
ENDBRANCH   2  12
BRANCH   1  19
ATOM     19  C   LIG    1       28.024 -18.540   4.470  0.00  0.00    +0.142 C 
BRANCH  19  20
ATOM     20  C   LIG    1       29.227 -18.150   5.361  0.00  0.00    +0.032 C 
BRANCH  20  21
ATOM     21  C   LIG    1       29.344 -18.985   6.642  0.00  0.00    +0.097 C 
BRANCH  21  25
ATOM     22  N   LIG    1       29.081 -21.412   6.534  0.00  0.00    -0.329 N 
ATOM     23  H   LIG    1       29.961 -21.499   6.038  0.00  0.00    +0.145 HD
ATOM     24  H   LIG    1       28.503 -22.240   6.602  0.00  0.00    +0.145 HD
ATOM     25  C   LIG    1       28.469 -20.215   6.713  0.00  0.00    +0.210 C 
ATOM     26  O   LIG    1       27.268 -20.167   7.022  0.00  0.00    -0.276 OA
ENDBRANCH  21  25
ENDBRANCH  20  21
ENDBRANCH  19  20
ENDBRANCH   1  19
TORSDOF 7
ENDMDL
MODEL 2
REMARK VINA RESULT:      -4.4      2.619      4.401
REMARK  Name = *****
REMARK                            x       y       z     vdW  Elec       q    Type
REMARK                         _______ _______ _______ _____ _____    ______ ____
ROOT
ATOM      1  N   LIG    1       24.864 -19.134   2.961  0.00  0.00    -0.283 NA
ATOM      2  C   LIG    1       25.618 -18.415   3.726  0.00  0.00    +0.076 C 
ENDROOT
BRANCH   2   3
ATOM      3  C   LIG    1       26.735 -18.910   4.612  0.00  0.00    +0.045 A 
ATOM      4  C   LIG    1       27.987 -18.261   4.696  0.00  0.00    +0.126 A 
ATOM      5  C   LIG    1       28.969 -18.679   5.606  0.00  0.00    +0.049 A 
ATOM      6  C   LIG    1       28.721 -19.773   6.426  0.00  0.00    +0.042 A 
ATOM      7  C   LIG    1       27.526 -20.468   6.287  0.00  0.00    +0.124 A 
ATOM      8  F   LIG    1       27.306 -21.539   7.060  0.00  0.00    -0.205 F 
ATOM      9  C   LIG    1       26.543 -20.063   5.381  0.00  0.00    +0.052 A 
BRANCH   4  10
ATOM     10  O   LIG    1       28.289 -17.198   3.891  0.00  0.00    -0.506 OA
ATOM     11  H   LIG    1       28.630 -16.471   4.443  0.00  0.00    +0.292 HD
ENDBRANCH   4  10
ENDBRANCH   2   3
BRANCH   2  12
ATOM     12  C   LIG    1       25.312 -16.934   3.712  0.00  0.00    +0.001 A 
ATOM     13  C   LIG    1       24.045 -16.514   4.151  0.00  0.00    +0.011 A 
ATOM     14  C   LIG    1       23.714 -15.157   4.187  0.00  0.00    +0.020 A 
ATOM     15  C   LIG    1       24.650 -14.210   3.782  0.00  0.00    +0.041 A 
ATOM     16 CL   LIG    1       24.261 -12.536   3.865  0.00  0.00    -0.084 Cl
ATOM     17  C   LIG    1       25.901 -14.611   3.316  0.00  0.00    +0.020 A 
ATOM     18  C   LIG    1       26.229 -15.973   3.266  0.00  0.00    +0.011 A 
ENDBRANCH   2  12
BRANCH   1  19
ATOM     19  C   LIG    1       24.858 -20.576   2.757  0.00  0.00    +0.142 C 
BRANCH  19  20
ATOM     20  C   LIG    1       23.566 -21.153   3.381  0.00  0.00    +0.032 C 
BRANCH  20  21
ATOM     21  C   LIG    1       23.693 -21.478   4.875  0.00  0.00    +0.097 C 
BRANCH  21  25
ATOM     22  N   LIG    1       22.451 -19.411   5.268  0.00  0.00    -0.329 N 
ATOM     23  H   LIG    1       22.636 -19.102   4.321  0.00  0.00    +0.145 HD
ATOM     24  H   LIG    1       22.033 -18.740   5.901  0.00  0.00    +0.145 HD
ATOM     25  C   LIG    1       23.099 -20.464   5.825  0.00  0.00    +0.210 C 
ATOM     26  O   LIG    1       23.101 -20.618   7.057  0.00  0.00    -0.276 OA
ENDBRANCH  21  25
ENDBRANCH  20  21
ENDBRANCH  19  20
ENDBRANCH   1  19
TORSDOF 7
ENDMDL
MODEL 3
REMARK VINA RESULT:      -4.1      3.711      6.449
REMARK  Name = *****
REMARK                            x       y       z     vdW  Elec       q    Type
REMARK                         _______ _______ _______ _____ _____    ______ ____
ROOT
ATOM      1  N   LIG    1       25.872 -17.204   3.389  0.00  0.00    -0.283 NA
ATOM      2  C   LIG    1       26.005 -18.257   4.126  0.00  0.00    +0.076 C 
ENDROOT
BRANCH   2   3
ATOM      3  C   LIG    1       27.249 -18.692   4.861  0.00  0.00    +0.045 A 
ATOM      4  C   LIG    1       28.374 -17.853   5.022  0.00  0.00    +0.126 A 
ATOM      5  C   LIG    1       29.473 -18.242   5.801  0.00  0.00    +0.049 A 
ATOM      6  C   LIG    1       29.475 -19.493   6.407  0.00  0.00    +0.042 A 
ATOM      7  C   LIG    1       28.409 -20.357   6.181  0.00  0.00    +0.124 A 
ATOM      8  F   LIG    1       28.431 -21.571   6.745  0.00  0.00    -0.205 F 
ATOM      9  C   LIG    1       27.311 -19.980   5.404  0.00  0.00    +0.052 A 
BRANCH   4  10
ATOM     10  O   LIG    1       28.432 -16.625   4.423  0.00  0.00    -0.506 OA
ATOM     11  H   LIG    1       29.230 -16.583   3.865  0.00  0.00    +0.292 HD
ENDBRANCH   4  10
ENDBRANCH   2   3
BRANCH   2  12
ATOM     12  C   LIG    1       24.769 -19.124   4.228  0.00  0.00    +0.001 A 
ATOM     13  C   LIG    1       23.541 -18.498   4.501  0.00  0.00    +0.011 A 
ATOM     14  C   LIG    1       22.361 -19.242   4.581  0.00  0.00    +0.020 A 
ATOM     15  C   LIG    1       22.403 -20.619   4.389  0.00  0.00    +0.041 A 
ATOM     16 CL   LIG    1       20.947 -21.533   4.445  0.00  0.00    -0.084 Cl
ATOM     17  C   LIG    1       23.618 -21.261   4.148  0.00  0.00    +0.020 A 
ATOM     18  C   LIG    1       24.804 -20.516   4.081  0.00  0.00    +0.011 A 
ENDBRANCH   2  12
BRANCH   1  19
ATOM     19  C   LIG    1       26.853 -16.182   3.049  0.00  0.00    +0.142 C 
BRANCH  19  20
ATOM     20  C   LIG    1       26.102 -14.865   2.745  0.00  0.00    +0.032 C 
BRANCH  20  21
ATOM     21  C   LIG    1       25.441 -14.232   3.975  0.00  0.00    +0.097 C 
BRANCH  21  25
ATOM     22  N   LIG    1       23.998 -13.016   2.422  0.00  0.00    -0.329 N 
ATOM     23  H   LIG    1       24.520 -13.377   1.632  0.00  0.00    +0.145 HD
ATOM     24  H   LIG    1       23.316 -12.291   2.236  0.00  0.00    +0.145 HD
ATOM     25  C   LIG    1       24.448 -13.127   3.697  0.00  0.00    +0.210 C 
ATOM     26  O   LIG    1       23.973 -12.411   4.593  0.00  0.00    -0.276 OA
ENDBRANCH  21  25
ENDBRANCH  20  21
ENDBRANCH  19  20
ENDBRANCH   1  19
TORSDOF 7
ENDMDL
MODEL 4
REMARK VINA RESULT:      -3.7      1.581      2.041
REMARK  Name = *****
REMARK                            x       y       z     vdW  Elec       q    Type
REMARK                         _______ _______ _______ _____ _____    ______ ____
ROOT
ATOM      1  N   LIG    1       25.871 -18.617   4.102  0.00  0.00    -0.283 NA
ATOM      2  C   LIG    1       24.693 -18.089   4.037  0.00  0.00    +0.076 C 
ENDROOT
BRANCH   2   3
ATOM      3  C   LIG    1       23.373 -18.820   4.099  0.00  0.00    +0.045 A 
ATOM      4  C   LIG    1       23.191 -20.005   4.844  0.00  0.00    +0.126 A 
ATOM      5  C   LIG    1       21.929 -20.604   4.971  0.00  0.00    +0.049 A 
ATOM      6  C   LIG    1       20.835 -20.039   4.327  0.00  0.00    +0.042 A 
ATOM      7  C   LIG    1       21.025 -18.921   3.522  0.00  0.00    +0.124 A 
ATOM      8  F   LIG    1       19.971 -18.399   2.882  0.00  0.00    -0.205 F 
ATOM      9  C   LIG    1       22.278 -18.320   3.386  0.00  0.00    +0.052 A 
BRANCH   4  10
ATOM     10  O   LIG    1       24.241 -20.615   5.473  0.00  0.00    -0.506 OA
ATOM     11  H   LIG    1       24.979 -20.702   4.843  0.00  0.00    +0.292 HD
ENDBRANCH   4  10
ENDBRANCH   2   3
BRANCH   2  12
ATOM     12  C   LIG    1       24.676 -16.585   3.873  0.00  0.00    +0.001 A 
ATOM     13  C   LIG    1       25.803 -15.967   3.307  0.00  0.00    +0.011 A 
ATOM     14  C   LIG    1       25.835 -14.585   3.105  0.00  0.00    +0.020 A 
ATOM     15  C   LIG    1       24.738 -13.812   3.471  0.00  0.00    +0.041 A 
ATOM     16 CL   LIG    1       24.757 -12.115   3.186  0.00  0.00    -0.084 Cl
ATOM     17  C   LIG    1       23.623 -14.405   4.062  0.00  0.00    +0.020 A 
ATOM     18  C   LIG    1       23.596 -15.790   4.278  0.00  0.00    +0.011 A 
ENDBRANCH   2  12
BRANCH   1  19
ATOM     19  C   LIG    1       26.253 -20.017   4.224  0.00  0.00    +0.142 C 
BRANCH  19  20
ATOM     20  C   LIG    1       26.903 -20.228   5.611  0.00  0.00    +0.032 C 
BRANCH  20  21
ATOM     21  C   LIG    1       28.436 -20.183   5.589  0.00  0.00    +0.097 C 
BRANCH  21  25
ATOM     22  N   LIG    1       29.057 -17.942   4.838  0.00  0.00    -0.329 N 
ATOM     23  H   LIG    1       28.983 -18.231   3.869  0.00  0.00    +0.145 HD
ATOM     24  H   LIG    1       29.457 -17.030   5.021  0.00  0.00    +0.145 HD
ATOM     25  C   LIG    1       29.063 -18.835   5.860  0.00  0.00    +0.210 C 
ATOM     26  O   LIG    1       29.474 -18.499   6.981  0.00  0.00    -0.276 OA
ENDBRANCH  21  25
ENDBRANCH  20  21
ENDBRANCH  19  20
ENDBRANCH   1  19
TORSDOF 7
ENDMDL
MODEL 5
REMARK VINA RESULT:      -3.5      2.933      4.905
REMARK  Name = *****
REMARK                            x       y       z     vdW  Elec       q    Type
REMARK                         _______ _______ _______ _____ _____    ______ ____
ROOT
ATOM      1  N   LIG    1       26.574 -17.077   3.833  0.00  0.00    -0.283 NA
ATOM      2  C   LIG    1       25.428 -16.481   3.791  0.00  0.00    +0.076 C 
ENDROOT
BRANCH   2   3
ATOM      3  C   LIG    1       25.188 -14.996   3.666  0.00  0.00    +0.045 A 
ATOM      4  C   LIG    1       25.797 -14.205   2.667  0.00  0.00    +0.126 A 
ATOM      5  C   LIG    1       25.473 -12.850   2.507  0.00  0.00    +0.049 A 
ATOM      6  C   LIG    1       24.556 -12.259   3.367  0.00  0.00    +0.042 A 
ATOM      7  C   LIG    1       24.019 -13.010   4.406  0.00  0.00    +0.124 A 
ATOM      8  F   LIG    1       23.157 -12.426   5.248  0.00  0.00    -0.205 F 
ATOM      9  C   LIG    1       24.337 -14.360   4.576  0.00  0.00    +0.052 A 
BRANCH   4  10
ATOM     10  O   LIG    1       26.727 -14.734   1.814  0.00  0.00    -0.506 OA
ATOM     11  H   LIG    1       26.267 -15.139   1.058  0.00  0.00    +0.292 HD
ENDBRANCH   4  10
ENDBRANCH   2   3
BRANCH   2  12
ATOM     12  C   LIG    1       24.229 -17.399   3.889  0.00  0.00    +0.001 A 
ATOM     13  C   LIG    1       24.411 -18.762   3.604  0.00  0.00    +0.011 A 
ATOM     14  C   LIG    1       23.347 -19.662   3.703  0.00  0.00    +0.020 A 
ATOM     15  C   LIG    1       22.092 -19.202   4.089  0.00  0.00    +0.041 A 
ATOM     16 CL   LIG    1       20.790 -20.315   4.254  0.00  0.00    -0.084 Cl
ATOM     17  C   LIG    1       21.886 -17.848   4.347  0.00  0.00    +0.020 A 
ATOM     18  C   LIG    1       22.950 -16.941   4.233  0.00  0.00    +0.011 A 
ENDBRANCH   2  12
BRANCH   1  19
ATOM     19  C   LIG    1       27.915 -16.509   3.798  0.00  0.00    +0.142 C 
BRANCH  19  20
ATOM     20  C   LIG    1       28.649 -16.907   5.099  0.00  0.00    +0.032 C 
BRANCH  20  21
ATOM     21  C   LIG    1       29.242 -18.321   5.066  0.00  0.00    +0.097 C 
BRANCH  21  25
ATOM     22  N   LIG    1       27.417 -19.946   5.046  0.00  0.00    -0.329 N 
ATOM     23  H   LIG    1       26.979 -19.465   4.268  0.00  0.00    +0.145 HD
ATOM     24  H   LIG    1       26.885 -20.680   5.496  0.00  0.00    +0.145 HD
ATOM     25  C   LIG    1       28.432 -19.394   5.757  0.00  0.00    +0.210 C 
ATOM     26  O   LIG    1       28.726 -19.840   6.877  0.00  0.00    -0.276 OA
ENDBRANCH  21  25
ENDBRANCH  20  21
ENDBRANCH  19  20
ENDBRANCH   1  19
TORSDOF 7
ENDMDL
MODEL 6
REMARK VINA RESULT:      -3.5      2.943      5.029
REMARK  Name = *****
REMARK                            x       y       z     vdW  Elec       q    Type
REMARK                         _______ _______ _______ _____ _____    ______ ____
ROOT
ATOM      1  N   LIG    1       24.364 -19.489   3.212  0.00  0.00    -0.283 NA
ATOM      2  C   LIG    1       25.257 -18.983   3.998  0.00  0.00    +0.076 C 
ENDROOT
BRANCH   2   3
ATOM      3  C   LIG    1       26.020 -19.708   5.081  0.00  0.00    +0.045 A 
ATOM      4  C   LIG    1       25.380 -20.403   6.130  0.00  0.00    +0.126 A 
ATOM      5  C   LIG    1       26.110 -21.157   7.061  0.00  0.00    +0.049 A 
ATOM      6  C   LIG    1       27.496 -21.200   6.972  0.00  0.00    +0.042 A 
ATOM      7  C   LIG    1       28.136 -20.448   5.993  0.00  0.00    +0.124 A 
ATOM      8  F   LIG    1       29.473 -20.473   5.930  0.00  0.00    -0.205 F 
ATOM      9  C   LIG    1       27.419 -19.692   5.064  0.00  0.00    +0.052 A 
BRANCH   4  10
ATOM     10  O   LIG    1       24.021 -20.368   6.278  0.00  0.00    -0.506 OA
ATOM     11  H   LIG    1       23.612 -20.881   5.559  0.00  0.00    +0.292 HD
ENDBRANCH   4  10
ENDBRANCH   2   3
BRANCH   2  12
ATOM     12  C   LIG    1       25.531 -17.510   3.788  0.00  0.00    +0.001 A 
ATOM     13  C   LIG    1       24.448 -16.619   3.848  0.00  0.00    +0.011 A 
ATOM     14  C   LIG    1       24.643 -15.244   3.689  0.00  0.00    +0.020 A 
ATOM     15  C   LIG    1       25.925 -14.753   3.466  0.00  0.00    +0.041 A 
ATOM     16 CL   LIG    1       26.175 -13.058   3.311  0.00  0.00    -0.084 Cl
ATOM     17  C   LIG    1       27.008 -15.627   3.373  0.00  0.00    +0.020 A 
ATOM     18  C   LIG    1       26.811 -17.007   3.519  0.00  0.00    +0.011 A 
ENDBRANCH   2  12
BRANCH   1  19
ATOM     19  C   LIG    1       23.838 -20.845   3.161  0.00  0.00    +0.142 C 
BRANCH  19  20
ATOM     20  C   LIG    1       22.856 -21.035   4.340  0.00  0.00    +0.032 C 
BRANCH  20  21
ATOM     21  C   LIG    1       21.482 -20.395   4.111  0.00  0.00    +0.097 C 
BRANCH  21  25
ATOM     22  N   LIG    1       22.159 -18.283   5.137  0.00  0.00    -0.329 N 
ATOM     23  H   LIG    1       22.415 -18.764   5.991  0.00  0.00    +0.145 HD
ATOM     24  H   LIG    1       22.150 -17.271   5.159  0.00  0.00    +0.145 HD
ATOM     25  C   LIG    1       21.439 -18.885   4.157  0.00  0.00    +0.210 C 
ATOM     26  O   LIG    1       20.867 -18.203   3.292  0.00  0.00    -0.276 OA
ENDBRANCH  21  25
ENDBRANCH  20  21
ENDBRANCH  19  20
ENDBRANCH   1  19
TORSDOF 7
ENDMDL
MODEL 7
REMARK VINA RESULT:      -3.3      4.180      6.278
REMARK  Name = *****
REMARK                            x       y       z     vdW  Elec       q    Type
REMARK                         _______ _______ _______ _____ _____    ______ ____
ROOT
ATOM      1  N   LIG    1       26.397 -15.903   3.613  0.00  0.00    -0.283 NA
ATOM      2  C   LIG    1       25.201 -15.491   3.876  0.00  0.00    +0.076 C 
ENDROOT
BRANCH   2   3
ATOM      3  C   LIG    1       24.763 -14.059   4.069  0.00  0.00    +0.045 A 
ATOM      4  C   LIG    1       24.101 -13.321   3.064  0.00  0.00    +0.126 A 
ATOM      5  C   LIG    1       23.609 -12.029   3.306  0.00  0.00    +0.049 A 
ATOM      6  C   LIG    1       23.801 -11.447   4.553  0.00  0.00    +0.042 A 
ATOM      7  C   LIG    1       24.528 -12.135   5.518  0.00  0.00    +0.124 A 
ATOM      8  F   LIG    1       24.733 -11.555   6.708  0.00  0.00    -0.205 F 
ATOM      9  C   LIG    1       25.024 -13.419   5.286  0.00  0.00    +0.052 A 
BRANCH   4  10
ATOM     10  O   LIG    1       23.913 -13.839   1.812  0.00  0.00    -0.506 OA
ATOM     11  H   LIG    1       24.113 -13.152   1.152  0.00  0.00    +0.292 HD
ENDBRANCH   4  10
ENDBRANCH   2   3
BRANCH   2  12
ATOM     12  C   LIG    1       24.164 -16.584   4.005  0.00  0.00    +0.001 A 
ATOM     13  C   LIG    1       24.533 -17.893   3.654  0.00  0.00    +0.011 A 
ATOM     14  C   LIG    1       23.626 -18.950   3.778  0.00  0.00    +0.020 A 
ATOM     15  C   LIG    1       22.343 -18.702   4.254  0.00  0.00    +0.041 A 
ATOM     16 CL   LIG    1       21.238 -20.006   4.448  0.00  0.00    -0.084 Cl
ATOM     17  C   LIG    1       21.951 -17.404   4.579  0.00  0.00    +0.020 A 
ATOM     18  C   LIG    1       22.855 -16.341   4.442  0.00  0.00    +0.011 A 
ENDBRANCH   2  12
BRANCH   1  19
ATOM     19  C   LIG    1       27.627 -15.138   3.456  0.00  0.00    +0.142 C 
BRANCH  19  20
ATOM     20  C   LIG    1       27.282 -13.788   2.785  0.00  0.00    +0.032 C 
BRANCH  20  21
ATOM     21  C   LIG    1       28.095 -12.604   3.322  0.00  0.00    +0.097 C 
BRANCH  21  25
ATOM     22  N   LIG    1       29.259 -11.680   5.262  0.00  0.00    -0.329 N 
ATOM     23  H   LIG    1       29.905 -11.186   4.657  0.00  0.00    +0.145 HD
ATOM     24  H   LIG    1       29.466 -11.689   6.253  0.00  0.00    +0.145 HD
ATOM     25  C   LIG    1       28.426 -12.644   4.797  0.00  0.00    +0.210 C 
ATOM     26  O   LIG    1       27.894 -13.444   5.582  0.00  0.00    -0.276 OA
ENDBRANCH  21  25
ENDBRANCH  20  21
ENDBRANCH  19  20
ENDBRANCH   1  19
TORSDOF 7
ENDMDL
MODEL 8
REMARK VINA RESULT:      -3.2      4.056      6.211
REMARK  Name = *****
REMARK                            x       y       z     vdW  Elec       q    Type
REMARK                         _______ _______ _______ _____ _____    ______ ____
ROOT
ATOM      1  N   LIG    1       26.396 -16.056   3.543  0.00  0.00    -0.283 NA
ATOM      2  C   LIG    1       25.187 -15.666   3.781  0.00  0.00    +0.076 C 
ENDROOT
BRANCH   2   3
ATOM      3  C   LIG    1       24.712 -14.241   3.926  0.00  0.00    +0.045 A 
ATOM      4  C   LIG    1       24.748 -13.545   5.154  0.00  0.00    +0.126 A 
ATOM      5  C   LIG    1       24.402 -12.188   5.238  0.00  0.00    +0.049 A 
ATOM      6  C   LIG    1       23.983 -11.516   4.096  0.00  0.00    +0.042 A 
ATOM      7  C   LIG    1       23.862 -12.218   2.902  0.00  0.00    +0.124 A 
ATOM      8  F   LIG    1       23.432 -11.571   1.812  0.00  0.00    -0.205 F 
ATOM      9  C   LIG    1       24.202 -13.570   2.809  0.00  0.00    +0.052 A 
BRANCH   4  10
ATOM     10  O   LIG    1       25.126 -14.169   6.311  0.00  0.00    -0.506 OA
ATOM     11  H   LIG    1       26.049 -13.931   6.511  0.00  0.00    +0.292 HD
ENDBRANCH   4  10
ENDBRANCH   2   3
BRANCH   2  12
ATOM     12  C   LIG    1       24.176 -16.781   3.936  0.00  0.00    +0.001 A 
ATOM     13  C   LIG    1       24.588 -18.094   3.656  0.00  0.00    +0.011 A 
ATOM     14  C   LIG    1       23.707 -19.168   3.806  0.00  0.00    +0.020 A 
ATOM     15  C   LIG    1       22.405 -18.933   4.237  0.00  0.00    +0.041 A 
ATOM     16 CL   LIG    1       21.330 -20.257   4.463  0.00  0.00    -0.084 Cl
ATOM     17  C   LIG    1       21.970 -17.633   4.490  0.00  0.00    +0.020 A 
ATOM     18  C   LIG    1       22.850 -16.554   4.326  0.00  0.00    +0.011 A 
ENDBRANCH   2  12
BRANCH   1  19
ATOM     19  C   LIG    1       27.607 -15.267   3.373  0.00  0.00    +0.142 C 
BRANCH  19  20
ATOM     20  C   LIG    1       27.207 -13.849   2.904  0.00  0.00    +0.032 C 
BRANCH  20  21
ATOM     21  C   LIG    1       28.200 -12.756   3.318  0.00  0.00    +0.097 C 
BRANCH  21  25
ATOM     22  N   LIG    1       29.323 -11.659   5.191  0.00  0.00    -0.329 N 
ATOM     23  H   LIG    1       30.097 -11.397   4.591  0.00  0.00    +0.145 HD
ATOM     24  H   LIG    1       29.434 -11.507   6.186  0.00  0.00    +0.145 HD
ATOM     25  C   LIG    1       28.382 -12.557   4.805  0.00  0.00    +0.210 C 
ATOM     26  O   LIG    1       27.651 -13.098   5.649  0.00  0.00    -0.276 OA
ENDBRANCH  21  25
ENDBRANCH  20  21
ENDBRANCH  19  20
ENDBRANCH   1  19
TORSDOF 7
ENDMDL
MODEL 9
REMARK VINA RESULT:      -3.1      3.537      5.825
REMARK  Name = *****
REMARK                            x       y       z     vdW  Elec       q    Type
REMARK                         _______ _______ _______ _____ _____    ______ ____
ROOT
ATOM      1  N   LIG    1       25.869 -17.866   3.705  0.00  0.00    -0.283 NA
ATOM      2  C   LIG    1       25.343 -18.818   4.404  0.00  0.00    +0.076 C 
ENDROOT
BRANCH   2   3
ATOM      3  C   LIG    1       26.060 -19.729   5.370  0.00  0.00    +0.045 A 
ATOM      4  C   LIG    1       25.377 -20.598   6.250  0.00  0.00    +0.126 A 
ATOM      5  C   LIG    1       26.068 -21.510   7.061  0.00  0.00    +0.049 A 
ATOM      6  C   LIG    1       27.457 -21.544   7.025  0.00  0.00    +0.042 A 
ATOM      7  C   LIG    1       28.136 -20.632   6.226  0.00  0.00    +0.124 A 
ATOM      8  F   LIG    1       29.475 -20.652   6.218  0.00  0.00    -0.205 F 
ATOM      9  C   LIG    1       27.458 -19.717   5.417  0.00  0.00    +0.052 A 
BRANCH   4  10
ATOM     10  O   LIG    1       24.013 -20.583   6.342  0.00  0.00    -0.506 OA
ATOM     11  H   LIG    1       23.686 -21.501   6.337  0.00  0.00    +0.292 HD
ENDBRANCH   4  10
ENDBRANCH   2   3
BRANCH   2  12
ATOM     12  C   LIG    1       23.857 -19.015   4.196  0.00  0.00    +0.001 A 
ATOM     13  C   LIG    1       23.008 -17.915   4.399  0.00  0.00    +0.011 A 
ATOM     14  C   LIG    1       21.630 -18.029   4.197  0.00  0.00    +0.020 A 
ATOM     15  C   LIG    1       21.093 -19.246   3.791  0.00  0.00    +0.041 A 
ATOM     16 CL   LIG    1       19.402 -19.379   3.500  0.00  0.00    -0.084 Cl
ATOM     17  C   LIG    1       21.918 -20.356   3.613  0.00  0.00    +0.020 A 
ATOM     18  C   LIG    1       23.299 -20.246   3.830  0.00  0.00    +0.011 A 
ENDBRANCH   2  12
BRANCH   1  19
ATOM     19  C   LIG    1       27.256 -17.429   3.633  0.00  0.00    +0.142 C 
BRANCH  19  20
ATOM     20  C   LIG    1       27.294 -15.893   3.803  0.00  0.00    +0.032 C 
BRANCH  20  21
ATOM     21  C   LIG    1       26.104 -15.169   3.162  0.00  0.00    +0.097 C 
BRANCH  21  25
ATOM     22  N   LIG    1       27.557 -13.215   2.955  0.00  0.00    -0.329 N 
ATOM     23  H   LIG    1       28.293 -13.691   3.464  0.00  0.00    +0.145 HD
ATOM     24  H   LIG    1       27.687 -12.229   2.765  0.00  0.00    +0.145 HD
ATOM     25  C   LIG    1       26.287 -13.690   2.908  0.00  0.00    +0.210 C 
ATOM     26  O   LIG    1       25.353 -12.947   2.569  0.00  0.00    -0.276 OA
ENDBRANCH  21  25
ENDBRANCH  20  21
ENDBRANCH  19  20
ENDBRANCH   1  19
TORSDOF 7
ENDMDL
