MODEL 1
REMARK VINA RESULT:      -6.7      0.000      0.000
REMARK  Name = *****
REMARK                            x       y       z     vdW  Elec       q    Type
REMARK                         _______ _______ _______ _____ _____    ______ ____
ROOT
ATOM      1  C   LIG    1       24.167 -30.274  10.292  0.00  0.00    -0.000 C 
ATOM      2  C   LIG    1       25.256 -29.901  11.007  0.00  0.00    -0.066 C 
ATOM      3  C   LIG    1       25.418 -29.733  12.506  0.00  0.00    +0.021 C 
ATOM      4  C   LIG    1       24.201 -29.750  13.424  0.00  0.00    +0.009 C 
ATOM      5  C   LIG    1       24.628 -28.883  14.604  0.00  0.00    +0.005 C 
ATOM      6  C   LIG    1       25.437 -27.720  14.001  0.00  0.00    +0.002 C 
ATOM      7  C   LIG    1       26.248 -28.427  12.878  0.00  0.00    -0.022 C 
ATOM      8  C   LIG    1       27.635 -28.888  13.420  0.00  0.00    +0.012 C 
ATOM      9  C   LIG    1       26.545 -27.503  11.691  0.00  0.00    +0.008 C 
ATOM     10  C   LIG    1       27.190 -28.236  10.561  0.00  0.00    +0.005 C 
ATOM     11  C   LIG    1       26.592 -29.613  10.414  0.00  0.00    +0.031 C 
ENDROOT
BRANCH   1  19
ATOM     12  C   LIG    1       24.764 -33.601   8.607  0.00  0.00    +0.015 C 
ATOM     13  C   LIG    1       25.152 -32.491   8.001  0.00  0.00    -0.023 C 
ATOM     14  C   LIG    1       26.554 -32.149   7.485  0.00  0.00    +0.147 C 
ATOM     15  C   LIG    1       26.485 -32.002   5.983  0.00  0.00    +0.067 C 
ATOM     16  C   LIG    1       25.357 -31.037   5.569  0.00  0.00    +0.122 C 
ATOM     17  C   LIG    1       24.034 -31.155   6.384  0.00  0.00    +0.067 C 
ATOM     18  C   LIG    1       24.295 -31.306   7.879  0.00  0.00    -0.040 C 
ATOM     19  C   LIG    1       23.916 -30.432   8.836  0.00  0.00    +0.004 C 
BRANCH  14  20
ATOM     20  O   LIG    1       27.515 -33.137   7.841  0.00  0.00    -0.387 OA
ATOM     21  H   LIG    1       28.337 -32.668   8.055  0.00  0.00    +0.210 HD
ENDBRANCH  14  20
BRANCH  16  22
ATOM     22  O   LIG    1       25.842 -29.691   5.640  0.00  0.00    -0.391 OA
ATOM     23  H   LIG    1       25.135 -29.096   5.333  0.00  0.00    +0.210 HD
ENDBRANCH  16  22
ENDBRANCH   1  19
BRANCH   6  24
ATOM     24  C   LIG    1       24.544 -26.475  13.650  0.00  0.00    +0.012 C 
ATOM     25  C   LIG    1       25.081 -25.110  14.121  0.00  0.00    +0.012 C 
BRANCH  24  26
ATOM     26  C   LIG    1       23.073 -26.647  14.036  0.00  0.00    -0.027 C 
ATOM     27  C   LIG    1       22.045 -26.745  13.173  0.00  0.00    -0.027 C 
BRANCH  27  28
ATOM     28  C   LIG    1       20.595 -26.956  13.593  0.00  0.00    +0.011 C 
ATOM     29  C   LIG    1       20.429 -26.400  15.016  0.00  0.00    +0.012 C 
BRANCH  28  30
ATOM     30  C   LIG    1       20.139 -28.448  13.511  0.00  0.00    -0.011 C 
ATOM     31  C   LIG    1       20.377 -29.217  14.817  0.00  0.00    +0.008 C 
ATOM     32  C   LIG    1       20.843 -29.211  12.377  0.00  0.00    +0.008 C 
ENDBRANCH  28  30
ENDBRANCH  27  28
ENDBRANCH  24  26
ENDBRANCH   6  24
TORSDOF 7
ENDMDL
MODEL 2
REMARK VINA RESULT:      -6.2      3.853      7.733
REMARK  Name = *****
REMARK                            x       y       z     vdW  Elec       q    Type
REMARK                         _______ _______ _______ _____ _____    ______ ____
ROOT
ATOM      1  C   LIG    1       22.711 -29.013  12.018  0.00  0.00    -0.000 C 
ATOM      2  C   LIG    1       23.313 -30.120  11.522  0.00  0.00    -0.066 C 
ATOM      3  C   LIG    1       24.660 -30.265  10.839  0.00  0.00    +0.021 C 
ATOM      4  C   LIG    1       25.444 -29.033  10.402  0.00  0.00    +0.009 C 
ATOM      5  C   LIG    1       26.261 -29.530   9.214  0.00  0.00    +0.005 C 
ATOM      6  C   LIG    1       25.336 -30.482   8.435  0.00  0.00    +0.002 C 
ATOM      7  C   LIG    1       24.594 -31.232   9.577  0.00  0.00    -0.022 C 
ATOM      8  C   LIG    1       25.352 -32.543   9.946  0.00  0.00    +0.012 C 
ATOM      9  C   LIG    1       23.176 -31.662   9.180  0.00  0.00    +0.008 C 
ATOM     10  C   LIG    1       22.426 -32.244  10.333  0.00  0.00    +0.005 C 
ATOM     11  C   LIG    1       22.743 -31.495  11.602  0.00  0.00    +0.031 C 
ENDROOT
BRANCH   1  19
ATOM     12  C   LIG    1       22.046 -30.314  15.500  0.00  0.00    +0.015 C 
ATOM     13  C   LIG    1       21.107 -30.433  14.576  0.00  0.00    -0.023 C 
ATOM     14  C   LIG    1       20.396 -31.713  14.125  0.00  0.00    +0.147 C 
ATOM     15  C   LIG    1       18.929 -31.588  14.467  0.00  0.00    +0.067 C 
ATOM     16  C   LIG    1       18.344 -30.265  13.935  0.00  0.00    +0.122 C 
ATOM     17  C   LIG    1       19.267 -29.016  14.069  0.00  0.00    +0.067 C 
ATOM     18  C   LIG    1       20.711 -29.329  13.693  0.00  0.00    -0.040 C 
ATOM     19  C   LIG    1       21.394 -28.780  12.666  0.00  0.00    +0.004 C 
BRANCH  14  20
ATOM     20  O   LIG    1       20.946 -32.877  14.731  0.00  0.00    -0.387 OA
ATOM     21  H   LIG    1       20.353 -33.616  14.516  0.00  0.00    +0.210 HD
ENDBRANCH  14  20
BRANCH  16  22
ATOM     22  O   LIG    1       17.971 -30.435  12.562  0.00  0.00    -0.391 OA
ATOM     23  H   LIG    1       18.701 -30.885  12.101  0.00  0.00    +0.210 HD
ENDBRANCH  16  22
ENDBRANCH   1  19
BRANCH   6  24
ATOM     24  C   LIG    1       24.508 -29.748   7.319  0.00  0.00    +0.012 C 
ATOM     25  C   LIG    1       24.102 -30.609   6.107  0.00  0.00    +0.012 C 
BRANCH  24  26
ATOM     26  C   LIG    1       25.128 -28.424   6.866  0.00  0.00    -0.027 C 
ATOM     27  C   LIG    1       24.465 -27.415   6.270  0.00  0.00    -0.027 C 
BRANCH  27  28
ATOM     28  C   LIG    1       25.109 -26.092   5.868  0.00  0.00    +0.011 C 
ATOM     29  C   LIG    1       26.625 -26.318   5.759  0.00  0.00    +0.012 C 
BRANCH  28  30
ATOM     30  C   LIG    1       24.779 -24.923   6.849  0.00  0.00    -0.011 C 
ATOM     31  C   LIG    1       23.441 -24.241   6.536  0.00  0.00    +0.008 C 
ATOM     32  C   LIG    1       25.872 -23.840   6.856  0.00  0.00    +0.008 C 
ENDBRANCH  28  30
ENDBRANCH  27  28
ENDBRANCH  24  26
ENDBRANCH   6  24
TORSDOF 7
ENDMDL
MODEL 3
REMARK VINA RESULT:      -6.1      3.996      7.343
REMARK  Name = *****
REMARK                            x       y       z     vdW  Elec       q    Type
REMARK                         _______ _______ _______ _____ _____    ______ ____
ROOT
ATOM      1  C   LIG    1       23.530 -30.918  12.177  0.00  0.00    -0.000 C 
ATOM      2  C   LIG    1       24.481 -31.425  11.357  0.00  0.00    -0.066 C 
ATOM      3  C   LIG    1       25.572 -30.711  10.581  0.00  0.00    +0.021 C 
ATOM      4  C   LIG    1       25.568 -29.192  10.458  0.00  0.00    +0.009 C 
ATOM      5  C   LIG    1       26.275 -28.935   9.132  0.00  0.00    +0.005 C 
ATOM      6  C   LIG    1       25.789 -30.040   8.175  0.00  0.00    +0.002 C 
ATOM      7  C   LIG    1       25.735 -31.285   9.106  0.00  0.00    -0.022 C 
ATOM      8  C   LIG    1       27.084 -32.063   9.048  0.00  0.00    +0.012 C 
ATOM      9  C   LIG    1       24.651 -32.287   8.690  0.00  0.00    +0.008 C 
ATOM     10  C   LIG    1       24.511 -33.398   9.678  0.00  0.00    +0.005 C 
ATOM     11  C   LIG    1       24.668 -32.879  11.084  0.00  0.00    +0.031 C 
ENDROOT
BRANCH   1  19
ATOM     12  C   LIG    1       20.873 -32.922  10.392  0.00  0.00    +0.015 C 
ATOM     13  C   LIG    1       20.514 -32.080  11.346  0.00  0.00    -0.023 C 
ATOM     14  C   LIG    1       19.501 -30.934  11.249  0.00  0.00    +0.147 C 
ATOM     15  C   LIG    1       18.350 -31.237  12.180  0.00  0.00    +0.067 C 
ATOM     16  C   LIG    1       18.855 -31.577  13.597  0.00  0.00    +0.122 C 
ATOM     17  C   LIG    1       20.140 -32.456  13.663  0.00  0.00    +0.067 C 
ATOM     18  C   LIG    1       21.189 -32.013  12.648  0.00  0.00    -0.040 C 
ATOM     19  C   LIG    1       22.417 -31.536  12.943  0.00  0.00    +0.004 C 
BRANCH  14  20
ATOM     20  O   LIG    1       19.025 -30.747   9.922  0.00  0.00    -0.387 OA
ATOM     21  H   LIG    1       19.231 -29.831   9.673  0.00  0.00    +0.210 HD
ENDBRANCH  14  20
BRANCH  16  22
ATOM     22  O   LIG    1       19.072 -30.361  14.322  0.00  0.00    -0.391 OA
ATOM     23  H   LIG    1       19.953 -30.405  14.735  0.00  0.00    +0.210 HD
ENDBRANCH  16  22
ENDBRANCH   1  19
BRANCH   6  24
ATOM     24  C   LIG    1       24.513 -29.620   7.360  0.00  0.00    +0.012 C 
ATOM     25  C   LIG    1       24.174 -30.500   6.142  0.00  0.00    +0.012 C 
BRANCH  24  26
ATOM     26  C   LIG    1       24.483 -28.136   6.988  0.00  0.00    -0.027 C 
ATOM     27  C   LIG    1       24.346 -27.646   5.741  0.00  0.00    -0.027 C 
BRANCH  27  28
ATOM     28  C   LIG    1       24.280 -26.159   5.412  0.00  0.00    +0.011 C 
ATOM     29  C   LIG    1       25.402 -25.846   4.410  0.00  0.00    +0.012 C 
BRANCH  28  30
ATOM     30  C   LIG    1       24.375 -25.243   6.673  0.00  0.00    -0.011 C 
ATOM     31  C   LIG    1       23.320 -24.129   6.683  0.00  0.00    +0.008 C 
ATOM     32  C   LIG    1       25.759 -24.587   6.815  0.00  0.00    +0.008 C 
ENDBRANCH  28  30
ENDBRANCH  27  28
ENDBRANCH  24  26
ENDBRANCH   6  24
TORSDOF 7
ENDMDL
MODEL 4
REMARK VINA RESULT:      -6.1     10.916     13.316
REMARK  Name = *****
REMARK                            x       y       z     vdW  Elec       q    Type
REMARK                         _______ _______ _______ _____ _____    ______ ____
ROOT
ATOM      1  C   LIG    1       26.983 -20.462   6.866  0.00  0.00    -0.000 C 
ATOM      2  C   LIG    1       25.787 -21.097   6.859  0.00  0.00    -0.066 C 
ATOM      3  C   LIG    1       24.953 -21.577   5.686  0.00  0.00    +0.021 C 
ATOM      4  C   LIG    1       25.302 -21.155   4.263  0.00  0.00    +0.009 C 
ATOM      5  C   LIG    1       23.960 -21.187   3.539  0.00  0.00    +0.005 C 
ATOM      6  C   LIG    1       22.927 -20.643   4.542  0.00  0.00    +0.002 C 
ATOM      7  C   LIG    1       23.404 -21.270   5.883  0.00  0.00    -0.022 C 
ATOM      8  C   LIG    1       22.682 -22.628   6.134  0.00  0.00    +0.012 C 
ATOM      9  C   LIG    1       23.080 -20.390   7.096  0.00  0.00    +0.008 C 
ATOM     10  C   LIG    1       23.677 -20.931   8.353  0.00  0.00    +0.005 C 
ATOM     11  C   LIG    1       25.045 -21.506   8.085  0.00  0.00    +0.031 C 
ENDROOT
BRANCH   1  19
ATOM     12  C   LIG    1       29.347 -17.591   6.208  0.00  0.00    +0.015 C 
ATOM     13  C   LIG    1       29.763 -18.615   6.934  0.00  0.00    -0.023 C 
ATOM     14  C   LIG    1       30.998 -19.490   6.698  0.00  0.00    +0.147 C 
ATOM     15  C   LIG    1       31.943 -19.304   7.862  0.00  0.00    +0.067 C 
ATOM     16  C   LIG    1       31.217 -19.507   9.207  0.00  0.00    +0.122 C 
ATOM     17  C   LIG    1       29.776 -18.918   9.292  0.00  0.00    +0.067 C 
ATOM     18  C   LIG    1       28.970 -19.193   8.027  0.00  0.00    -0.040 C 
ATOM     19  C   LIG    1       27.844 -19.935   7.957  0.00  0.00    +0.004 C 
BRANCH  14  20
ATOM     20  O   LIG    1       31.655 -19.176   5.475  0.00  0.00    -0.387 OA
ATOM     21  H   LIG    1       31.229 -19.704   4.780  0.00  0.00    +0.210 HD
ENDBRANCH  14  20
BRANCH  16  22
ATOM     22  O   LIG    1       31.177 -20.906   9.511  0.00  0.00    -0.391 OA
ATOM     23  H   LIG    1       30.266 -21.137   9.766  0.00  0.00    +0.210 HD
ENDBRANCH  16  22
ENDBRANCH   1  19
BRANCH   6  24
ATOM     24  C   LIG    1       22.735 -19.087   4.435  0.00  0.00    +0.012 C 
ATOM     25  C   LIG    1       21.388 -18.615   3.853  0.00  0.00    +0.012 C 
BRANCH  24  26
ATOM     26  C   LIG    1       23.904 -18.370   3.757  0.00  0.00    -0.027 C 
ATOM     27  C   LIG    1       24.211 -17.067   3.900  0.00  0.00    -0.027 C 
BRANCH  27  28
ATOM     28  C   LIG    1       25.410 -16.395   3.240  0.00  0.00    +0.011 C 
ATOM     29  C   LIG    1       26.654 -17.248   3.537  0.00  0.00    +0.012 C 
BRANCH  28  30
ATOM     30  C   LIG    1       25.616 -14.915   3.694  0.00  0.00    -0.011 C 
ATOM     31  C   LIG    1       24.313 -14.243   4.146  0.00  0.00    +0.008 C 
ATOM     32  C   LIG    1       26.239 -14.046   2.588  0.00  0.00    +0.008 C 
ENDBRANCH  28  30
ENDBRANCH  27  28
ENDBRANCH  24  26
ENDBRANCH   6  24
TORSDOF 7
ENDMDL
MODEL 5
REMARK VINA RESULT:      -6.0      7.695      9.892
REMARK  Name = *****
REMARK                            x       y       z     vdW  Elec       q    Type
REMARK                         _______ _______ _______ _____ _____    ______ ____
ROOT
ATOM      1  C   LIG    1       25.045 -24.314   5.622  0.00  0.00    -0.000 C 
ATOM      2  C   LIG    1       24.103 -23.348   5.741  0.00  0.00    -0.066 C 
ATOM      3  C   LIG    1       23.621 -22.336   4.720  0.00  0.00    +0.021 C 
ATOM      4  C   LIG    1       24.373 -22.139   3.409  0.00  0.00    +0.009 C 
ATOM      5  C   LIG    1       24.084 -20.687   3.043  0.00  0.00    +0.005 C 
ATOM      6  C   LIG    1       24.117 -19.904   4.368  0.00  0.00    +0.002 C 
ATOM      7  C   LIG    1       23.425 -20.889   5.353  0.00  0.00    -0.022 C 
ATOM      8  C   LIG    1       21.894 -20.605   5.418  0.00  0.00    +0.012 C 
ATOM      9  C   LIG    1       23.942 -20.749   6.790  0.00  0.00    +0.008 C 
ATOM     10  C   LIG    1       23.381 -21.800   7.689  0.00  0.00    +0.005 C 
ATOM     11  C   LIG    1       23.284 -23.119   6.965  0.00  0.00    +0.031 C 
ENDROOT
BRANCH   1  19
ATOM     12  C   LIG    1       26.980 -27.292   4.338  0.00  0.00    +0.015 C 
ATOM     13  C   LIG    1       26.098 -27.466   5.308  0.00  0.00    -0.023 C 
ATOM     14  C   LIG    1       24.913 -28.436   5.333  0.00  0.00    +0.147 C 
ATOM     15  C   LIG    1       25.142 -29.438   6.441  0.00  0.00    +0.067 C 
ATOM     16  C   LIG    1       25.466 -28.731   7.772  0.00  0.00    +0.122 C 
ATOM     17  C   LIG    1       26.397 -27.486   7.667  0.00  0.00    +0.067 C 
ATOM     18  C   LIG    1       26.027 -26.593   6.487  0.00  0.00    -0.040 C 
ATOM     19  C   LIG    1       25.595 -25.316   6.571  0.00  0.00    +0.004 C 
BRANCH  14  20
ATOM     20  O   LIG    1       24.741 -29.107   4.090  0.00  0.00    -0.387 OA
ATOM     21  H   LIG    1       23.820 -29.414   4.059  0.00  0.00    +0.210 HD
ENDBRANCH  14  20
BRANCH  16  22
ATOM     22  O   LIG    1       24.242 -28.356   8.414  0.00  0.00    -0.391 OA
ATOM     23  H   LIG    1       23.942 -29.104   8.961  0.00  0.00    +0.210 HD
ENDBRANCH  16  22
ENDBRANCH   1  19
BRANCH   6  24
ATOM     24  C   LIG    1       25.544 -19.338   4.705  0.00  0.00    +0.012 C 
ATOM     25  C   LIG    1       26.300 -18.680   3.534  0.00  0.00    +0.012 C 
BRANCH  24  26
ATOM     26  C   LIG    1       26.440 -20.334   5.443  0.00  0.00    -0.027 C 
ATOM     27  C   LIG    1       27.531 -20.018   6.166  0.00  0.00    -0.027 C 
BRANCH  27  28
ATOM     28  C   LIG    1       28.378 -21.035   6.922  0.00  0.00    +0.011 C 
ATOM     29  C   LIG    1       27.443 -21.845   7.834  0.00  0.00    +0.012 C 
BRANCH  28  30
ATOM     30  C   LIG    1       29.541 -20.386   7.737  0.00  0.00    -0.011 C 
ATOM     31  C   LIG    1       30.474 -19.531   6.869  0.00  0.00    +0.008 C 
ATOM     32  C   LIG    1       30.399 -21.433   8.467  0.00  0.00    +0.008 C 
ENDBRANCH  28  30
ENDBRANCH  27  28
ENDBRANCH  24  26
ENDBRANCH   6  24
TORSDOF 7
ENDMDL
MODEL 6
REMARK VINA RESULT:      -5.9      9.221     11.007
REMARK  Name = *****
REMARK                            x       y       z     vdW  Elec       q    Type
REMARK                         _______ _______ _______ _____ _____    ______ ____
ROOT
ATOM      1  C   LIG    1       25.029 -24.245   5.858  0.00  0.00    -0.000 C 
ATOM      2  C   LIG    1       24.390 -23.083   6.133  0.00  0.00    -0.066 C 
ATOM      3  C   LIG    1       23.822 -22.043   5.185  0.00  0.00    +0.021 C 
ATOM      4  C   LIG    1       24.141 -22.096   3.696  0.00  0.00    +0.009 C 
ATOM      5  C   LIG    1       24.050 -20.639   3.256  0.00  0.00    +0.005 C 
ATOM      6  C   LIG    1       24.661 -19.814   4.403  0.00  0.00    +0.002 C 
ATOM      7  C   LIG    1       24.135 -20.558   5.664  0.00  0.00    -0.022 C 
ATOM      8  C   LIG    1       22.796 -19.925   6.148  0.00  0.00    +0.012 C 
ATOM      9  C   LIG    1       25.101 -20.464   6.852  0.00  0.00    +0.008 C 
ATOM     10  C   LIG    1       24.655 -21.307   8.001  0.00  0.00    +0.005 C 
ATOM     11  C   LIG    1       24.068 -22.605   7.508  0.00  0.00    +0.031 C 
ENDROOT
BRANCH   1  19
ATOM     12  C   LIG    1       26.752 -27.220   4.296  0.00  0.00    +0.015 C 
ATOM     13  C   LIG    1       25.961 -27.407   5.339  0.00  0.00    -0.023 C 
ATOM     14  C   LIG    1       24.758 -28.349   5.443  0.00  0.00    +0.147 C 
ATOM     15  C   LIG    1       25.062 -29.396   6.490  0.00  0.00    +0.067 C 
ATOM     16  C   LIG    1       25.529 -28.746   7.808  0.00  0.00    +0.122 C 
ATOM     17  C   LIG    1       26.480 -27.521   7.656  0.00  0.00    +0.067 C 
ATOM     18  C   LIG    1       26.025 -26.577   6.549  0.00  0.00    -0.040 C 
ATOM     19  C   LIG    1       25.638 -25.294   6.717  0.00  0.00    +0.004 C 
BRANCH  14  20
ATOM     20  O   LIG    1       24.450 -28.970   4.201  0.00  0.00    -0.387 OA
ATOM     21  H   LIG    1       24.265 -28.259   3.566  0.00  0.00    +0.210 HD
ENDBRANCH  14  20
BRANCH  16  22
ATOM     22  O   LIG    1       24.382 -28.365   8.576  0.00  0.00    -0.391 OA
ATOM     23  H   LIG    1       24.287 -27.398   8.524  0.00  0.00    +0.210 HD
ENDBRANCH  16  22
ENDBRANCH   1  19
BRANCH   6  24
ATOM     24  C   LIG    1       26.204 -19.575   4.226  0.00  0.00    +0.012 C 
ATOM     25  C   LIG    1       27.101 -20.103   5.363  0.00  0.00    +0.012 C 
BRANCH  24  26
ATOM     26  C   LIG    1       26.565 -18.132   3.871  0.00  0.00    -0.027 C 
ATOM     27  C   LIG    1       25.691 -17.176   3.502  0.00  0.00    -0.027 C 
BRANCH  27  28
ATOM     28  C   LIG    1       26.082 -15.734   3.194  0.00  0.00    +0.011 C 
ATOM     29  C   LIG    1       27.428 -15.453   3.881  0.00  0.00    +0.012 C 
BRANCH  28  30
ATOM     30  C   LIG    1       24.999 -14.696   3.624  0.00  0.00    -0.011 C 
ATOM     31  C   LIG    1       25.538 -13.638   4.597  0.00  0.00    +0.008 C 
ATOM     32  C   LIG    1       23.777 -15.362   4.278  0.00  0.00    +0.008 C 
ENDBRANCH  28  30
ENDBRANCH  27  28
ENDBRANCH  24  26
ENDBRANCH   6  24
TORSDOF 7
ENDMDL
MODEL 7
REMARK VINA RESULT:      -5.9      4.354      7.863
REMARK  Name = *****
REMARK                            x       y       z     vdW  Elec       q    Type
REMARK                         _______ _______ _______ _____ _____    ______ ____
ROOT
ATOM      1  C   LIG    1       22.949 -29.994  11.017  0.00  0.00    -0.000 C 
ATOM      2  C   LIG    1       23.798 -30.615  10.163  0.00  0.00    -0.066 C 
ATOM      3  C   LIG    1       25.138 -30.153   9.623  0.00  0.00    +0.021 C 
ATOM      4  C   LIG    1       25.603 -28.716   9.831  0.00  0.00    +0.009 C 
ATOM      5  C   LIG    1       26.511 -28.455   8.633  0.00  0.00    +0.005 C 
ATOM      6  C   LIG    1       25.837 -29.148   7.435  0.00  0.00    +0.002 C 
ATOM      7  C   LIG    1       25.300 -30.462   8.070  0.00  0.00    -0.022 C 
ATOM      8  C   LIG    1       26.351 -31.604   7.924  0.00  0.00    +0.012 C 
ATOM      9  C   LIG    1       24.025 -30.972   7.387  0.00  0.00    +0.008 C 
ATOM     10  C   LIG    1       23.440 -32.145   8.102  0.00  0.00    +0.005 C 
ATOM     11  C   LIG    1       23.573 -31.975   9.595  0.00  0.00    +0.031 C 
ENDROOT
BRANCH   1  19
ATOM     12  C   LIG    1       20.870 -27.419  12.835  0.00  0.00    +0.015 C 
ATOM     13  C   LIG    1       20.948 -28.645  13.323  0.00  0.00    -0.023 C 
ATOM     14  C   LIG    1       21.385 -29.066  14.730  0.00  0.00    +0.147 C 
ATOM     15  C   LIG    1       20.209 -29.722  15.416  0.00  0.00    +0.067 C 
ATOM     16  C   LIG    1       19.599 -30.831  14.537  0.00  0.00    +0.122 C 
ATOM     17  C   LIG    1       19.512 -30.514  13.013  0.00  0.00    +0.067 C 
ATOM     18  C   LIG    1       20.781 -29.847  12.494  0.00  0.00    -0.040 C 
ATOM     19  C   LIG    1       21.617 -30.359  11.566  0.00  0.00    +0.004 C 
BRANCH  14  20
ATOM     20  O   LIG    1       21.854 -27.965  15.500  0.00  0.00    -0.387 OA
ATOM     21  H   LIG    1       21.824 -28.238  16.431  0.00  0.00    +0.210 HD
ENDBRANCH  14  20
BRANCH  16  22
ATOM     22  O   LIG    1       20.339 -32.042  14.729  0.00  0.00    -0.391 OA
ATOM     23  H   LIG    1       20.394 -32.219  15.684  0.00  0.00    +0.210 HD
ENDBRANCH  16  22
ENDBRANCH   1  19
BRANCH   6  24
ATOM     24  C   LIG    1       24.854 -28.200   6.658  0.00  0.00    +0.012 C 
ATOM     25  C   LIG    1       24.482 -28.643   5.230  0.00  0.00    +0.012 C 
BRANCH  24  26
ATOM     26  C   LIG    1       25.273 -26.729   6.683  0.00  0.00    -0.027 C 
ATOM     27  C   LIG    1       24.808 -25.770   5.859  0.00  0.00    -0.027 C 
BRANCH  27  28
ATOM     28  C   LIG    1       25.219 -24.304   5.940  0.00  0.00    +0.011 C 
ATOM     29  C   LIG    1       25.915 -24.081   7.292  0.00  0.00    +0.012 C 
BRANCH  28  30
ATOM     30  C   LIG    1       24.025 -23.317   5.748  0.00  0.00    -0.011 C 
ATOM     31  C   LIG    1       24.448 -21.844   5.827  0.00  0.00    +0.008 C 
ATOM     32  C   LIG    1       22.907 -23.545   6.779  0.00  0.00    +0.008 C 
ENDBRANCH  28  30
ENDBRANCH  27  28
ENDBRANCH  24  26
ENDBRANCH   6  24
TORSDOF 7
ENDMDL
MODEL 8
REMARK VINA RESULT:      -5.9      1.820      3.457
REMARK  Name = *****
REMARK                            x       y       z     vdW  Elec       q    Type
REMARK                         _______ _______ _______ _____ _____    ______ ____
ROOT
ATOM      1  C   LIG    1       25.538 -31.637  11.421  0.00  0.00    -0.000 C 
ATOM      2  C   LIG    1       25.781 -30.668  12.336  0.00  0.00    -0.066 C 
ATOM      3  C   LIG    1       25.015 -30.313  13.596  0.00  0.00    +0.021 C 
ATOM      4  C   LIG    1       23.643 -30.920  13.867  0.00  0.00    +0.009 C 
ATOM      5  C   LIG    1       22.944 -29.866  14.719  0.00  0.00    +0.005 C 
ATOM      6  C   LIG    1       23.362 -28.506  14.132  0.00  0.00    +0.002 C 
ATOM      7  C   LIG    1       24.859 -28.740  13.783  0.00  0.00    -0.022 C 
ATOM      8  C   LIG    1       25.767 -28.314  14.976  0.00  0.00    +0.012 C 
ATOM      9  C   LIG    1       25.324 -27.909  12.581  0.00  0.00    +0.008 C 
ATOM     10  C   LIG    1       26.716 -28.257  12.166  0.00  0.00    +0.005 C 
ATOM     11  C   LIG    1       26.948 -29.742  12.290  0.00  0.00    +0.031 C 
ENDROOT
BRANCH   1  19
ATOM     12  C   LIG    1       26.120 -29.080   8.703  0.00  0.00    +0.015 C 
ATOM     13  C   LIG    1       25.701 -30.290   8.372  0.00  0.00    -0.023 C 
ATOM     14  C   LIG    1       24.460 -30.657   7.552  0.00  0.00    +0.147 C 
ATOM     15  C   LIG    1       24.914 -31.332   6.278  0.00  0.00    +0.067 C 
ATOM     16  C   LIG    1       25.894 -32.483   6.577  0.00  0.00    +0.122 C 
ATOM     17  C   LIG    1       26.932 -32.211   7.707  0.00  0.00    +0.067 C 
ATOM     18  C   LIG    1       26.300 -31.518   8.909  0.00  0.00    -0.040 C 
ATOM     19  C   LIG    1       26.212 -32.028  10.156  0.00  0.00    +0.004 C 
BRANCH  14  20
ATOM     20  O   LIG    1       23.658 -29.521   7.249  0.00  0.00    -0.387 OA
ATOM     21  H   LIG    1       23.821 -29.299   6.318  0.00  0.00    +0.210 HD
ENDBRANCH  14  20
BRANCH  16  22
ATOM     22  O   LIG    1       25.147 -33.665   6.891  0.00  0.00    -0.391 OA
ATOM     23  H   LIG    1       25.649 -34.176   7.550  0.00  0.00    +0.210 HD
ENDBRANCH  16  22
ENDBRANCH   1  19
BRANCH   6  24
ATOM     24  C   LIG    1       22.375 -27.993  13.022  0.00  0.00    +0.012 C 
ATOM     25  C   LIG    1       21.299 -26.993  13.490  0.00  0.00    +0.012 C 
BRANCH  24  26
ATOM     26  C   LIG    1       21.752 -29.115  12.189  0.00  0.00    -0.027 C 
ATOM     27  C   LIG    1       22.317 -29.695  11.113  0.00  0.00    -0.027 C 
BRANCH  27  28
ATOM     28  C   LIG    1       21.683 -30.840  10.331  0.00  0.00    +0.011 C 
ATOM     29  C   LIG    1       20.176 -30.845  10.636  0.00  0.00    +0.012 C 
BRANCH  28  30
ATOM     30  C   LIG    1       22.327 -32.229  10.638  0.00  0.00    -0.011 C 
ATOM     31  C   LIG    1       22.514 -33.091   9.383  0.00  0.00    +0.008 C 
ATOM     32  C   LIG    1       21.508 -33.042  11.653  0.00  0.00    +0.008 C 
ENDBRANCH  28  30
ENDBRANCH  27  28
ENDBRANCH  24  26
ENDBRANCH   6  24
TORSDOF 7
ENDMDL
MODEL 9
REMARK VINA RESULT:      -5.5      3.031      7.469
REMARK  Name = *****
REMARK                            x       y       z     vdW  Elec       q    Type
REMARK                         _______ _______ _______ _____ _____    ______ ____
ROOT
ATOM      1  C   LIG    1       23.925 -26.934  13.255  0.00  0.00    -0.000 C 
ATOM      2  C   LIG    1       24.978 -27.738  13.536  0.00  0.00    -0.066 C 
ATOM      3  C   LIG    1       26.156 -28.131  12.664  0.00  0.00    +0.021 C 
ATOM      4  C   LIG    1       26.158 -27.811  11.174  0.00  0.00    +0.009 C 
ATOM      5  C   LIG    1       27.030 -28.906  10.571  0.00  0.00    +0.005 C 
ATOM      6  C   LIG    1       26.680 -30.193  11.339  0.00  0.00    +0.002 C 
ATOM      7  C   LIG    1       26.514 -29.676  12.796  0.00  0.00    -0.022 C 
ATOM      8  C   LIG    1       27.864 -29.784  13.568  0.00  0.00    +0.012 C 
ATOM      9  C   LIG    1       25.500 -30.496  13.603  0.00  0.00    +0.008 C 
ATOM     10  C   LIG    1       25.240 -29.896  14.946  0.00  0.00    +0.005 C 
ATOM     11  C   LIG    1       25.208 -28.392  14.856  0.00  0.00    +0.031 C 
ENDROOT
BRANCH   1  19
ATOM     12  C   LIG    1       22.057 -29.466  15.344  0.00  0.00    +0.015 C 
ATOM     13  C   LIG    1       21.373 -28.599  14.617  0.00  0.00    -0.023 C 
ATOM     14  C   LIG    1       20.301 -28.901  13.564  0.00  0.00    +0.147 C 
ATOM     15  C   LIG    1       18.989 -28.327  14.044  0.00  0.00    +0.067 C 
ATOM     16  C   LIG    1       19.142 -26.847  14.449  0.00  0.00    +0.122 C 
ATOM     17  C   LIG    1       20.454 -26.488  15.210  0.00  0.00    +0.067 C 
ATOM     18  C   LIG    1       21.676 -27.162  14.594  0.00  0.00    -0.040 C 
ATOM     19  C   LIG    1       22.726 -26.526  14.031  0.00  0.00    +0.004 C 
BRANCH  14  20
ATOM     20  O   LIG    1       20.168 -30.295  13.315  0.00  0.00    -0.387 OA
ATOM     21  H   LIG    1       19.640 -30.390  12.506  0.00  0.00    +0.210 HD
ENDBRANCH  14  20
BRANCH  16  22
ATOM     22  O   LIG    1       19.030 -26.027  13.281  0.00  0.00    -0.391 OA
ATOM     23  H   LIG    1       18.929 -26.609  12.507  0.00  0.00    +0.210 HD
ENDBRANCH  16  22
ENDBRANCH   1  19
BRANCH   6  24
ATOM     24  C   LIG    1       25.519 -31.008  10.664  0.00  0.00    +0.012 C 
ATOM     25  C   LIG    1       25.490 -32.518  10.971  0.00  0.00    +0.012 C 
BRANCH  24  26
ATOM     26  C   LIG    1       25.383 -30.753   9.162  0.00  0.00    -0.027 C 
ATOM     27  C   LIG    1       24.404 -30.038   8.575  0.00  0.00    -0.027 C 
BRANCH  27  28
ATOM     28  C   LIG    1       24.324 -29.771   7.076  0.00  0.00    +0.011 C 
ATOM     29  C   LIG    1       25.364 -30.663   6.380  0.00  0.00    +0.012 C 
BRANCH  28  30
ATOM     30  C   LIG    1       24.528 -28.268   6.706  0.00  0.00    -0.011 C 
ATOM     31  C   LIG    1       24.623 -28.033   5.193  0.00  0.00    +0.008 C 
ATOM     32  C   LIG    1       25.786 -27.672   7.358  0.00  0.00    +0.008 C 
ENDBRANCH  28  30
ENDBRANCH  27  28
ENDBRANCH  24  26
ENDBRANCH   6  24
TORSDOF 7
ENDMDL
