MODEL 1
REMARK VINA RESULT:      -5.1      0.000      0.000
REMARK  Name = *****
REMARK                            x       y       z     vdW  Elec       q    Type
REMARK                         _______ _______ _______ _____ _____    ______ ____
ROOT
ATOM      1  C   LIG    1       29.449 -18.929   8.211  0.00  0.00    +0.243 C 
ATOM      2  N   LIG    1       30.795 -19.315   8.647  0.00  0.00    -0.255 N 
ENDROOT
BRANCH   2   3
ATOM      3  C   LIG    1       31.115 -20.647   8.757  0.00  0.00    +0.379 C 
ATOM      4  N   LIG    1       32.135 -21.175   9.330  0.00  0.00    -0.130 NA
ATOM      5  H   LIG    1       32.730 -20.471   9.763  0.00  0.00    +0.306 HD
BRANCH   3   6
ATOM      6  N   LIG    1       30.255 -21.500   8.168  0.00  0.00    -0.289 N 
ATOM      7  H   LIG    1       29.569 -21.787   8.863  0.00  0.00    +0.255 HD
ATOM      8  H   LIG    1       30.687 -22.335   7.786  0.00  0.00    +0.255 HD
ENDBRANCH   3   6
ENDBRANCH   2   3
BRANCH   2   9
ATOM      9  C   LIG    1       31.855 -18.362   8.178  0.00  0.00    +0.319 C 
BRANCH   9  10
ATOM     10  C   LIG    1       32.260 -17.394   9.282  0.00  0.00    +0.339 C 
ATOM     11  O   LIG    1       32.368 -17.698  10.466  0.00  0.00    -0.247 OA
BRANCH  10  12
ATOM     12  O   LIG    1       32.546 -16.149   8.818  0.00  0.00    -0.478 OA
ATOM     13  H   LIG    1       31.886 -15.537   9.221  0.00  0.00    +0.295 HD
ENDBRANCH  10  12
ENDBRANCH   9  10
ENDBRANCH   2   9
TORSDOF 5
ENDMDL
MODEL 2
REMARK VINA RESULT:      -5.1      3.008      3.686
REMARK  Name = *****
REMARK                            x       y       z     vdW  Elec       q    Type
REMARK                         _______ _______ _______ _____ _____    ______ ____
ROOT
ATOM      1  C   LIG    1       30.727 -19.263   6.622  0.00  0.00    +0.243 C 
ATOM      2  N   LIG    1       30.937 -19.735   7.995  0.00  0.00    -0.255 N 
ENDROOT
BRANCH   2   3
ATOM      3  C   LIG    1       31.058 -18.821   9.014  0.00  0.00    +0.379 C 
ATOM      4  N   LIG    1       32.073 -18.598   9.767  0.00  0.00    -0.130 NA
ATOM      5  H   LIG    1       32.867 -19.183   9.512  0.00  0.00    +0.306 HD
BRANCH   3   6
ATOM      6  N   LIG    1       29.959 -18.082   9.262  0.00  0.00    -0.289 N 
ATOM      7  H   LIG    1       29.514 -18.448  10.101  0.00  0.00    +0.255 HD
ATOM      8  H   LIG    1       29.274 -18.084   8.514  0.00  0.00    +0.255 HD
ENDBRANCH   3   6
ENDBRANCH   2   3
BRANCH   2   9
ATOM      9  C   LIG    1       30.240 -21.032   8.279  0.00  0.00    +0.319 C 
BRANCH   9  10
ATOM     10  C   LIG    1       31.084 -21.934   9.172  0.00  0.00    +0.339 C 
ATOM     11  O   LIG    1       30.763 -22.287  10.302  0.00  0.00    -0.247 OA
BRANCH  10  12
ATOM     12  O   LIG    1       32.224 -22.360   8.568  0.00  0.00    -0.478 OA
ATOM     13  H   LIG    1       32.117 -22.189   7.603  0.00  0.00    +0.295 HD
ENDBRANCH  10  12
ENDBRANCH   9  10
ENDBRANCH   2   9
TORSDOF 5
ENDMDL
MODEL 3
REMARK VINA RESULT:      -5.1      2.411      3.069
REMARK  Name = *****
REMARK                            x       y       z     vdW  Elec       q    Type
REMARK                         _______ _______ _______ _____ _____    ______ ____
ROOT
ATOM      1  C   LIG    1       29.152 -21.018   7.571  0.00  0.00    +0.243 C 
ATOM      2  N   LIG    1       29.667 -19.720   7.123  0.00  0.00    -0.255 N 
ENDROOT
BRANCH   2   3
ATOM      3  C   LIG    1       29.192 -19.169   5.957  0.00  0.00    +0.379 C 
ATOM      4  N   LIG    1       29.577 -18.095   5.369  0.00  0.00    -0.130 NA
ATOM      5  H   LIG    1       30.352 -17.654   5.862  0.00  0.00    +0.306 HD
BRANCH   3   6
ATOM      6  N   LIG    1       28.179 -19.838   5.371  0.00  0.00    -0.289 N 
ATOM      7  H   LIG    1       27.499 -19.156   5.041  0.00  0.00    +0.255 HD
ATOM      8  H   LIG    1       27.700 -20.493   5.980  0.00  0.00    +0.255 HD
ENDBRANCH   3   6
ENDBRANCH   2   3
BRANCH   2   9
ATOM      9  C   LIG    1       30.002 -18.802   8.261  0.00  0.00    +0.319 C 
BRANCH   9  10
ATOM     10  C   LIG    1       31.497 -18.808   8.558  0.00  0.00    +0.339 C 
ATOM     11  O   LIG    1       32.076 -19.693   9.179  0.00  0.00    -0.247 OA
BRANCH  10  12
ATOM     12  O   LIG    1       32.149 -17.746   8.018  0.00  0.00    -0.478 OA
ATOM     13  H   LIG    1       31.710 -17.549   7.157  0.00  0.00    +0.295 HD
ENDBRANCH  10  12
ENDBRANCH   9  10
ENDBRANCH   2   9
TORSDOF 5
ENDMDL
MODEL 4
REMARK VINA RESULT:      -4.9      1.375      1.738
REMARK  Name = *****
REMARK                            x       y       z     vdW  Elec       q    Type
REMARK                         _______ _______ _______ _____ _____    ______ ____
ROOT
ATOM      1  C   LIG    1       30.477 -19.048   6.752  0.00  0.00    +0.243 C 
ATOM      2  N   LIG    1       30.787 -19.306   8.162  0.00  0.00    -0.255 N 
ENDROOT
BRANCH   2   3
ATOM      3  C   LIG    1       31.075 -20.587   8.569  0.00  0.00    +0.379 C 
ATOM      4  N   LIG    1       32.031 -20.984   9.328  0.00  0.00    -0.130 NA
ATOM      5  H   LIG    1       32.596 -20.205   9.661  0.00  0.00    +0.306 HD
BRANCH   3   6
ATOM      6  N   LIG    1       30.257 -21.544   8.090  0.00  0.00    -0.289 N 
ATOM      7  H   LIG    1       29.753 -21.952   8.875  0.00  0.00    +0.255 HD
ATOM      8  H   LIG    1       30.732 -22.293   7.596  0.00  0.00    +0.255 HD
ENDBRANCH   3   6
ENDBRANCH   2   3
BRANCH   2   9
ATOM      9  C   LIG    1       31.515 -18.169   8.817  0.00  0.00    +0.319 C 
BRANCH   9  10
ATOM     10  C   LIG    1       30.746 -17.635  10.020  0.00  0.00    +0.339 C 
ATOM     11  O   LIG    1       30.134 -16.572  10.035  0.00  0.00    -0.247 OA
BRANCH  10  12
ATOM     12  O   LIG    1       30.760 -18.487  11.078  0.00  0.00    -0.478 OA
ATOM     13  H   LIG    1       31.207 -19.312  10.774  0.00  0.00    +0.295 HD
ENDBRANCH  10  12
ENDBRANCH   9  10
ENDBRANCH   2   9
TORSDOF 5
ENDMDL
MODEL 5
REMARK VINA RESULT:      -4.8      1.671      2.001
REMARK  Name = *****
REMARK                            x       y       z     vdW  Elec       q    Type
REMARK                         _______ _______ _______ _____ _____    ______ ____
ROOT
ATOM      1  C   LIG    1       30.036 -18.762   6.146  0.00  0.00    +0.243 C 
ATOM      2  N   LIG    1       29.574 -19.284   7.436  0.00  0.00    -0.255 N 
ENDROOT
BRANCH   2   3
ATOM      3  C   LIG    1       29.404 -20.639   7.596  0.00  0.00    +0.379 C 
ATOM      4  N   LIG    1       29.632 -21.352   8.639  0.00  0.00    -0.130 NA
ATOM      5  H   LIG    1       29.951 -20.782   9.422  0.00  0.00    +0.306 HD
BRANCH   3   6
ATOM      6  N   LIG    1       28.961 -21.300   6.509  0.00  0.00    -0.289 N 
ATOM      7  H   LIG    1       29.617 -22.051   6.306  0.00  0.00    +0.255 HD
ATOM      8  H   LIG    1       28.870 -20.726   5.677  0.00  0.00    +0.255 HD
ENDBRANCH   3   6
ENDBRANCH   2   3
BRANCH   2   9
ATOM      9  C   LIG    1       30.075 -18.486   8.602  0.00  0.00    +0.319 C 
BRANCH   9  10
ATOM     10  C   LIG    1       31.590 -18.588   8.737  0.00  0.00    +0.339 C 
ATOM     11  O   LIG    1       32.181 -19.566   9.183  0.00  0.00    -0.247 OA
BRANCH  10  12
ATOM     12  O   LIG    1       32.240 -17.495   8.260  0.00  0.00    -0.478 OA
ATOM     13  H   LIG    1       32.896 -17.232   8.948  0.00  0.00    +0.295 HD
ENDBRANCH  10  12
ENDBRANCH   9  10
ENDBRANCH   2   9
TORSDOF 5
ENDMDL
MODEL 6
REMARK VINA RESULT:      -4.7      2.865      3.671
REMARK  Name = *****
REMARK                            x       y       z     vdW  Elec       q    Type
REMARK                         _______ _______ _______ _____ _____    ______ ____
ROOT
ATOM      1  C   LIG    1       30.135 -17.825   8.599  0.00  0.00    +0.243 C 
ATOM      2  N   LIG    1       30.156 -19.044   7.783  0.00  0.00    -0.255 N 
ENDROOT
BRANCH   2   3
ATOM      3  C   LIG    1       29.591 -19.030   6.530  0.00  0.00    +0.379 C 
ATOM      4  N   LIG    1       29.759 -18.171   5.591  0.00  0.00    -0.130 NA
ATOM      5  H   LIG    1       30.426 -17.448   5.857  0.00  0.00    +0.306 HD
BRANCH   3   6
ATOM      6  N   LIG    1       28.737 -20.038   6.268  0.00  0.00    -0.289 N 
ATOM      7  H   LIG    1       27.789 -19.667   6.299  0.00  0.00    +0.255 HD
ATOM      8  H   LIG    1       28.792 -20.815   6.919  0.00  0.00    +0.255 HD
ENDBRANCH   3   6
ENDBRANCH   2   3
BRANCH   2   9
ATOM      9  C   LIG    1       31.389 -19.870   8.000  0.00  0.00    +0.319 C 
BRANCH   9  10
ATOM     10  C   LIG    1       31.090 -21.104   8.843  0.00  0.00    +0.339 C 
ATOM     11  O   LIG    1       30.000 -21.664   8.890  0.00  0.00    -0.247 OA
BRANCH  10  12
ATOM     12  O   LIG    1       32.179 -21.565   9.513  0.00  0.00    -0.478 OA
ATOM     13  H   LIG    1       32.603 -20.783   9.939  0.00  0.00    +0.295 HD
ENDBRANCH  10  12
ENDBRANCH   9  10
ENDBRANCH   2   9
TORSDOF 5
ENDMDL
MODEL 7
REMARK VINA RESULT:      -4.5      8.759      9.887
REMARK  Name = *****
REMARK                            x       y       z     vdW  Elec       q    Type
REMARK                         _______ _______ _______ _____ _____    ______ ____
ROOT
ATOM      1  C   LIG    1       25.813 -23.064   7.361  0.00  0.00    +0.243 C 
ATOM      2  N   LIG    1       24.654 -23.624   6.658  0.00  0.00    -0.255 N 
ENDROOT
BRANCH   2   3
ATOM      3  C   LIG    1       23.397 -23.138   6.931  0.00  0.00    +0.379 C 
ATOM      4  N   LIG    1       22.262 -23.666   6.650  0.00  0.00    -0.130 NA
ATOM      5  H   LIG    1       22.370 -24.570   6.193  0.00  0.00    +0.306 HD
BRANCH   3   6
ATOM      6  N   LIG    1       23.360 -21.944   7.555  0.00  0.00    -0.289 N 
ATOM      7  H   LIG    1       24.216 -21.442   7.329  0.00  0.00    +0.255 HD
ATOM      8  H   LIG    1       23.285 -22.001   8.565  0.00  0.00    +0.255 HD
ENDBRANCH   3   6
ENDBRANCH   2   3
BRANCH   2   9
ATOM      9  C   LIG    1       24.969 -24.037   5.251  0.00  0.00    +0.319 C 
BRANCH   9  10
ATOM     10  C   LIG    1       24.950 -25.554   5.100  0.00  0.00    +0.339 C 
ATOM     11  O   LIG    1       25.940 -26.238   4.860  0.00  0.00    -0.247 OA
BRANCH  10  12
ATOM     12  O   LIG    1       23.721 -26.092   5.309  0.00  0.00    -0.478 OA
ATOM     13  H   LIG    1       23.281 -26.148   4.427  0.00  0.00    +0.295 HD
ENDBRANCH  10  12
ENDBRANCH   9  10
ENDBRANCH   2   9
TORSDOF 5
ENDMDL
MODEL 8
REMARK VINA RESULT:      -4.5      1.680      2.446
REMARK  Name = *****
REMARK                            x       y       z     vdW  Elec       q    Type
REMARK                         _______ _______ _______ _____ _____    ______ ____
ROOT
ATOM      1  C   LIG    1       31.144 -21.312   8.915  0.00  0.00    +0.243 C 
ATOM      2  N   LIG    1       30.585 -20.395   7.916  0.00  0.00    -0.255 N 
ENDROOT
BRANCH   2   3
ATOM      3  C   LIG    1       29.261 -20.507   7.561  0.00  0.00    +0.379 C 
ATOM      4  N   LIG    1       28.226 -20.121   8.214  0.00  0.00    -0.130 NA
ATOM      5  H   LIG    1       28.482 -19.657   9.085  0.00  0.00    +0.306 HD
BRANCH   3   6
ATOM      6  N   LIG    1       29.028 -21.118   6.383  0.00  0.00    -0.289 N 
ATOM      7  H   LIG    1       28.553 -21.998   6.572  0.00  0.00    +0.255 HD
ATOM      8  H   LIG    1       29.862 -21.319   5.842  0.00  0.00    +0.255 HD
ENDBRANCH   3   6
ENDBRANCH   2   3
BRANCH   2   9
ATOM      9  C   LIG    1       31.194 -19.026   7.976  0.00  0.00    +0.319 C 
BRANCH   9  10
ATOM     10  C   LIG    1       31.209 -18.486   9.401  0.00  0.00    +0.339 C 
ATOM     11  O   LIG    1       32.227 -18.287  10.056  0.00  0.00    -0.247 OA
BRANCH  10  12
ATOM     12  O   LIG    1       29.968 -18.191   9.869  0.00  0.00    -0.478 OA
ATOM     13  H   LIG    1       29.323 -18.590   9.238  0.00  0.00    +0.295 HD
ENDBRANCH  10  12
ENDBRANCH   9  10
ENDBRANCH   2   9
TORSDOF 5
ENDMDL
MODEL 9
REMARK VINA RESULT:      -4.4     10.639     11.734
REMARK  Name = *****
REMARK                            x       y       z     vdW  Elec       q    Type
REMARK                         _______ _______ _______ _____ _____    ______ ____
ROOT
ATOM      1  C   LIG    1       26.535 -26.550   6.104  0.00  0.00    +0.243 C 
ATOM      2  N   LIG    1       25.086 -26.615   5.888  0.00  0.00    -0.255 N 
ENDROOT
BRANCH   2   3
ATOM      3  C   LIG    1       24.378 -25.453   5.695  0.00  0.00    +0.379 C 
ATOM      4  N   LIG    1       23.383 -25.005   6.372  0.00  0.00    -0.130 NA
ATOM      5  H   LIG    1       23.154 -25.617   7.154  0.00  0.00    +0.306 HD
BRANCH   3   6
ATOM      6  N   LIG    1       24.770 -24.703   4.646  0.00  0.00    -0.289 N 
ATOM      7  H   LIG    1       24.378 -23.771   4.760  0.00  0.00    +0.255 HD
ATOM      8  H   LIG    1       24.478 -25.061   3.742  0.00  0.00    +0.255 HD
ENDBRANCH   3   6
ENDBRANCH   2   3
BRANCH   2   9
ATOM      9  C   LIG    1       24.662 -27.842   5.137  0.00  0.00    +0.319 C 
BRANCH   9  10
ATOM     10  C   LIG    1       24.110 -28.907   6.078  0.00  0.00    +0.339 C 
ATOM     11  O   LIG    1       24.445 -29.036   7.251  0.00  0.00    -0.247 OA
BRANCH  10  12
ATOM     12  O   LIG    1       23.158 -29.683   5.499  0.00  0.00    -0.478 OA
ATOM     13  H   LIG    1       23.595 -30.166   4.758  0.00  0.00    +0.295 HD
ENDBRANCH  10  12
ENDBRANCH   9  10
ENDBRANCH   2   9
TORSDOF 5
ENDMDL
