MODEL 1
REMARK VINA RESULT:      -4.0      0.000      0.000
REMARK  Name = *****
REMARK                            x       y       z     vdW  Elec       q    Type
REMARK                         _______ _______ _______ _____ _____    ______ ____
ROOT
ATOM      1  C   LIG    1       24.820 -14.920   3.879  0.00  0.00    +0.065 C 
ENDROOT
BRANCH   1   2
ATOM      2  C   LIG    1       26.338 -15.212   3.468  0.00  0.00    +0.074 C 
ATOM      3  C   LIG    1       26.901 -14.296   2.355  0.00  0.00    +0.035 C 
ATOM      4  C   LIG    1       27.182 -12.868   2.809  0.00  0.00    +0.003 C 
ATOM      5  C   LIG    1       28.145 -12.852   3.990  0.00  0.00    +0.000 C 
ATOM      6  C   LIG    1       27.621 -13.712   5.135  0.00  0.00    +0.003 C 
ATOM      7  C   LIG    1       27.329 -15.137   4.667  0.00  0.00    +0.035 C 
BRANCH   2   8
ATOM      8  O   LIG    1       26.423 -16.536   2.902  0.00  0.00    -0.388 OA
ATOM      9  H   LIG    1       26.220 -17.175   3.609  0.00  0.00    +0.210 HD
ENDBRANCH   2   8
ENDBRANCH   1   2
BRANCH   1  10
ATOM     10  C   LIG    1       24.046 -16.245   3.986  0.00  0.00    -0.040 A 
ATOM     11  C   LIG    1       22.743 -16.266   4.506  0.00  0.00    +0.007 A 
ATOM     12  C   LIG    1       22.060 -17.474   4.675  0.00  0.00    +0.045 A 
ATOM     13  C   LIG    1       22.676 -18.672   4.315  0.00  0.00    +0.117 A 
ATOM     14  C   LIG    1       23.948 -18.675   3.768  0.00  0.00    +0.045 A 
ATOM     15  C   LIG    1       24.630 -17.469   3.603  0.00  0.00    +0.007 A 
BRANCH  13  16
ATOM     16  O   LIG    1       21.987 -19.830   4.522  0.00  0.00    -0.507 OA
ATOM     17  H   LIG    1       21.512 -20.055   3.704  0.00  0.00    +0.292 HD
ENDBRANCH  13  16
ENDBRANCH   1  10
BRANCH   1  18
ATOM     18  C   LIG    1       24.118 -13.900   2.905  0.00  0.00    +0.094 C 
BRANCH  18  20
ATOM     19  C   LIG    1       24.255 -12.324   4.726  0.00  0.00    +0.104 C 
ATOM     20  N   LIG    1       23.644 -12.582   3.411  0.00  0.00    -0.308 NA
ATOM     21  C   LIG    1       23.950 -11.448   2.540  0.00  0.00    +0.104 C 
ENDBRANCH  18  20
ENDBRANCH   1  18
TORSDOF 6
ENDMDL
MODEL 2
REMARK VINA RESULT:      -3.6      3.286      6.787
REMARK  Name = *****
REMARK                            x       y       z     vdW  Elec       q    Type
REMARK                         _______ _______ _______ _____ _____    ______ ____
ROOT
ATOM      1  C   LIG    1       25.873 -19.075   4.578  0.00  0.00    +0.065 C 
ENDROOT
BRANCH   1   2
ATOM      2  C   LIG    1       24.809 -19.836   3.658  0.00  0.00    +0.074 C 
ATOM      3  C   LIG    1       24.528 -21.304   4.063  0.00  0.00    +0.035 C 
ATOM      4  C   LIG    1       23.699 -21.449   5.335  0.00  0.00    +0.003 C 
ATOM      5  C   LIG    1       22.371 -20.712   5.205  0.00  0.00    +0.000 C 
ATOM      6  C   LIG    1       22.590 -19.248   4.842  0.00  0.00    +0.003 C 
ATOM      7  C   LIG    1       23.433 -19.113   3.575  0.00  0.00    +0.035 C 
BRANCH   2   8
ATOM      8  O   LIG    1       25.339 -19.942   2.321  0.00  0.00    -0.388 OA
ATOM      9  H   LIG    1       25.280 -19.062   1.908  0.00  0.00    +0.210 HD
ENDBRANCH   2   8
ENDBRANCH   1   2
BRANCH   1  10
ATOM     10  C   LIG    1       26.087 -17.645   4.053  0.00  0.00    -0.040 A 
ATOM     11  C   LIG    1       27.373 -17.086   4.016  0.00  0.00    +0.007 A 
ATOM     12  C   LIG    1       27.567 -15.763   3.610  0.00  0.00    +0.045 A 
ATOM     13  C   LIG    1       26.471 -14.991   3.226  0.00  0.00    +0.117 A 
ATOM     14  C   LIG    1       25.195 -15.529   3.221  0.00  0.00    +0.045 A 
ATOM     15  C   LIG    1       25.003 -16.849   3.631  0.00  0.00    +0.007 A 
BRANCH  13  16
ATOM     16  O   LIG    1       26.699 -13.697   2.864  0.00  0.00    -0.507 OA
ATOM     17  H   LIG    1       26.996 -13.684   1.939  0.00  0.00    +0.292 HD
ENDBRANCH  13  16
ENDBRANCH   1  10
BRANCH   1  18
ATOM     18  C   LIG    1       27.229 -19.866   4.712  0.00  0.00    +0.094 C 
BRANCH  18  20
ATOM     19  C   LIG    1       28.794 -19.641   6.534  0.00  0.00    +0.104 C 
ATOM     20  N   LIG    1       27.650 -20.419   6.029  0.00  0.00    -0.308 NA
ATOM     21  C   LIG    1       26.609 -20.410   7.056  0.00  0.00    +0.104 C 
ENDBRANCH  18  20
ENDBRANCH   1  18
TORSDOF 6
ENDMDL
MODEL 3
REMARK VINA RESULT:      -3.3      3.069      6.538
REMARK  Name = *****
REMARK                            x       y       z     vdW  Elec       q    Type
REMARK                         _______ _______ _______ _____ _____    ______ ____
ROOT
ATOM      1  C   LIG    1       25.841 -18.599   4.465  0.00  0.00    +0.065 C 
ENDROOT
BRANCH   1   2
ATOM      2  C   LIG    1       24.808 -19.477   3.617  0.00  0.00    +0.074 C 
ATOM      3  C   LIG    1       24.653 -20.943   4.091  0.00  0.00    +0.035 C 
ATOM      4  C   LIG    1       23.882 -21.094   5.397  0.00  0.00    +0.003 C 
ATOM      5  C   LIG    1       22.497 -20.466   5.287  0.00  0.00    +0.000 C 
ATOM      6  C   LIG    1       22.591 -19.006   4.857  0.00  0.00    +0.003 C 
ATOM      7  C   LIG    1       23.378 -18.863   3.555  0.00  0.00    +0.035 C 
BRANCH   2   8
ATOM      8  O   LIG    1       25.298 -19.601   2.266  0.00  0.00    -0.388 OA
ATOM      9  H   LIG    1       26.113 -20.135   2.294  0.00  0.00    +0.210 HD
ENDBRANCH   2   8
ENDBRANCH   1   2
BRANCH   1  10
ATOM     10  C   LIG    1       25.851 -17.154   3.939  0.00  0.00    -0.040 A 
ATOM     11  C   LIG    1       27.059 -16.535   3.582  0.00  0.00    +0.007 A 
ATOM     12  C   LIG    1       27.085 -15.199   3.173  0.00  0.00    +0.045 A 
ATOM     13  C   LIG    1       25.896 -14.473   3.109  0.00  0.00    +0.117 A 
ATOM     14  C   LIG    1       24.687 -15.070   3.424  0.00  0.00    +0.045 A 
ATOM     15  C   LIG    1       24.663 -16.403   3.835  0.00  0.00    +0.007 A 
BRANCH  13  16
ATOM     16  O   LIG    1       25.968 -13.165   2.733  0.00  0.00    -0.507 OA
ATOM     17  H   LIG    1       26.785 -12.785   3.098  0.00  0.00    +0.292 HD
ENDBRANCH  13  16
ENDBRANCH   1  10
BRANCH   1  18
ATOM     18  C   LIG    1       27.285 -19.229   4.494  0.00  0.00    +0.094 C 
BRANCH  18  20
ATOM     19  C   LIG    1       28.134 -20.563   6.316  0.00  0.00    +0.104 C 
ATOM     20  N   LIG    1       28.091 -19.205   5.747  0.00  0.00    -0.308 NA
ATOM     21  C   LIG    1       29.467 -18.741   5.579  0.00  0.00    +0.104 C 
ENDBRANCH  18  20
ENDBRANCH   1  18
TORSDOF 6
ENDMDL
MODEL 4
REMARK VINA RESULT:      -2.8      2.390      5.598
REMARK  Name = *****
REMARK                            x       y       z     vdW  Elec       q    Type
REMARK                         _______ _______ _______ _____ _____    ______ ____
ROOT
ATOM      1  C   LIG    1       25.353 -15.272   4.124  0.00  0.00    +0.065 C 
ENDROOT
BRANCH   1   2
ATOM      2  C   LIG    1       23.979 -14.466   3.984  0.00  0.00    +0.074 C 
ATOM      3  C   LIG    1       23.886 -13.181   4.842  0.00  0.00    +0.035 C 
ATOM      4  C   LIG    1       24.743 -12.029   4.329  0.00  0.00    +0.003 C 
ATOM      5  C   LIG    1       24.385 -11.684   2.888  0.00  0.00    +0.000 C 
ATOM      6  C   LIG    1       24.495 -12.909   1.988  0.00  0.00    +0.003 C 
ATOM      7  C   LIG    1       23.645 -14.063   2.518  0.00  0.00    +0.035 C 
BRANCH   2   8
ATOM      8  O   LIG    1       22.902 -15.289   4.477  0.00  0.00    -0.388 OA
ATOM      9  H   LIG    1       22.124 -14.716   4.603  0.00  0.00    +0.210 HD
ENDBRANCH   2   8
ENDBRANCH   1   2
BRANCH   1  10
ATOM     10  C   LIG    1       26.509 -14.291   4.381  0.00  0.00    -0.040 A 
ATOM     11  C   LIG    1       26.727 -13.769   5.665  0.00  0.00    +0.007 A 
ATOM     12  C   LIG    1       27.729 -12.822   5.892  0.00  0.00    +0.045 A 
ATOM     13  C   LIG    1       28.528 -12.394   4.833  0.00  0.00    +0.117 A 
ATOM     14  C   LIG    1       28.355 -12.918   3.562  0.00  0.00    +0.045 A 
ATOM     15  C   LIG    1       27.353 -13.862   3.337  0.00  0.00    +0.007 A 
BRANCH  13  16
ATOM     16  O   LIG    1       29.474 -11.448   5.090  0.00  0.00    -0.507 OA
ATOM     17  H   LIG    1       30.081 -11.795   5.766  0.00  0.00    +0.292 HD
ENDBRANCH  13  16
ENDBRANCH   1  10
BRANCH   1  18
ATOM     18  C   LIG    1       25.633 -16.206   2.886  0.00  0.00    +0.094 C 
BRANCH  18  20
ATOM     19  C   LIG    1       27.102 -17.774   3.983  0.00  0.00    +0.104 C 
ATOM     20  N   LIG    1       25.940 -17.650   3.087  0.00  0.00    -0.308 NA
ATOM     21  C   LIG    1       24.844 -18.433   3.655  0.00  0.00    +0.104 C 
ENDBRANCH  18  20
ENDBRANCH   1  18
TORSDOF 6
ENDMDL
MODEL 5
REMARK VINA RESULT:      -2.7      1.761      3.442
REMARK  Name = *****
REMARK                            x       y       z     vdW  Elec       q    Type
REMARK                         _______ _______ _______ _____ _____    ______ ____
ROOT
ATOM      1  C   LIG    1       25.195 -15.421   3.538  0.00  0.00    +0.065 C 
ENDROOT
BRANCH   1   2
ATOM      2  C   LIG    1       23.921 -14.594   4.037  0.00  0.00    +0.074 C 
ATOM      3  C   LIG    1       24.206 -13.573   5.165  0.00  0.00    +0.035 C 
ATOM      4  C   LIG    1       24.967 -12.335   4.703  0.00  0.00    +0.003 C 
ATOM      5  C   LIG    1       24.223 -11.627   3.577  0.00  0.00    +0.000 C 
ATOM      6  C   LIG    1       23.947 -12.580   2.419  0.00  0.00    +0.003 C 
ATOM      7  C   LIG    1       23.197 -13.823   2.894  0.00  0.00    +0.035 C 
BRANCH   2   8
ATOM      8  O   LIG    1       22.974 -15.507   4.629  0.00  0.00    -0.388 OA
ATOM      9  H   LIG    1       22.262 -14.977   5.030  0.00  0.00    +0.210 HD
ENDBRANCH   2   8
ENDBRANCH   1   2
BRANCH   1  10
ATOM     10  C   LIG    1       24.911 -16.929   3.642  0.00  0.00    -0.040 A 
ATOM     11  C   LIG    1       25.938 -17.862   3.430  0.00  0.00    +0.007 A 
ATOM     12  C   LIG    1       25.672 -19.234   3.451  0.00  0.00    +0.045 A 
ATOM     13  C   LIG    1       24.375 -19.683   3.693  0.00  0.00    +0.117 A 
ATOM     14  C   LIG    1       23.351 -18.784   3.938  0.00  0.00    +0.045 A 
ATOM     15  C   LIG    1       23.617 -17.414   3.915  0.00  0.00    +0.007 A 
BRANCH  13  16
ATOM     16  O   LIG    1       24.153 -21.028   3.676  0.00  0.00    -0.507 OA
ATOM     17  H   LIG    1       23.216 -21.188   3.883  0.00  0.00    +0.292 HD
ENDBRANCH  13  16
ENDBRANCH   1  10
BRANCH   1  18
ATOM     18  C   LIG    1       26.514 -15.013   4.297  0.00  0.00    +0.094 C 
BRANCH  18  20
ATOM     19  C   LIG    1       27.188 -13.968   2.230  0.00  0.00    +0.104 C 
ATOM     20  N   LIG    1       27.658 -14.417   3.551  0.00  0.00    -0.308 NA
ATOM     21  C   LIG    1       28.293 -13.280   4.216  0.00  0.00    +0.104 C 
ENDBRANCH  18  20
ENDBRANCH   1  18
TORSDOF 6
ENDMDL
MODEL 6
REMARK VINA RESULT:      -2.6      1.761      3.280
REMARK  Name = *****
REMARK                            x       y       z     vdW  Elec       q    Type
REMARK                         _______ _______ _______ _____ _____    ______ ____
ROOT
ATOM      1  C   LIG    1       25.227 -15.410   3.526  0.00  0.00    +0.065 C 
ENDROOT
BRANCH   1   2
ATOM      2  C   LIG    1       23.940 -14.611   4.040  0.00  0.00    +0.074 C 
ATOM      3  C   LIG    1       24.210 -13.606   5.185  0.00  0.00    +0.035 C 
ATOM      4  C   LIG    1       24.953 -12.349   4.746  0.00  0.00    +0.003 C 
ATOM      5  C   LIG    1       24.199 -11.632   3.632  0.00  0.00    +0.000 C 
ATOM      6  C   LIG    1       23.937 -12.569   2.458  0.00  0.00    +0.003 C 
ATOM      7  C   LIG    1       23.205 -13.831   2.910  0.00  0.00    +0.035 C 
BRANCH   2   8
ATOM      8  O   LIG    1       23.007 -15.548   4.615  0.00  0.00    -0.388 OA
ATOM      9  H   LIG    1       23.060 -15.462   5.584  0.00  0.00    +0.210 HD
ENDBRANCH   2   8
ENDBRANCH   1   2
BRANCH   1  10
ATOM     10  C   LIG    1       24.958 -16.923   3.583  0.00  0.00    -0.040 A 
ATOM     11  C   LIG    1       23.666 -17.406   3.841  0.00  0.00    +0.007 A 
ATOM     12  C   LIG    1       23.426 -18.777   3.967  0.00  0.00    +0.045 A 
ATOM     13  C   LIG    1       24.480 -19.678   3.825  0.00  0.00    +0.117 A 
ATOM     14  C   LIG    1       25.758 -19.230   3.536  0.00  0.00    +0.045 A 
ATOM     15  C   LIG    1       25.996 -17.861   3.414  0.00  0.00    +0.007 A 
BRANCH  13  16
ATOM     16  O   LIG    1       24.210 -21.005   3.983  0.00  0.00    -0.507 OA
ATOM     17  H   LIG    1       24.935 -21.516   3.585  0.00  0.00    +0.292 HD
ENDBRANCH  13  16
ENDBRANCH   1  10
BRANCH   1  18
ATOM     18  C   LIG    1       26.536 -15.012   4.309  0.00  0.00    +0.094 C 
BRANCH  18  20
ATOM     19  C   LIG    1       27.228 -13.938   2.263  0.00  0.00    +0.104 C 
ATOM     20  N   LIG    1       27.681 -14.388   3.590  0.00  0.00    -0.308 NA
ATOM     21  C   LIG    1       28.282 -13.244   4.275  0.00  0.00    +0.104 C 
ENDBRANCH  18  20
ENDBRANCH   1  18
TORSDOF 6
ENDMDL
MODEL 7
REMARK VINA RESULT:      -2.3      2.771      6.048
REMARK  Name = *****
REMARK                            x       y       z     vdW  Elec       q    Type
REMARK                         _______ _______ _______ _____ _____    ______ ____
ROOT
ATOM      1  C   LIG    1       23.949 -18.875   3.709  0.00  0.00    +0.065 C 
ENDROOT
BRANCH   1   2
ATOM      2  C   LIG    1       25.088 -19.996   3.634  0.00  0.00    +0.074 C 
ATOM      3  C   LIG    1       26.357 -19.695   4.467  0.00  0.00    +0.035 C 
ATOM      4  C   LIG    1       26.161 -19.837   5.972  0.00  0.00    +0.003 C 
ATOM      5  C   LIG    1       25.662 -21.233   6.326  0.00  0.00    +0.000 C 
ATOM      6  C   LIG    1       24.389 -21.571   5.560  0.00  0.00    +0.003 C 
ATOM      7  C   LIG    1       24.591 -21.411   4.054  0.00  0.00    +0.035 C 
BRANCH   2   8
ATOM      8  O   LIG    1       25.575 -20.078   2.279  0.00  0.00    -0.388 OA
ATOM      9  H   LIG    1       25.251 -20.914   1.897  0.00  0.00    +0.210 HD
ENDBRANCH   2   8
ENDBRANCH   1   2
BRANCH   1  10
ATOM     10  C   LIG    1       24.594 -17.479   3.724  0.00  0.00    -0.040 A 
ATOM     11  C   LIG    1       23.847 -16.355   4.109  0.00  0.00    +0.007 A 
ATOM     12  C   LIG    1       24.403 -15.074   4.055  0.00  0.00    +0.045 A 
ATOM     13  C   LIG    1       25.718 -14.910   3.622  0.00  0.00    +0.117 A 
ATOM     14  C   LIG    1       26.487 -16.006   3.268  0.00  0.00    +0.045 A 
ATOM     15  C   LIG    1       25.930 -17.284   3.320  0.00  0.00    +0.007 A 
BRANCH  13  16
ATOM     16  O   LIG    1       26.213 -13.641   3.556  0.00  0.00    -0.507 OA
ATOM     17  H   LIG    1       27.120 -13.646   3.907  0.00  0.00    +0.292 HD
ENDBRANCH  13  16
ENDBRANCH   1  10
BRANCH   1  18
ATOM     18  C   LIG    1       22.972 -19.089   4.927  0.00  0.00    +0.094 C 
BRANCH  18  20
ATOM     19  C   LIG    1       21.062 -18.593   3.538  0.00  0.00    +0.104 C 
ATOM     20  N   LIG    1       21.530 -19.381   4.692  0.00  0.00    -0.308 NA
ATOM     21  C   LIG    1       21.227 -20.787   4.432  0.00  0.00    +0.104 C 
ENDBRANCH  18  20
ENDBRANCH   1  18
TORSDOF 6
ENDMDL
MODEL 8
REMARK VINA RESULT:      -2.1      2.218      3.718
REMARK  Name = *****
REMARK                            x       y       z     vdW  Elec       q    Type
REMARK                         _______ _______ _______ _____ _____    ______ ____
ROOT
ATOM      1  C   LIG    1       26.134 -14.752   3.587  0.00  0.00    +0.065 C 
ENDROOT
BRANCH   1   2
ATOM      2  C   LIG    1       24.596 -14.329   3.706  0.00  0.00    +0.074 C 
ATOM      3  C   LIG    1       24.306 -13.202   4.726  0.00  0.00    +0.035 C 
ATOM      4  C   LIG    1       24.766 -11.821   4.274  0.00  0.00    +0.003 C 
ATOM      5  C   LIG    1       24.134 -11.448   2.938  0.00  0.00    +0.000 C 
ATOM      6  C   LIG    1       24.420 -12.509   1.881  0.00  0.00    +0.003 C 
ATOM      7  C   LIG    1       23.968 -13.891   2.350  0.00  0.00    +0.035 C 
BRANCH   2   8
ATOM      8  O   LIG    1       23.840 -15.451   4.206  0.00  0.00    -0.388 OA
ATOM      9  H   LIG    1       22.966 -15.120   4.483  0.00  0.00    +0.210 HD
ENDBRANCH   2   8
ENDBRANCH   1   2
BRANCH   1  10
ATOM     10  C   LIG    1       26.264 -16.280   3.704  0.00  0.00    -0.040 A 
ATOM     11  C   LIG    1       25.199 -17.115   3.336  0.00  0.00    +0.007 A 
ATOM     12  C   LIG    1       25.282 -18.500   3.508  0.00  0.00    +0.045 A 
ATOM     13  C   LIG    1       26.440 -19.061   4.044  0.00  0.00    +0.117 A 
ATOM     14  C   LIG    1       27.519 -18.262   4.384  0.00  0.00    +0.045 A 
ATOM     15  C   LIG    1       27.433 -16.880   4.215  0.00  0.00    +0.007 A 
BRANCH  13  16
ATOM     16  O   LIG    1       26.470 -20.412   4.222  0.00  0.00    -0.507 OA
ATOM     17  H   LIG    1       26.822 -20.821   3.414  0.00  0.00    +0.292 HD
ENDBRANCH  13  16
ENDBRANCH   1  10
BRANCH   1  18
ATOM     18  C   LIG    1       27.048 -13.998   4.625  0.00  0.00    +0.094 C 
BRANCH  18  20
ATOM     19  C   LIG    1       28.122 -12.865   2.785  0.00  0.00    +0.104 C 
ATOM     20  N   LIG    1       28.296 -13.321   4.175  0.00  0.00    -0.308 NA
ATOM     21  C   LIG    1       28.690 -12.167   4.983  0.00  0.00    +0.104 C 
ENDBRANCH  18  20
ENDBRANCH   1  18
TORSDOF 6
ENDMDL
MODEL 9
REMARK VINA RESULT:      -2.0      3.283      6.947
REMARK  Name = *****
REMARK                            x       y       z     vdW  Elec       q    Type
REMARK                         _______ _______ _______ _____ _____    ______ ____
ROOT
ATOM      1  C   LIG    1       25.357 -19.321   4.591  0.00  0.00    +0.065 C 
ENDROOT
BRANCH   1   2
ATOM      2  C   LIG    1       24.444 -20.144   3.567  0.00  0.00    +0.074 C 
ATOM      3  C   LIG    1       24.041 -21.561   4.044  0.00  0.00    +0.035 C 
ATOM      4  C   LIG    1       22.996 -21.567   5.154  0.00  0.00    +0.003 C 
ATOM      5  C   LIG    1       21.740 -20.819   4.723  0.00  0.00    +0.000 C 
ATOM      6  C   LIG    1       22.074 -19.400   4.276  0.00  0.00    +0.003 C 
ATOM      7  C   LIG    1       23.132 -19.403   3.174  0.00  0.00    +0.035 C 
BRANCH   2   8
ATOM      8  O   LIG    1       25.198 -20.388   2.361  0.00  0.00    -0.388 OA
ATOM      9  H   LIG    1       25.243 -21.352   2.229  0.00  0.00    +0.210 HD
ENDBRANCH   2   8
ENDBRANCH   1   2
BRANCH   1  10
ATOM     10  C   LIG    1       25.553 -17.886   4.076  0.00  0.00    -0.040 A 
ATOM     11  C   LIG    1       26.836 -17.415   3.755  0.00  0.00    +0.007 A 
ATOM     12  C   LIG    1       27.032 -16.090   3.356  0.00  0.00    +0.045 A 
ATOM     13  C   LIG    1       25.941 -15.227   3.266  0.00  0.00    +0.117 A 
ATOM     14  C   LIG    1       24.661 -15.676   3.545  0.00  0.00    +0.045 A 
ATOM     15  C   LIG    1       24.466 -16.998   3.946  0.00  0.00    +0.007 A 
BRANCH  13  16
ATOM     16  O   LIG    1       26.179 -13.935   2.901  0.00  0.00    -0.507 OA
ATOM     17  H   LIG    1       27.016 -13.651   3.306  0.00  0.00    +0.292 HD
ENDBRANCH  13  16
ENDBRANCH   1  10
BRANCH   1  18
ATOM     18  C   LIG    1       26.729 -20.038   4.886  0.00  0.00    +0.094 C 
BRANCH  18  20
ATOM     19  C   LIG    1       25.881 -20.791   7.015  0.00  0.00    +0.104 C 
ATOM     20  N   LIG    1       27.099 -20.410   6.280  0.00  0.00    -0.308 NA
ATOM     21  C   LIG    1       28.054 -21.511   6.385  0.00  0.00    +0.104 C 
ENDBRANCH  18  20
ENDBRANCH   1  18
TORSDOF 6
ENDMDL
