MODEL 1
REMARK VINA RESULT:      -3.2      0.000      0.000
REMARK  Name = *****
REMARK                            x       y       z     vdW  Elec       q    Type
REMARK                         _______ _______ _______ _____ _____    ______ ____
ROOT
ATOM      1  O   LIG    1       21.817 -21.167   4.840  0.00  0.00    -0.271 OA
ATOM      2  C   LIG    1       22.736 -20.461   4.416  0.00  0.00    +0.269 C 
ATOM      3  C   LIG    1       23.892 -21.027   3.556  0.00  0.00    +0.320 C 
ATOM      4  N   LIG    1       25.154 -20.893   4.271  0.00  0.00    -0.243 NA
ATOM      5  C   LIG    1       25.630 -19.721   4.521  0.00  0.00    +0.079 C 
ATOM      6  C   LIG    1       25.016 -18.420   4.112  0.00  0.00    +0.023 A 
ATOM      7  C   LIG    1       23.646 -18.155   4.273  0.00  0.00    +0.043 A 
ATOM      8  C   LIG    1       23.175 -16.848   4.086  0.00  0.00    +0.025 A 
ATOM      9  C   LIG    1       24.036 -15.831   3.670  0.00  0.00    +0.022 A 
ATOM     10  C   LIG    1       25.379 -16.115   3.451  0.00  0.00    +0.042 A 
ATOM     11 CL   LIG    1       26.442 -14.868   2.929  0.00  0.00    -0.084 Cl
ATOM     12  C   LIG    1       25.876 -17.397   3.675  0.00  0.00    +0.032 A 
ATOM     13  N   LIG    1       22.692 -19.110   4.644  0.00  0.00    -0.281 N 
ATOM     14  H   LIG    1       21.796 -18.803   5.000  0.00  0.00    +0.155 HD
ENDROOT
BRANCH   5  15
ATOM     15  C   LIG    1       26.929 -19.688   5.262  0.00  0.00    +0.019 A 
ATOM     16  C   LIG    1       27.177 -20.452   6.411  0.00  0.00    +0.050 A 
ATOM     17 CL   LIG    1       26.034 -21.572   7.062  0.00  0.00    -0.083 Cl
ATOM     18  C   LIG    1       28.415 -20.350   7.055  0.00  0.00    +0.021 A 
ATOM     19  C   LIG    1       29.405 -19.504   6.551  0.00  0.00    +0.002 A 
ATOM     20  C   LIG    1       29.168 -18.764   5.395  0.00  0.00    +0.001 A 
ATOM     21  C   LIG    1       27.936 -18.857   4.748  0.00  0.00    +0.011 A 
ENDBRANCH   5  15
BRANCH   3  22
ATOM     22  O   LIG    1       23.925 -20.525   2.233  0.00  0.00    -0.364 OA
ATOM     23  H   LIG    1       24.873 -20.505   2.023  0.00  0.00    +0.212 HD
ENDBRANCH   3  22
TORSDOF 2
ENDMDL
MODEL 2
REMARK VINA RESULT:      -1.6      2.552      5.059
REMARK  Name = *****
REMARK                            x       y       z     vdW  Elec       q    Type
REMARK                         _______ _______ _______ _____ _____    ______ ____
ROOT
ATOM      1  O   LIG    1       26.909 -20.728   5.768  0.00  0.00    -0.271 OA
ATOM      2  C   LIG    1       26.008 -20.230   5.086  0.00  0.00    +0.269 C 
ATOM      3  C   LIG    1       26.272 -19.585   3.704  0.00  0.00    +0.320 C 
ATOM      4  N   LIG    1       25.965 -18.162   3.753  0.00  0.00    -0.243 NA
ATOM      5  C   LIG    1       24.750 -17.772   3.941  0.00  0.00    +0.079 C 
ATOM      6  C   LIG    1       23.558 -18.662   4.090  0.00  0.00    +0.023 A 
ATOM      7  C   LIG    1       23.569 -19.799   4.916  0.00  0.00    +0.043 A 
ATOM      8  C   LIG    1       22.363 -20.458   5.193  0.00  0.00    +0.025 A 
ATOM      9  C   LIG    1       21.171 -20.044   4.595  0.00  0.00    +0.022 A 
ATOM     10  C   LIG    1       21.177 -18.957   3.728  0.00  0.00    +0.042 A 
ATOM     11 CL   LIG    1       19.713 -18.449   2.983  0.00  0.00    -0.084 Cl
ATOM     12  C   LIG    1       22.357 -18.261   3.477  0.00  0.00    +0.032 A 
ATOM     13  N   LIG    1       24.715 -20.322   5.528  0.00  0.00    -0.281 N 
ATOM     14  H   LIG    1       24.613 -20.959   6.308  0.00  0.00    +0.155 HD
ENDROOT
BRANCH   5  15
ATOM     15  C   LIG    1       24.537 -16.293   3.979  0.00  0.00    +0.019 A 
ATOM     16  C   LIG    1       25.551 -15.364   3.705  0.00  0.00    +0.050 A 
ATOM     17 CL   LIG    1       27.144 -15.825   3.223  0.00  0.00    -0.083 Cl
ATOM     18  C   LIG    1       25.273 -13.995   3.780  0.00  0.00    +0.021 A 
ATOM     19  C   LIG    1       23.991 -13.552   4.112  0.00  0.00    +0.002 A 
ATOM     20  C   LIG    1       22.976 -14.475   4.360  0.00  0.00    +0.001 A 
ATOM     21  C   LIG    1       23.246 -15.841   4.291  0.00  0.00    +0.011 A 
ENDBRANCH   5  15
BRANCH   3  22
ATOM     22  O   LIG    1       25.662 -20.267   2.623  0.00  0.00    -0.364 OA
ATOM     23  H   LIG    1       24.784 -20.496   2.968  0.00  0.00    +0.212 HD
ENDBRANCH   3  22
TORSDOF 2
ENDMDL
