MODEL 1
REMARK VINA RESULT:       9.1      0.000      0.000
REMARK  Name = *****
REMARK                            x       y       z     vdW  Elec       q    Type
REMARK                         _______ _______ _______ _____ _____    ______ ____
ROOT
ATOM      1  C   LIG    1       26.563 -11.734   3.161  0.00  0.00    +0.042 C 
ATOM      2  C   LIG    1       26.946 -12.637   4.341  0.00  0.00    +0.069 C 
ATOM      3  C   LIG    1       25.958 -13.834   4.628  0.00  0.00    -0.000 C 
ATOM      4  C   LIG    1       25.968 -14.180   6.146  0.00  0.00    +0.014 C 
ATOM      5  C   LIG    1       26.633 -15.035   3.882  0.00  0.00    +0.001 C 
ATOM      6  C   LIG    1       25.796 -15.864   2.906  0.00  0.00    -0.004 C 
ATOM      7  C   LIG    1       24.285 -15.894   3.283  0.00  0.00    -0.001 C 
ATOM      8  C   LIG    1       23.901 -14.396   3.168  0.00  0.00    +0.005 C 
ATOM      9  C   LIG    1       23.678 -17.006   4.353  0.00  0.00    -0.022 C 
ATOM     10  C   LIG    1       22.175 -16.733   3.801  0.00  0.00    +0.012 C 
ATOM     11  C   LIG    1       24.708 -18.217   4.123  0.00  0.00    +0.001 C 
ATOM     12  C   LIG    1       24.049 -19.204   3.209  0.00  0.00    +0.059 C 
ATOM     13  C   LIG    1       23.186 -19.909   4.173  0.00  0.00    +0.040 A 
ATOM     14  C   LIG    1       22.622 -19.283   5.285  0.00  0.00    -0.006 A 
ATOM     15  C   LIG    1       22.099 -20.397   5.974  0.00  0.00    +0.138 A 
ATOM     16  N   LIG    1       22.444 -21.570   5.450  0.00  0.00    -0.182 NA
ATOM     17  N   LIG    1       23.220 -21.248   4.394  0.00  0.00    -0.281 N 
ATOM     18  H   LIG    1       23.844 -21.923   3.984  0.00  0.00    +0.189 HD
ATOM     19  C   LIG    1       26.197 -18.050   3.877  0.00  0.00    +0.005 C 
ATOM     20  C   LIG    1       22.941 -17.725   5.676  0.00  0.00    +0.045 C 
ATOM     21  C   LIG    1       26.423 -17.224   2.664  0.00  0.00    +0.004 C 
ATOM     22  C   LIG    1       27.884 -14.492   3.178  0.00  0.00    +0.007 C 
ATOM     23  C   LIG    1       24.464 -13.570   4.298  0.00  0.00    +0.010 C 
ATOM     24  C   LIG    1       28.288 -13.329   4.047  0.00  0.00    +0.035 C 
ENDROOT
BRANCH   2  25
ATOM     25  O   LIG    1       27.096 -11.797   5.484  0.00  0.00    -0.388 OA
ATOM     26  H   LIG    1       28.030 -11.532   5.539  0.00  0.00    +0.210 HD
ENDBRANCH   2  25
TORSDOF 1
ENDMDL
MODEL 2
REMARK VINA RESULT:      10.7      3.833      6.928
REMARK  Name = *****
REMARK                            x       y       z     vdW  Elec       q    Type
REMARK                         _______ _______ _______ _____ _____    ______ ____
ROOT
ATOM      1  C   LIG    1       22.936 -21.565   4.112  0.00  0.00    +0.042 C 
ATOM      2  C   LIG    1       23.295 -20.695   5.323  0.00  0.00    +0.069 C 
ATOM      3  C   LIG    1       24.341 -19.546   5.046  0.00  0.00    -0.000 C 
ATOM      4  C   LIG    1       25.169 -19.257   6.334  0.00  0.00    +0.014 C 
ATOM      5  C   LIG    1       23.433 -18.293   4.799  0.00  0.00    +0.001 C 
ATOM      6  C   LIG    1       23.652 -17.458   3.537  0.00  0.00    -0.004 C 
ATOM      7  C   LIG    1       25.127 -17.496   3.038  0.00  0.00    -0.001 C 
ATOM      8  C   LIG    1       25.312 -19.001   2.714  0.00  0.00    +0.005 C 
ATOM      9  C   LIG    1       26.271 -16.448   3.624  0.00  0.00    -0.022 C 
ATOM     10  C   LIG    1       27.222 -16.753   2.343  0.00  0.00    +0.012 C 
ATOM     11  C   LIG    1       25.342 -15.193   4.002  0.00  0.00    +0.001 C 
ATOM     12  C   LIG    1       25.453 -14.197   2.890  0.00  0.00    +0.059 C 
ATOM     13  C   LIG    1       26.734 -13.560   3.243  0.00  0.00    +0.040 A 
ATOM     14  C   LIG    1       27.776 -14.247   3.866  0.00  0.00    -0.006 A 
ATOM     15  C   LIG    1       28.643 -13.180   4.178  0.00  0.00    +0.138 A 
ATOM     16  N   LIG    1       28.130 -11.976   3.939  0.00  0.00    -0.182 NA
ATOM     17  N   LIG    1       26.892 -12.230   3.466  0.00  0.00    -0.281 N 
ATOM     18  H   LIG    1       26.180 -11.518   3.466  0.00  0.00    +0.189 HD
ATOM     19  C   LIG    1       23.949 -15.298   4.598  0.00  0.00    +0.005 C 
ATOM     20  C   LIG    1       27.640 -15.807   4.348  0.00  0.00    +0.045 C 
ATOM     21  C   LIG    1       23.063 -16.068   3.689  0.00  0.00    +0.004 C 
ATOM     22  C   LIG    1       21.973 -18.764   4.876  0.00  0.00    +0.007 C 
ATOM     23  C   LIG    1       25.406 -19.850   3.958  0.00  0.00    +0.010 C 
ATOM     24  C   LIG    1       22.044 -19.944   5.810  0.00  0.00    +0.035 C 
ENDROOT
BRANCH   2  25
ATOM     25  O   LIG    1       23.744 -21.572   6.355  0.00  0.00    -0.388 OA
ATOM     26  H   LIG    1       23.501 -21.175   7.210  0.00  0.00    +0.210 HD
ENDBRANCH   2  25
TORSDOF 1
ENDMDL
MODEL 3
REMARK VINA RESULT:      10.7      3.899      6.762
REMARK  Name = *****
REMARK                            x       y       z     vdW  Elec       q    Type
REMARK                         _______ _______ _______ _____ _____    ______ ____
ROOT
ATOM      1  C   LIG    1       22.490 -21.118   5.741  0.00  0.00    +0.042 C 
ATOM      2  C   LIG    1       22.684 -20.747   4.265  0.00  0.00    +0.069 C 
ATOM      3  C   LIG    1       22.804 -19.202   3.965  0.00  0.00    -0.000 C 
ATOM      4  C   LIG    1       22.251 -18.892   2.542  0.00  0.00    +0.014 C 
ATOM      5  C   LIG    1       24.353 -18.972   3.912  0.00  0.00    +0.001 C 
ATOM      6  C   LIG    1       24.964 -17.857   4.763  0.00  0.00    -0.004 C 
ATOM      7  C   LIG    1       23.981 -16.675   5.005  0.00  0.00    -0.001 C 
ATOM      8  C   LIG    1       22.837 -17.370   5.788  0.00  0.00    +0.005 C 
ATOM      9  C   LIG    1       23.841 -15.425   3.923  0.00  0.00    -0.022 C 
ATOM     10  C   LIG    1       23.142 -14.503   5.063  0.00  0.00    +0.012 C 
ATOM     11  C   LIG    1       25.319 -15.426   3.293  0.00  0.00    +0.001 C 
ATOM     12  C   LIG    1       26.098 -14.340   3.967  0.00  0.00    +0.059 C 
ATOM     13  C   LIG    1       25.606 -13.169   3.220  0.00  0.00    +0.040 A 
ATOM     14  C   LIG    1       24.309 -13.085   2.711  0.00  0.00    -0.006 A 
ATOM     15  C   LIG    1       24.414 -11.921   1.921  0.00  0.00    +0.138 A 
ATOM     16  N   LIG    1       25.653 -11.447   1.815  0.00  0.00    -0.182 NA
ATOM     17  N   LIG    1       26.402 -12.307   2.536  0.00  0.00    -0.281 N 
ATOM     18  H   LIG    1       27.399 -12.362   2.406  0.00  0.00    +0.189 HD
ATOM     19  C   LIG    1       26.131 -16.674   2.997  0.00  0.00    +0.005 C 
ATOM     20  C   LIG    1       23.239 -14.320   2.817  0.00  0.00    +0.045 C 
ATOM     21  C   LIG    1       26.332 -17.457   4.243  0.00  0.00    +0.004 C 
ATOM     22  C   LIG    1       25.026 -20.314   4.233  0.00  0.00    +0.007 C 
ATOM     23  C   LIG    1       22.000 -18.266   4.908  0.00  0.00    +0.010 C 
ATOM     24  C   LIG    1       24.016 -21.325   3.758  0.00  0.00    +0.035 C 
ENDROOT
BRANCH   2  25
ATOM     25  O   LIG    1       21.610 -21.339   3.536  0.00  0.00    -0.388 OA
ATOM     26  H   LIG    1       20.945 -20.648   3.371  0.00  0.00    +0.210 HD
ENDBRANCH   2  25
TORSDOF 1
ENDMDL
