MODEL 1
REMARK VINA RESULT:      -5.3      0.000      0.000
REMARK  Name = *****
REMARK                            x       y       z     vdW  Elec       q    Type
REMARK                         _______ _______ _______ _____ _____    ______ ____
ROOT
ATOM      1  C   LIG    1       26.061 -19.318   4.173  0.00  0.00    +0.095 C 
ENDROOT
BRANCH   1   2
ATOM      2  C   LIG    1       24.671 -19.237   4.923  0.00  0.00    +0.033 C 
ATOM      3  C   LIG    1       23.350 -19.337   4.069  0.00  0.00    +0.018 C 
ATOM      4  C   LIG    1       22.307 -19.497   5.191  0.00  0.00    +0.015 C 
ATOM      5  C   LIG    1       22.940 -20.783   5.726  0.00  0.00    +0.012 C 
ATOM      6  C   LIG    1       22.951 -21.570   4.438  0.00  0.00    -0.027 C 
ATOM      7  C   LIG    1       23.171 -20.707   3.452  0.00  0.00    -0.027 C 
ATOM      8  C   LIG    1       24.386 -20.315   6.029  0.00  0.00    +0.015 C 
ENDBRANCH   1   2
BRANCH   1   9
ATOM      9  C   LIG    1       27.276 -19.457   5.138  0.00  0.00    -0.016 A 
ATOM     10  C   LIG    1       27.335 -20.437   6.150  0.00  0.00    +0.006 A 
ATOM     11  C   LIG    1       28.417 -20.502   7.051  0.00  0.00    +0.000 A 
ATOM     12  C   LIG    1       29.472 -19.597   6.962  0.00  0.00    +0.000 A 
ATOM     13  C   LIG    1       29.440 -18.621   5.977  0.00  0.00    +0.000 A 
ATOM     14  C   LIG    1       28.356 -18.548   5.089  0.00  0.00    +0.006 A 
ENDBRANCH   1   9
BRANCH   1  15
ATOM     15  O   LIG    1       26.044 -20.439   3.283  0.00  0.00    -0.384 OA
ATOM     16  H   LIG    1       26.811 -20.353   2.694  0.00  0.00    +0.211 HD
ENDBRANCH   1  15
BRANCH   1  17
ATOM     17  C   LIG    1       26.206 -18.046   3.278  0.00  0.00    +0.055 C 
BRANCH  17  18
ATOM     18  C   LIG    1       25.417 -16.795   3.726  0.00  0.00    +0.087 C 
BRANCH  18  19
ATOM     19  N   LIG    1       25.848 -15.547   3.049  0.00  0.00    -0.302 NA
ATOM     20  C   LIG    1       24.956 -14.394   3.223  0.00  0.00    +0.084 C 
ATOM     21  C   LIG    1       25.025 -13.751   4.609  0.00  0.00    +0.015 C 
ATOM     22  C   LIG    1       26.452 -13.335   4.936  0.00  0.00    +0.002 C 
ATOM     23  C   LIG    1       27.396 -14.521   4.773  0.00  0.00    +0.015 C 
ATOM     24  C   LIG    1       27.235 -15.182   3.398  0.00  0.00    +0.084 C 
ENDBRANCH  18  19
ENDBRANCH  17  18
ENDBRANCH   1  17
TORSDOF 6
ENDMDL
MODEL 2
REMARK VINA RESULT:      -4.9      0.853      1.791
REMARK  Name = *****
REMARK                            x       y       z     vdW  Elec       q    Type
REMARK                         _______ _______ _______ _____ _____    ______ ____
ROOT
ATOM      1  C   LIG    1       25.809 -19.141   3.936  0.00  0.00    +0.095 C 
ENDROOT
BRANCH   1   2
ATOM      2  C   LIG    1       24.321 -18.994   4.450  0.00  0.00    +0.033 C 
ATOM      3  C   LIG    1       23.173 -19.716   3.646  0.00  0.00    +0.018 C 
ATOM      4  C   LIG    1       21.998 -19.545   4.627  0.00  0.00    +0.015 C 
ATOM      5  C   LIG    1       22.703 -20.305   5.753  0.00  0.00    +0.012 C 
ATOM      6  C   LIG    1       23.018 -21.571   4.995  0.00  0.00    -0.027 C 
ATOM      7  C   LIG    1       23.274 -21.223   3.738  0.00  0.00    -0.027 C 
ATOM      8  C   LIG    1       24.011 -19.487   5.909  0.00  0.00    +0.015 C 
ENDBRANCH   1   2
BRANCH   1   9
ATOM      9  C   LIG    1       26.802 -19.600   5.044  0.00  0.00    -0.016 A 
ATOM     10  C   LIG    1       28.085 -19.035   5.199  0.00  0.00    +0.006 A 
ATOM     11  C   LIG    1       28.989 -19.512   6.169  0.00  0.00    +0.000 A 
ATOM     12  C   LIG    1       28.635 -20.558   7.017  0.00  0.00    +0.000 A 
ATOM     13  C   LIG    1       27.380 -21.135   6.887  0.00  0.00    +0.000 A 
ATOM     14  C   LIG    1       26.486 -20.669   5.912  0.00  0.00    +0.006 A 
ENDBRANCH   1   9
BRANCH   1  15
ATOM     15  O   LIG    1       25.838 -20.090   2.864  0.00  0.00    -0.384 OA
ATOM     16  H   LIG    1       25.109 -20.714   3.011  0.00  0.00    +0.211 HD
ENDBRANCH   1  15
BRANCH   1  17
ATOM     17  C   LIG    1       26.251 -17.773   3.327  0.00  0.00    +0.055 C 
BRANCH  17  18
ATOM     18  C   LIG    1       25.202 -16.638   3.348  0.00  0.00    +0.087 C 
BRANCH  18  19
ATOM     19  N   LIG    1       25.650 -15.428   4.080  0.00  0.00    -0.302 NA
ATOM     20  C   LIG    1       26.842 -14.767   3.535  0.00  0.00    +0.084 C 
ATOM     21  C   LIG    1       26.592 -13.981   2.247  0.00  0.00    +0.015 C 
ATOM     22  C   LIG    1       25.495 -12.946   2.455  0.00  0.00    +0.002 C 
ATOM     23  C   LIG    1       24.241 -13.613   3.010  0.00  0.00    +0.015 C 
ATOM     24  C   LIG    1       24.556 -14.454   4.256  0.00  0.00    +0.084 C 
ENDBRANCH  18  19
ENDBRANCH  17  18
ENDBRANCH   1  17
TORSDOF 6
ENDMDL
