MODEL 1
REMARK VINA RESULT:      -4.3      0.000      0.000
REMARK  Name = *****
REMARK                            x       y       z     vdW  Elec       q    Type
REMARK                         _______ _______ _______ _____ _____    ______ ____
ROOT
ATOM      1  C   LIG    1       22.731 -32.380  10.970  0.00  0.00    +0.066 A 
ATOM      2  C   LIG    1       23.233 -32.178  12.250  0.00  0.00    +0.040 A 
ATOM      3  I   LIG    1       22.176 -33.802  13.852  0.00  0.00    -0.042 I 
ATOM      4  C   LIG    1       23.078 -30.968  12.880  0.00  0.00    +0.066 A 
ATOM      5  C   LIG    1       21.806 -30.424  12.575  0.00  0.00    +0.049 A 
ATOM      6  I   LIG    1       21.268 -28.440  13.050  0.00  0.00    -0.041 I 
ATOM      7  C   LIG    1       20.843 -31.228  11.809  0.00  0.00    +0.061 A 
ATOM      8  C   LIG    1       21.359 -32.290  11.020  0.00  0.00    +0.049 A 
ATOM      9  I   LIG    1       20.520 -33.723   9.747  0.00  0.00    -0.041 I 
ENDROOT
BRANCH   4  10
ATOM     10  C   LIG    1       24.237 -30.574  13.800  0.00  0.00    +0.248 C 
ATOM     11  N   LIG    1       25.625 -30.507  13.359  0.00  0.00    -0.298 N 
ATOM     12  C   LIG    1       26.629 -29.965  14.257  0.00  0.00    +0.132 C 
ATOM     13  O   LIG    1       23.959 -30.313  15.000  0.00  0.00    -0.270 OA
BRANCH  11  14
ATOM     14  C   LIG    1       26.036 -30.259  11.995  0.00  0.00    +0.141 C 
BRANCH  14  15
ATOM     15  C   LIG    1       27.248 -29.324  11.780  0.00  0.00    +0.157 C 
BRANCH  15  16
ATOM     16  O   LIG    1       28.298 -29.900  10.994  0.00  0.00    -0.388 OA
ATOM     17  H   LIG    1       27.885 -30.584  10.427  0.00  0.00    +0.210 HD
ENDBRANCH  15  16
BRANCH  15  18
ATOM     18  C   LIG    1       26.897 -27.929  11.298  0.00  0.00    +0.188 C 
BRANCH  18  19
ATOM     19  O   LIG    1       27.368 -26.972  12.229  0.00  0.00    -0.392 OA
ATOM     20  H   LIG    1       26.743 -26.231  12.197  0.00  0.00    +0.209 HD
ENDBRANCH  18  19
ENDBRANCH  15  18
ENDBRANCH  14  15
ENDBRANCH  11  14
ENDBRANCH   4  10
BRANCH   1  23
ATOM     21  C   LIG    1       25.321 -32.964   9.455  0.00  0.00    +0.132 C 
ATOM     22  N   LIG    1       24.524 -31.832   9.097  0.00  0.00    -0.298 N 
ATOM     23  C   LIG    1       23.319 -31.572   9.765  0.00  0.00    +0.248 C 
ATOM     24  O   LIG    1       22.577 -30.596   9.398  0.00  0.00    -0.270 OA
BRANCH  22  25
ATOM     25  C   LIG    1       25.175 -30.968   8.055  0.00  0.00    +0.141 C 
BRANCH  25  26
ATOM     26  C   LIG    1       24.706 -31.115   6.583  0.00  0.00    +0.157 C 
BRANCH  26  27
ATOM     27  O   LIG    1       23.398 -31.682   6.503  0.00  0.00    -0.388 OA
ATOM     28  H   LIG    1       22.956 -31.351   5.708  0.00  0.00    +0.210 HD
ENDBRANCH  26  27
BRANCH  26  29
ATOM     29  C   LIG    1       24.607 -29.788   5.796  0.00  0.00    +0.188 C 
BRANCH  29  30
ATOM     30  O   LIG    1       23.231 -29.528   5.476  0.00  0.00    -0.392 OA
ATOM     31  H   LIG    1       22.818 -30.360   5.189  0.00  0.00    +0.209 HD
ENDBRANCH  29  30
ENDBRANCH  26  29
ENDBRANCH  25  26
ENDBRANCH  22  25
ENDBRANCH   1  23
BRANCH   7  32
ATOM     32  N   LIG    1       19.481 -30.829  11.750  0.00  0.00    -0.283 N 
ATOM     33  H   LIG    1       19.345 -29.818  11.815  0.00  0.00    +0.155 HD
ATOM     34  C   LIG    1       18.365 -31.427  12.303  0.00  0.00    +0.225 C 
ATOM     35  O   LIG    1       17.293 -30.819  12.212  0.00  0.00    -0.275 OA
BRANCH  34  36
ATOM     36  C   LIG    1       18.469 -32.688  13.166  0.00  0.00    +0.126 C 
BRANCH  36  37
ATOM     37  C   LIG    1       17.360 -33.699  12.959  0.00  0.00    +0.170 C 
BRANCH  37  38
ATOM     38  O   LIG    1       16.870 -33.707  11.620  0.00  0.00    -0.394 OA
ATOM     39  H   LIG    1       16.633 -32.803  11.357  0.00  0.00    +0.209 HD
ENDBRANCH  37  38
ENDBRANCH  36  37
BRANCH  36  40
ATOM     40  C   LIG    1       18.477 -32.333  14.653  0.00  0.00    +0.170 C 
BRANCH  40  41
ATOM     41  O   LIG    1       18.862 -30.984  14.861  0.00  0.00    -0.394 OA
ATOM     42  H   LIG    1       18.955 -30.572  13.984  0.00  0.00    +0.209 HD
ENDBRANCH  40  41
ENDBRANCH  36  40
ENDBRANCH  34  36
ENDBRANCH   7  32
TORSDOF 18
ENDMDL
MODEL 2
REMARK VINA RESULT:      -4.3      2.730      7.463
REMARK  Name = *****
REMARK                            x       y       z     vdW  Elec       q    Type
REMARK                         _______ _______ _______ _____ _____    ______ ____
ROOT
ATOM      1  C   LIG    1       23.993 -30.265  13.702  0.00  0.00    +0.066 A 
ATOM      2  C   LIG    1       23.262 -31.371  14.117  0.00  0.00    +0.040 A 
ATOM      3  I   LIG    1       24.788 -33.051  15.200  0.00  0.00    -0.042 I 
ATOM      4  C   LIG    1       22.557 -32.124  13.212  0.00  0.00    +0.066 A 
ATOM      5  C   LIG    1       23.283 -32.229  12.000  0.00  0.00    +0.049 A 
ATOM      6  I   LIG    1       22.444 -33.006  10.227  0.00  0.00    -0.041 I 
ATOM      7  C   LIG    1       24.648 -31.688  11.930  0.00  0.00    +0.061 A 
ATOM      8  C   LIG    1       25.009 -30.697  12.880  0.00  0.00    +0.049 A 
ATOM      9  I   LIG    1       26.737 -29.580  13.263  0.00  0.00    -0.041 I 
ENDROOT
BRANCH   4  10
ATOM     10  C   LIG    1       21.255 -32.723  13.754  0.00  0.00    +0.248 C 
ATOM     11  N   LIG    1       19.957 -32.074  13.621  0.00  0.00    -0.298 N 
ATOM     12  C   LIG    1       18.761 -32.792  14.020  0.00  0.00    +0.132 C 
ATOM     13  O   LIG    1       21.334 -33.825  14.358  0.00  0.00    -0.270 OA
BRANCH  11  14
ATOM     14  C   LIG    1       19.614 -31.145  12.568  0.00  0.00    +0.141 C 
BRANCH  14  15
ATOM     15  C   LIG    1       18.311 -31.418  11.781  0.00  0.00    +0.157 C 
BRANCH  15  16
ATOM     16  O   LIG    1       17.222 -30.558  12.136  0.00  0.00    -0.388 OA
ATOM     17  H   LIG    1       17.161 -29.875  11.436  0.00  0.00    +0.210 HD
ENDBRANCH  15  16
BRANCH  15  18
ATOM     18  C   LIG    1       18.483 -31.499  10.275  0.00  0.00    +0.188 C 
BRANCH  18  19
ATOM     19  O   LIG    1       19.142 -30.336   9.808  0.00  0.00    -0.392 OA
ATOM     20  H   LIG    1       19.768 -30.632   9.129  0.00  0.00    +0.209 HD
ENDBRANCH  18  19
ENDBRANCH  15  18
ENDBRANCH  14  15
ENDBRANCH  11  14
ENDBRANCH   4  10
BRANCH   1  23
ATOM     21  C   LIG    1       23.744 -27.492  14.965  0.00  0.00    +0.132 C 
ATOM     22  N   LIG    1       23.122 -27.763  13.706  0.00  0.00    -0.298 N 
ATOM     23  C   LIG    1       23.255 -29.021  13.104  0.00  0.00    +0.248 C 
ATOM     24  O   LIG    1       22.752 -29.238  11.948  0.00  0.00    -0.270 OA
BRANCH  22  25
ATOM     25  C   LIG    1       22.278 -26.620  13.217  0.00  0.00    +0.141 C 
BRANCH  25  26
ATOM     26  C   LIG    1       20.739 -26.723  13.377  0.00  0.00    +0.157 C 
BRANCH  26  27
ATOM     27  O   LIG    1       20.203 -27.806  12.614  0.00  0.00    -0.388 OA
ATOM     28  H   LIG    1       20.719 -27.909  11.803  0.00  0.00    +0.210 HD
ENDBRANCH  26  27
BRANCH  26  29
ATOM     29  C   LIG    1       20.249 -26.982  14.821  0.00  0.00    +0.188 C 
BRANCH  29  30
ATOM     30  O   LIG    1       19.131 -26.126  15.102  0.00  0.00    -0.392 OA
ATOM     31  H   LIG    1       18.419 -26.327  14.471  0.00  0.00    +0.209 HD
ENDBRANCH  29  30
ENDBRANCH  26  29
ENDBRANCH  25  26
ENDBRANCH  22  25
ENDBRANCH   1  23
BRANCH   7  32
ATOM     32  N   LIG    1       25.491 -32.039  10.841  0.00  0.00    -0.283 N 
ATOM     33  H   LIG    1       26.377 -32.460  11.125  0.00  0.00    +0.155 HD
ATOM     34  C   LIG    1       25.719 -31.368   9.655  0.00  0.00    +0.225 C 
ATOM     35  O   LIG    1       26.596 -31.820   8.909  0.00  0.00    -0.275 OA
BRANCH  34  36
ATOM     36  C   LIG    1       25.068 -30.015   9.354  0.00  0.00    +0.126 C 
BRANCH  36  37
ATOM     37  C   LIG    1       24.577 -29.842   7.932  0.00  0.00    +0.170 C 
BRANCH  37  38
ATOM     38  O   LIG    1       25.624 -29.965   6.973  0.00  0.00    -0.394 OA
ATOM     39  H   LIG    1       26.042 -29.099   6.837  0.00  0.00    +0.209 HD
ENDBRANCH  37  38
ENDBRANCH  36  37
BRANCH  36  40
ATOM     40  C   LIG    1       26.039 -28.867   9.633  0.00  0.00    +0.170 C 
BRANCH  40  41
ATOM     41  O   LIG    1       27.365 -29.210   9.262  0.00  0.00    -0.394 OA
ATOM     42  H   LIG    1       27.342 -30.120   8.918  0.00  0.00    +0.209 HD
ENDBRANCH  40  41
ENDBRANCH  36  40
ENDBRANCH  34  36
ENDBRANCH   7  32
TORSDOF 18
ENDMDL
MODEL 3
REMARK VINA RESULT:      -4.2      1.813      2.544
REMARK  Name = *****
REMARK                            x       y       z     vdW  Elec       q    Type
REMARK                         _______ _______ _______ _____ _____    ______ ____
ROOT
ATOM      1  C   LIG    1       24.110 -31.239  11.965  0.00  0.00    +0.066 A 
ATOM      2  C   LIG    1       24.587 -30.232  12.796  0.00  0.00    +0.040 A 
ATOM      3  I   LIG    1       24.901 -31.118  15.127  0.00  0.00    -0.042 I 
ATOM      4  C   LIG    1       23.862 -29.083  12.990  0.00  0.00    +0.066 A 
ATOM      5  C   LIG    1       22.480 -29.387  13.048  0.00  0.00    +0.049 A 
ATOM      6  I   LIG    1       20.980 -27.904  13.001  0.00  0.00    -0.041 I 
ATOM      7  C   LIG    1       22.051 -30.793  13.042  0.00  0.00    +0.061 A 
ATOM      8  C   LIG    1       22.959 -31.751  12.519  0.00  0.00    +0.049 A 
ATOM      9  I   LIG    1       22.916 -33.825  12.241  0.00  0.00    -0.041 I 
ENDROOT
BRANCH   4  10
ATOM     10  C   LIG    1       24.707 -27.820  13.188  0.00  0.00    +0.248 C 
ATOM     11  N   LIG    1       25.985 -27.597  12.523  0.00  0.00    -0.298 N 
ATOM     12  C   LIG    1       26.631 -26.303  12.645  0.00  0.00    +0.132 C 
ATOM     13  O   LIG    1       24.266 -26.949  13.983  0.00  0.00    -0.270 OA
BRANCH  11  14
ATOM     14  C   LIG    1       26.360 -28.189  11.258  0.00  0.00    +0.141 C 
BRANCH  14  15
ATOM     15  C   LIG    1       27.270 -29.437  11.303  0.00  0.00    +0.157 C 
BRANCH  15  16
ATOM     16  O   LIG    1       27.788 -29.830  10.027  0.00  0.00    -0.388 OA
ATOM     17  H   LIG    1       27.022 -29.902   9.421  0.00  0.00    +0.210 HD
ENDBRANCH  15  16
BRANCH  15  18
ATOM     18  C   LIG    1       28.365 -29.388  12.353  0.00  0.00    +0.188 C 
BRANCH  18  19
ATOM     19  O   LIG    1       29.627 -29.287  11.720  0.00  0.00    -0.392 OA
ATOM     20  H   LIG    1       30.264 -29.059  12.416  0.00  0.00    +0.209 HD
ENDBRANCH  18  19
ENDBRANCH  15  18
ENDBRANCH  14  15
ENDBRANCH  11  14
ENDBRANCH   4  10
BRANCH   1  23
ATOM     21  C   LIG    1       25.692 -32.537   9.695  0.00  0.00    +0.132 C 
ATOM     22  N   LIG    1       24.697 -31.553   9.401  0.00  0.00    -0.298 N 
ATOM     23  C   LIG    1       23.944 -30.974  10.432  0.00  0.00    +0.248 C 
ATOM     24  O   LIG    1       23.011 -30.142  10.159  0.00  0.00    -0.270 OA
BRANCH  22  25
ATOM     25  C   LIG    1       24.658 -31.181   7.946  0.00  0.00    +0.141 C 
BRANCH  25  26
ATOM     26  C   LIG    1       24.705 -29.677   7.571  0.00  0.00    +0.157 C 
BRANCH  26  27
ATOM     27  O   LIG    1       25.918 -29.064   8.009  0.00  0.00    -0.388 OA
ATOM     28  H   LIG    1       26.203 -28.416   7.350  0.00  0.00    +0.210 HD
ENDBRANCH  26  27
BRANCH  26  29
ATOM     29  C   LIG    1       24.642 -29.382   6.054  0.00  0.00    +0.188 C 
BRANCH  29  30
ATOM     30  O   LIG    1       23.273 -29.405   5.622  0.00  0.00    -0.392 OA
ATOM     31  H   LIG    1       23.127 -30.214   5.101  0.00  0.00    +0.209 HD
ENDBRANCH  29  30
ENDBRANCH  26  29
ENDBRANCH  25  26
ENDBRANCH  22  25
ENDBRANCH   1  23
BRANCH   7  32
ATOM     32  N   LIG    1       20.715 -31.124  13.394  0.00  0.00    -0.283 N 
ATOM     33  H   LIG    1       20.640 -31.678  14.249  0.00  0.00    +0.155 HD
ATOM     34  C   LIG    1       19.656 -31.480  12.583  0.00  0.00    +0.225 C 
ATOM     35  O   LIG    1       18.612 -31.841  13.139  0.00  0.00    -0.275 OA
BRANCH  34  36
ATOM     36  C   LIG    1       19.811 -31.617  11.065  0.00  0.00    +0.126 C 
BRANCH  36  37
ATOM     37  C   LIG    1       18.887 -30.741  10.244  0.00  0.00    +0.170 C 
BRANCH  37  38
ATOM     38  O   LIG    1       17.522 -30.867  10.636  0.00  0.00    -0.394 OA
ATOM     39  H   LIG    1       17.440 -30.675  11.585  0.00  0.00    +0.209 HD
ENDBRANCH  37  38
ENDBRANCH  36  37
BRANCH  36  40
ATOM     40  C   LIG    1       19.569 -33.060  10.620  0.00  0.00    +0.170 C 
BRANCH  40  41
ATOM     41  O   LIG    1       18.398 -33.596  11.216  0.00  0.00    -0.394 OA
ATOM     42  H   LIG    1       17.687 -32.943  11.090  0.00  0.00    +0.209 HD
ENDBRANCH  40  41
ENDBRANCH  36  40
ENDBRANCH  34  36
ENDBRANCH   7  32
TORSDOF 18
ENDMDL
MODEL 4
REMARK VINA RESULT:      -3.4      2.733      6.938
REMARK  Name = *****
REMARK                            x       y       z     vdW  Elec       q    Type
REMARK                         _______ _______ _______ _____ _____    ______ ____
ROOT
ATOM      1  C   LIG    1       25.253 -30.456  12.313  0.00  0.00    +0.066 A 
ATOM      2  C   LIG    1       24.574 -31.638  12.588  0.00  0.00    +0.040 A 
ATOM      3  I   LIG    1       25.519 -33.512  11.204  0.00  0.00    -0.042 I 
ATOM      4  C   LIG    1       23.223 -31.735  12.371  0.00  0.00    +0.066 A 
ATOM      5  C   LIG    1       22.870 -31.029  11.195  0.00  0.00    +0.049 A 
ATOM      6  I   LIG    1       20.869 -30.630  10.659  0.00  0.00    -0.041 I 
ATOM      7  C   LIG    1       23.930 -30.458  10.352  0.00  0.00    +0.061 A 
ATOM      8  C   LIG    1       25.192 -30.224  10.958  0.00  0.00    +0.049 A 
ATOM      9  I   LIG    1       27.021 -29.446  10.303  0.00  0.00    -0.041 I 
ENDROOT
BRANCH   4  10
ATOM     10  C   LIG    1       22.479 -32.634  13.365  0.00  0.00    +0.248 C 
ATOM     11  N   LIG    1       22.069 -32.195  14.692  0.00  0.00    -0.298 N 
ATOM     12  C   LIG    1       21.227 -33.061  15.497  0.00  0.00    +0.132 C 
ATOM     13  O   LIG    1       22.234 -33.815  13.003  0.00  0.00    -0.270 OA
BRANCH  11  14
ATOM     14  C   LIG    1       21.799 -30.820  15.049  0.00  0.00    +0.141 C 
BRANCH  14  15
ATOM     15  C   LIG    1       20.518 -30.177  14.472  0.00  0.00    +0.157 C 
BRANCH  15  16
ATOM     16  O   LIG    1       19.353 -30.364  15.283  0.00  0.00    -0.388 OA
ATOM     17  H   LIG    1       18.661 -30.744  14.702  0.00  0.00    +0.210 HD
ENDBRANCH  15  16
BRANCH  15  18
ATOM     18  C   LIG    1       20.670 -28.728  14.047  0.00  0.00    +0.188 C 
BRANCH  18  19
ATOM     19  O   LIG    1       21.782 -28.152  14.708  0.00  0.00    -0.392 OA
ATOM     20  H   LIG    1       21.445 -27.788  15.541  0.00  0.00    +0.209 HD
ENDBRANCH  18  19
ENDBRANCH  15  18
ENDBRANCH  14  15
ENDBRANCH  11  14
ENDBRANCH   4  10
BRANCH   1  23
ATOM     21  C   LIG    1       26.751 -29.423  14.768  0.00  0.00    +0.132 C 
ATOM     22  N   LIG    1       25.610 -28.715  14.278  0.00  0.00    -0.298 N 
ATOM     23  C   LIG    1       24.934 -29.163  13.135  0.00  0.00    +0.248 C 
ATOM     24  O   LIG    1       23.953 -28.491  12.662  0.00  0.00    -0.270 OA
BRANCH  22  25
ATOM     25  C   LIG    1       25.209 -27.572  15.166  0.00  0.00    +0.141 C 
BRANCH  25  26
ATOM     26  C   LIG    1       25.770 -26.162  14.846  0.00  0.00    +0.157 C 
BRANCH  26  27
ATOM     27  O   LIG    1       27.007 -26.238  14.137  0.00  0.00    -0.388 OA
ATOM     28  H   LIG    1       26.914 -25.788  13.285  0.00  0.00    +0.210 HD
ENDBRANCH  26  27
BRANCH  26  29
ATOM     29  C   LIG    1       24.861 -25.285  13.954  0.00  0.00    +0.188 C 
BRANCH  29  30
ATOM     30  O   LIG    1       23.580 -25.919  13.814  0.00  0.00    -0.392 OA
ATOM     31  H   LIG    1       23.119 -25.521  13.055  0.00  0.00    +0.209 HD
ENDBRANCH  29  30
ENDBRANCH  26  29
ENDBRANCH  25  26
ENDBRANCH  22  25
ENDBRANCH   1  23
BRANCH   7  32
ATOM     32  N   LIG    1       23.623 -30.013   9.038  0.00  0.00    -0.283 N 
ATOM     33  H   LIG    1       22.692 -29.602   8.950  0.00  0.00    +0.155 HD
ATOM     34  C   LIG    1       23.930 -30.590   7.821  0.00  0.00    +0.225 C 
ATOM     35  O   LIG    1       23.445 -30.070   6.810  0.00  0.00    -0.275 OA
BRANCH  34  36
ATOM     36  C   LIG    1       24.673 -31.926   7.725  0.00  0.00    +0.126 C 
BRANCH  36  37
ATOM     37  C   LIG    1       26.049 -31.851   7.098  0.00  0.00    +0.170 C 
BRANCH  37  38
ATOM     38  O   LIG    1       26.111 -30.913   6.025  0.00  0.00    -0.394 OA
ATOM     39  H   LIG    1       26.888 -31.104   5.474  0.00  0.00    +0.209 HD
ENDBRANCH  37  38
ENDBRANCH  36  37
BRANCH  36  40
ATOM     40  C   LIG    1       23.868 -32.941   6.913  0.00  0.00    +0.170 C 
BRANCH  40  41
ATOM     41  O   LIG    1       23.682 -32.503   5.577  0.00  0.00    -0.394 OA
ATOM     42  H   LIG    1       24.072 -33.180   4.995  0.00  0.00    +0.209 HD
ENDBRANCH  40  41
ENDBRANCH  36  40
ENDBRANCH  34  36
ENDBRANCH   7  32
TORSDOF 18
ENDMDL
MODEL 5
REMARK VINA RESULT:      -2.3      2.987      6.660
REMARK  Name = *****
REMARK                            x       y       z     vdW  Elec       q    Type
REMARK                         _______ _______ _______ _____ _____    ______ ____
ROOT
ATOM      1  C   LIG    1       25.809 -30.894  11.452  0.00  0.00    +0.066 A 
ATOM      2  C   LIG    1       24.998 -31.328  12.494  0.00  0.00    +0.040 A 
ATOM      3  I   LIG    1       25.171 -33.825  12.733  0.00  0.00    -0.042 I 
ATOM      4  C   LIG    1       23.643 -31.108  12.465  0.00  0.00    +0.066 A 
ATOM      5  C   LIG    1       23.157 -31.257  11.143  0.00  0.00    +0.049 A 
ATOM      6  I   LIG    1       21.207 -30.688  10.571  0.00  0.00    -0.041 I 
ATOM      7  C   LIG    1       24.066 -31.734  10.091  0.00  0.00    +0.061 A 
ATOM      8  C   LIG    1       25.460 -31.582  10.312  0.00  0.00    +0.049 A 
ATOM      9  I   LIG    1       27.185 -32.038   9.219  0.00  0.00    -0.041 I 
ENDROOT
BRANCH   4  10
ATOM     10  C   LIG    1       23.006 -30.863  13.837  0.00  0.00    +0.248 C 
ATOM     11  N   LIG    1       22.452 -29.579  14.247  0.00  0.00    -0.298 N 
ATOM     12  C   LIG    1       21.724 -29.489  15.499  0.00  0.00    +0.132 C 
ATOM     13  O   LIG    1       22.985 -31.829  14.645  0.00  0.00    -0.270 OA
BRANCH  11  14
ATOM     14  C   LIG    1       21.934 -28.586  13.333  0.00  0.00    +0.141 C 
BRANCH  14  15
ATOM     15  C   LIG    1       21.878 -27.124  13.834  0.00  0.00    +0.157 C 
BRANCH  15  16
ATOM     16  O   LIG    1       22.944 -26.299  13.350  0.00  0.00    -0.388 OA
ATOM     17  H   LIG    1       22.826 -25.416  13.759  0.00  0.00    +0.210 HD
ENDBRANCH  15  16
BRANCH  15  18
ATOM     18  C   LIG    1       20.531 -26.445  13.664  0.00  0.00    +0.188 C 
BRANCH  18  19
ATOM     19  O   LIG    1       19.729 -27.195  12.772  0.00  0.00    -0.392 OA
ATOM     20  H   LIG    1       20.272 -27.945  12.482  0.00  0.00    +0.209 HD
ENDBRANCH  18  19
ENDBRANCH  15  18
ENDBRANCH  14  15
ENDBRANCH  11  14
ENDBRANCH   4  10
BRANCH   1  23
ATOM     21  C   LIG    1       26.863 -28.778  13.389  0.00  0.00    +0.132 C 
ATOM     22  N   LIG    1       26.427 -28.396  12.082  0.00  0.00    -0.298 N 
ATOM     23  C   LIG    1       25.970 -29.362  11.175  0.00  0.00    +0.248 C 
ATOM     24  O   LIG    1       25.642 -29.024   9.985  0.00  0.00    -0.270 OA
BRANCH  22  25
ATOM     25  C   LIG    1       26.428 -26.907  11.880  0.00  0.00    +0.141 C 
BRANCH  25  26
ATOM     26  C   LIG    1       26.335 -25.996  13.132  0.00  0.00    +0.157 C 
BRANCH  26  27
ATOM     27  O   LIG    1       25.516 -26.579  14.146  0.00  0.00    -0.388 OA
ATOM     28  H   LIG    1       24.591 -26.351  13.979  0.00  0.00    +0.210 HD
ENDBRANCH  26  27
BRANCH  26  29
ATOM     29  C   LIG    1       27.683 -25.712  13.833  0.00  0.00    +0.188 C 
BRANCH  29  30
ATOM     30  O   LIG    1       27.950 -24.302  13.795  0.00  0.00    -0.392 OA
ATOM     31  H   LIG    1       27.821 -23.986  12.884  0.00  0.00    +0.209 HD
ENDBRANCH  29  30
ENDBRANCH  26  29
ENDBRANCH  25  26
ENDBRANCH  22  25
ENDBRANCH   1  23
BRANCH   7  32
ATOM     32  N   LIG    1       23.536 -32.169   8.846  0.00  0.00    -0.283 N 
ATOM     33  H   LIG    1       23.461 -33.184   8.763  0.00  0.00    +0.155 HD
ATOM     34  C   LIG    1       23.755 -31.670   7.577  0.00  0.00    +0.225 C 
ATOM     35  O   LIG    1       23.269 -32.300   6.630  0.00  0.00    -0.275 OA
BRANCH  34  36
ATOM     36  C   LIG    1       24.716 -30.506   7.321  0.00  0.00    +0.126 C 
BRANCH  36  37
ATOM     37  C   LIG    1       24.082 -29.272   6.713  0.00  0.00    +0.170 C 
BRANCH  37  38
ATOM     38  O   LIG    1       23.206 -29.584   5.632  0.00  0.00    -0.394 OA
ATOM     39  H   LIG    1       23.427 -30.462   5.279  0.00  0.00    +0.209 HD
ENDBRANCH  37  38
ENDBRANCH  36  37
BRANCH  36  40
ATOM     40  C   LIG    1       25.850 -30.930   6.387  0.00  0.00    +0.170 C 
BRANCH  40  41
ATOM     41  O   LIG    1       25.428 -30.943   5.033  0.00  0.00    -0.394 OA
ATOM     42  H   LIG    1       24.480 -31.163   5.029  0.00  0.00    +0.209 HD
ENDBRANCH  40  41
ENDBRANCH  36  40
ENDBRANCH  34  36
ENDBRANCH   7  32
TORSDOF 18
ENDMDL
MODEL 6
REMARK VINA RESULT:      -2.1      2.162      2.911
REMARK  Name = *****
REMARK                            x       y       z     vdW  Elec       q    Type
REMARK                         _______ _______ _______ _____ _____    ______ ____
ROOT
ATOM      1  C   LIG    1       22.102 -31.434  11.586  0.00  0.00    +0.066 A 
ATOM      2  C   LIG    1       22.737 -31.576  12.814  0.00  0.00    +0.040 A 
ATOM      3  I   LIG    1       21.035 -31.987  14.618  0.00  0.00    -0.042 I 
ATOM      4  C   LIG    1       23.502 -30.559  13.328  0.00  0.00    +0.066 A 
ATOM      5  C   LIG    1       22.905 -29.309  13.034  0.00  0.00    +0.049 A 
ATOM      6  I   LIG    1       23.894 -27.470  13.336  0.00  0.00    -0.041 I 
ATOM      7  C   LIG    1       21.580 -29.275  12.399  0.00  0.00    +0.061 A 
ATOM      8  C   LIG    1       21.163 -30.435  11.694  0.00  0.00    +0.049 A 
ATOM      9  I   LIG    1       19.453 -30.967  10.612  0.00  0.00    -0.041 I 
ENDROOT
BRANCH   4  10
ATOM     10  C   LIG    1       24.712 -31.020  14.148  0.00  0.00    +0.248 C 
ATOM     11  N   LIG    1       26.092 -30.831  13.718  0.00  0.00    -0.298 N 
ATOM     12  C   LIG    1       27.170 -31.152  14.634  0.00  0.00    +0.132 C 
ATOM     13  O   LIG    1       24.482 -31.606  15.238  0.00  0.00    -0.270 OA
BRANCH  11  14
ATOM     14  C   LIG    1       26.532 -29.778  12.830  0.00  0.00    +0.141 C 
BRANCH  14  15
ATOM     15  C   LIG    1       26.876 -30.176  11.376  0.00  0.00    +0.157 C 
BRANCH  15  16
ATOM     16  O   LIG    1       26.369 -31.457  10.985  0.00  0.00    -0.388 OA
ATOM     17  H   LIG    1       25.455 -31.314  10.664  0.00  0.00    +0.210 HD
ENDBRANCH  15  16
BRANCH  15  18
ATOM     18  C   LIG    1       26.563 -29.116  10.336  0.00  0.00    +0.188 C 
BRANCH  18  19
ATOM     19  O   LIG    1       26.908 -27.839  10.839  0.00  0.00    -0.392 OA
ATOM     20  H   LIG    1       26.591 -27.194  10.187  0.00  0.00    +0.209 HD
ENDBRANCH  18  19
ENDBRANCH  15  18
ENDBRANCH  14  15
ENDBRANCH  11  14
ENDBRANCH   4  10
BRANCH   1  23
ATOM     21  C   LIG    1       23.135 -33.693   9.805  0.00  0.00    +0.132 C 
ATOM     22  N   LIG    1       23.447 -32.334   9.488  0.00  0.00    -0.298 N 
ATOM     23  C   LIG    1       22.952 -31.289  10.280  0.00  0.00    +0.248 C 
ATOM     24  O   LIG    1       23.179 -30.072   9.955  0.00  0.00    -0.270 OA
BRANCH  22  25
ATOM     25  C   LIG    1       24.398 -32.210   8.332  0.00  0.00    +0.141 C 
BRANCH  25  26
ATOM     26  C   LIG    1       23.842 -31.713   6.973  0.00  0.00    +0.157 C 
BRANCH  26  27
ATOM     27  O   LIG    1       23.731 -30.289   6.939  0.00  0.00    -0.388 OA
ATOM     28  H   LIG    1       23.556 -30.005   6.031  0.00  0.00    +0.210 HD
ENDBRANCH  26  27
BRANCH  26  29
ATOM     29  C   LIG    1       24.711 -32.067   5.743  0.00  0.00    +0.188 C 
BRANCH  29  30
ATOM     30  O   LIG    1       23.894 -32.711   4.754  0.00  0.00    -0.392 OA
ATOM     31  H   LIG    1       24.398 -32.767   3.924  0.00  0.00    +0.209 HD
ENDBRANCH  29  30
ENDBRANCH  26  29
ENDBRANCH  25  26
ENDBRANCH  22  25
ENDBRANCH   1  23
BRANCH   7  32
ATOM     32  N   LIG    1       20.844 -28.060  12.367  0.00  0.00    -0.283 N 
ATOM     33  H   LIG    1       21.377 -27.265  12.009  0.00  0.00    +0.155 HD
ATOM     34  C   LIG    1       19.931 -27.562  13.276  0.00  0.00    +0.225 C 
ATOM     35  O   LIG    1       19.509 -26.415  13.085  0.00  0.00    -0.275 OA
BRANCH  34  36
ATOM     36  C   LIG    1       19.596 -28.303  14.573  0.00  0.00    +0.126 C 
BRANCH  36  37
ATOM     37  C   LIG    1       20.771 -28.539  15.499  0.00  0.00    +0.170 C 
BRANCH  37  38
ATOM     38  O   LIG    1       21.694 -27.452  15.499  0.00  0.00    -0.394 OA
ATOM     39  H   LIG    1       22.056 -27.335  14.605  0.00  0.00    +0.209 HD
ENDBRANCH  37  38
ENDBRANCH  36  37
BRANCH  36  40
ATOM     40  C   LIG    1       18.981 -29.672  14.277  0.00  0.00    +0.170 C 
BRANCH  40  41
ATOM     41  O   LIG    1       17.969 -29.580  13.287  0.00  0.00    -0.394 OA
ATOM     42  H   LIG    1       17.191 -29.175  13.708  0.00  0.00    +0.209 HD
ENDBRANCH  40  41
ENDBRANCH  36  40
ENDBRANCH  34  36
ENDBRANCH   7  32
TORSDOF 18
ENDMDL
MODEL 7
REMARK VINA RESULT:      -1.9      2.140      6.725
REMARK  Name = *****
REMARK                            x       y       z     vdW  Elec       q    Type
REMARK                         _______ _______ _______ _____ _____    ______ ____
ROOT
ATOM      1  C   LIG    1       23.668 -29.797  11.118  0.00  0.00    +0.066 A 
ATOM      2  C   LIG    1       22.753 -29.451  12.106  0.00  0.00    +0.040 A 
ATOM      3  I   LIG    1       23.599 -27.472  13.404  0.00  0.00    -0.042 I 
ATOM      4  C   LIG    1       22.408 -30.347  13.086  0.00  0.00    +0.066 A 
ATOM      5  C   LIG    1       23.544 -31.101  13.473  0.00  0.00    +0.049 A 
ATOM      6  I   LIG    1       23.416 -32.811  14.702  0.00  0.00    -0.041 I 
ATOM      7  C   LIG    1       24.862 -30.750  12.925  0.00  0.00    +0.061 A 
ATOM      8  C   LIG    1       24.891 -30.011  11.713  0.00  0.00    +0.049 A 
ATOM      9  I   LIG    1       26.405 -29.256  10.482  0.00  0.00    -0.041 I 
ENDROOT
BRANCH   4  10
ATOM     10  C   LIG    1       20.958 -30.241  13.568  0.00  0.00    +0.248 C 
ATOM     11  N   LIG    1       19.840 -30.893  12.897  0.00  0.00    -0.298 N 
ATOM     12  C   LIG    1       18.529 -30.870  13.519  0.00  0.00    +0.132 C 
ATOM     13  O   LIG    1       20.738 -29.537  14.588  0.00  0.00    -0.270 OA
BRANCH  11  14
ATOM     14  C   LIG    1       19.956 -32.091  12.096  0.00  0.00    +0.141 C 
BRANCH  14  15
ATOM     15  C   LIG    1       18.818 -32.384  11.091  0.00  0.00    +0.157 C 
BRANCH  15  16
ATOM     16  O   LIG    1       17.545 -32.625  11.702  0.00  0.00    -0.388 OA
ATOM     17  H   LIG    1       17.190 -33.445  11.302  0.00  0.00    +0.210 HD
ENDBRANCH  15  16
BRANCH  15  18
ATOM     18  C   LIG    1       18.705 -31.388   9.951  0.00  0.00    +0.188 C 
BRANCH  18  19
ATOM     19  O   LIG    1       19.583 -30.302  10.179  0.00  0.00    -0.392 OA
ATOM     20  H   LIG    1       19.040 -29.499  10.143  0.00  0.00    +0.209 HD
ENDBRANCH  18  19
ENDBRANCH  15  18
ENDBRANCH  14  15
ENDBRANCH  11  14
ENDBRANCH   4  10
BRANCH   1  23
ATOM     21  C   LIG    1       25.267 -32.345  10.578  0.00  0.00    +0.132 C 
ATOM     22  N   LIG    1       24.077 -32.076   9.831  0.00  0.00    -0.298 N 
ATOM     23  C   LIG    1       23.320 -30.926  10.092  0.00  0.00    +0.248 C 
ATOM     24  O   LIG    1       22.222 -30.723   9.468  0.00  0.00    -0.270 OA
BRANCH  22  25
ATOM     25  C   LIG    1       23.838 -33.077   8.736  0.00  0.00    +0.141 C 
BRANCH  25  26
ATOM     26  C   LIG    1       24.225 -32.685   7.286  0.00  0.00    +0.157 C 
BRANCH  26  27
ATOM     27  O   LIG    1       23.271 -31.790   6.713  0.00  0.00    -0.388 OA
ATOM     28  H   LIG    1       23.546 -30.878   6.885  0.00  0.00    +0.210 HD
ENDBRANCH  26  27
BRANCH  26  29
ATOM     29  C   LIG    1       25.580 -31.953   7.148  0.00  0.00    +0.188 C 
BRANCH  29  30
ATOM     30  O   LIG    1       25.716 -31.456   5.808  0.00  0.00    -0.392 OA
ATOM     31  H   LIG    1       25.555 -32.188   5.188  0.00  0.00    +0.209 HD
ENDBRANCH  29  30
ENDBRANCH  26  29
ENDBRANCH  25  26
ENDBRANCH  22  25
ENDBRANCH   1  23
BRANCH   7  32
ATOM     32  N   LIG    1       26.037 -31.289  13.515  0.00  0.00    -0.283 N 
ATOM     33  H   LIG    1       25.864 -32.108  14.101  0.00  0.00    +0.155 HD
ATOM     34  C   LIG    1       27.134 -30.636  14.040  0.00  0.00    +0.225 C 
ATOM     35  O   LIG    1       27.985 -31.328  14.611  0.00  0.00    -0.275 OA
BRANCH  34  36
ATOM     36  C   LIG    1       27.215 -29.108  14.095  0.00  0.00    +0.126 C 
BRANCH  36  37
ATOM     37  C   LIG    1       28.560 -28.522  13.721  0.00  0.00    +0.170 C 
BRANCH  37  38
ATOM     38  O   LIG    1       29.262 -27.999  14.847  0.00  0.00    -0.394 OA
ATOM     39  H   LIG    1       29.526 -27.083  14.666  0.00  0.00    +0.209 HD
ENDBRANCH  37  38
ENDBRANCH  36  37
BRANCH  36  40
ATOM     40  C   LIG    1       26.879 -28.594  15.496  0.00  0.00    +0.170 C 
BRANCH  40  41
ATOM     41  O   LIG    1       26.689 -27.188  15.499  0.00  0.00    -0.394 OA
ATOM     42  H   LIG    1       27.363 -26.805  14.911  0.00  0.00    +0.209 HD
ENDBRANCH  40  41
ENDBRANCH  36  40
ENDBRANCH  34  36
ENDBRANCH   7  32
TORSDOF 18
ENDMDL
