MODEL 1
REMARK VINA RESULT:       4.8      0.000      0.000
REMARK  Name = *****
REMARK                            x       y       z     vdW  Elec       q    Type
REMARK                         _______ _______ _______ _____ _____    ______ ____
ROOT
ATOM      1  C   LIG    1       23.753 -16.924   3.871  0.00  0.00    +0.086 A 
ATOM      2  C   LIG    1       24.051 -18.012   3.039  0.00  0.00    +0.031 A 
ATOM      3  C   LIG    1       23.295 -19.185   3.095  0.00  0.00    +0.031 A 
ATOM      4  C   LIG    1       22.242 -19.281   4.004  0.00  0.00    +0.109 A 
ATOM      5  C   LIG    1       21.950 -18.221   4.870  0.00  0.00    +0.031 A 
ATOM      6  C   LIG    1       22.701 -17.046   4.793  0.00  0.00    +0.031 A 
ENDROOT
BRANCH   4   7
ATOM      7  S   LIG    1       21.298 -20.786   4.122  0.00  0.00    +0.073 S 
ATOM      8  O   LIG    1       21.663 -21.571   2.968  0.00  0.00    -0.150 OA
ATOM      9  O   LIG    1       19.910 -20.434   4.376  0.00  0.00    -0.150 OA
BRANCH   7  10
ATOM     10  N   LIG    1       21.958 -21.552   5.483  0.00  0.00    -0.200 N 
ATOM     11  H   LIG    1       21.838 -22.562   5.411  0.00  0.00    +0.175 HD
BRANCH  10  12
ATOM     12  C   LIG    1       23.326 -21.278   5.694  0.00  0.00    +0.138 A 
ATOM     13  N   LIG    1       24.134 -21.563   4.660  0.00  0.00    -0.239 NA
ATOM     14  C   LIG    1       25.447 -21.281   4.850  0.00  0.00    +0.113 A 
ATOM     15  C   LIG    1       25.968 -20.737   6.018  0.00  0.00    +0.020 A 
ATOM     16  C   LIG    1       25.093 -20.461   7.062  0.00  0.00    +0.005 A 
ATOM     17  C   LIG    1       23.740 -20.732   6.897  0.00  0.00    +0.045 A 
ENDBRANCH  10  12
ENDBRANCH   7  10
ENDBRANCH   4   7
BRANCH   1  19
ATOM     18  N   LIG    1       25.756 -16.054   3.541  0.00  0.00    -0.149 NA
ATOM     19  N   LIG    1       24.560 -15.778   3.773  0.00  0.00    -0.149 NA
BRANCH  18  24
ATOM     20  C   LIG    1       27.893 -13.166   4.472  0.00  0.00    +0.102 A 
ATOM     21  C   LIG    1       28.131 -12.593   3.215  0.00  0.00    +0.131 A 
ATOM     22  C   LIG    1       27.604 -13.161   2.059  0.00  0.00    +0.048 A 
ATOM     23  C   LIG    1       26.819 -14.308   2.156  0.00  0.00    +0.033 A 
ATOM     24  C   LIG    1       26.542 -14.894   3.401  0.00  0.00    +0.087 A 
ATOM     25  C   LIG    1       27.099 -14.321   4.551  0.00  0.00    +0.048 A 
BRANCH  20  27
ATOM     26  O   LIG    1       28.052 -13.008   6.845  0.00  0.00    -0.245 OA
ATOM     27  C   LIG    1       28.434 -12.621   5.752  0.00  0.00    +0.340 C 
BRANCH  27  28
ATOM     28  O   LIG    1       29.376 -11.665   5.616  0.00  0.00    -0.477 OA
ATOM     29  H   LIG    1       29.576 -11.467   4.673  0.00  0.00    +0.295 HD
ENDBRANCH  27  28
ENDBRANCH  20  27
BRANCH  21  30
ATOM     30  O   LIG    1       28.891 -11.455   3.106  0.00  0.00    -0.506 OA
ATOM     31  H   LIG    1       29.256 -11.411   2.201  0.00  0.00    +0.292 HD
ENDBRANCH  21  30
ENDBRANCH  18  24
ENDBRANCH   1  19
TORSDOF 8
ENDMDL
