MODEL 1
REMARK VINA RESULT:     -10.0      0.000      0.000
REMARK  Name = *****
REMARK                            x       y       z     vdW  Elec       q    Type
REMARK                         _______ _______ _______ _____ _____    ______ ____
ROOT
ATOM      1  C   LIG    1       23.910 -23.288   7.029  0.00  0.00    -0.046 A 
ATOM      2  C   LIG    1       23.164 -24.321   6.442  0.00  0.00    +0.005 A 
ATOM      3  C   LIG    1       23.799 -25.498   6.028  0.00  0.00    +0.029 A 
ATOM      4  C   LIG    1       25.175 -25.652   6.227  0.00  0.00    +0.109 A 
ATOM      5  C   LIG    1       25.924 -24.623   6.799  0.00  0.00    +0.029 A 
ATOM      6  C   LIG    1       25.292 -23.451   7.198  0.00  0.00    +0.005 A 
ENDROOT
BRANCH   4   7
ATOM      7  S   LIG    1       26.016 -27.122   5.686  0.00  0.00    +0.076 S 
ATOM      8  O   LIG    1       27.430 -26.799   5.604  0.00  0.00    -0.150 OA
ATOM      9  O   LIG    1       25.328 -27.673   4.540  0.00  0.00    -0.150 OA
BRANCH   7  10
ATOM     10  N   LIG    1       25.902 -28.172   6.974  0.00  0.00    -0.169 N 
ATOM     11  H   LIG    1       26.642 -28.044   7.646  0.00  0.00    +0.178 HD
ATOM     12  C   LIG    1       24.844 -29.041   7.192  0.00  0.00    +0.319 C 
ATOM     13  N   LIG    1       24.968 -29.783   8.341  0.00  0.00    -0.295 N 
ATOM     14  H   LIG    1       25.859 -29.799   8.805  0.00  0.00    +0.151 HD
ATOM     15  O   LIG    1       23.890 -29.119   6.449  0.00  0.00    -0.251 OA
BRANCH  13  16
ATOM     16  C   LIG    1       23.929 -30.737   8.749  0.00  0.00    +0.074 C 
ATOM     17  C   LIG    1       23.143 -30.211   9.964  0.00  0.00    +0.022 C 
ATOM     18  C   LIG    1       22.182 -31.236  10.555  0.00  0.00    +0.005 C 
ATOM     19  C   LIG    1       22.871 -32.553  10.909  0.00  0.00    -0.014 C 
ATOM     20  C   LIG    1       23.826 -32.392  12.095  0.00  0.00    +0.007 C 
ATOM     21  C   LIG    1       23.584 -33.112   9.672  0.00  0.00    +0.005 C 
ATOM     22  C   LIG    1       24.553 -32.116   9.027  0.00  0.00    +0.022 C 
ENDBRANCH  13  16
ENDBRANCH   7  10
ENDBRANCH   4   7
BRANCH   1  23
ATOM     23  C   LIG    1       23.275 -21.986   7.460  0.00  0.00    +0.054 C 
BRANCH  23  24
ATOM     24  C   LIG    1       23.961 -20.752   6.857  0.00  0.00    +0.110 C 
BRANCH  24  30
ATOM     25  C   LIG    1       29.549 -20.299   7.891  0.00  0.00    +0.015 C 
ATOM     26  C   LIG    1       28.137 -20.737   7.817  0.00  0.00    +0.250 C 
ATOM     27  O   LIG    1       27.557 -21.360   8.690  0.00  0.00    -0.270 OA
ATOM     28  N   LIG    1       27.632 -20.318   6.590  0.00  0.00    -0.218 N 
ATOM     29  C   LIG    1       26.313 -20.285   6.164  0.00  0.00    +0.309 C 
ATOM     30  N   LIG    1       25.399 -20.733   7.078  0.00  0.00    -0.299 N 
ATOM     31  H   LIG    1       25.762 -21.205   7.906  0.00  0.00    +0.150 HD
ATOM     32  O   LIG    1       25.991 -19.843   5.063  0.00  0.00    -0.252 OA
ATOM     33  C   LIG    1       28.677 -19.784   5.763  0.00  0.00    +0.149 C 
ATOM     34  C   LIG    1       29.840 -19.750   6.701  0.00  0.00    -0.047 C 
ATOM     35  C   LIG    1       31.113 -19.118   6.258  0.00  0.00    +0.041 C 
BRANCH  25  37
ATOM     36  C   LIG    1       31.110 -21.824   9.108  0.00  0.00    +0.009 C 
ATOM     37  C   LIG    1       30.372 -20.492   9.117  0.00  0.00    +0.037 C 
ENDBRANCH  25  37
ENDBRANCH  24  30
ENDBRANCH  23  24
ENDBRANCH   1  23
TORSDOF 7
ENDMDL
MODEL 2
REMARK VINA RESULT:      -9.6      2.073     10.432
REMARK  Name = *****
REMARK                            x       y       z     vdW  Elec       q    Type
REMARK                         _______ _______ _______ _____ _____    ______ ____
ROOT
ATOM      1  C   LIG    1       24.575 -25.794   6.249  0.00  0.00    -0.046 A 
ATOM      2  C   LIG    1       25.828 -25.273   6.606  0.00  0.00    +0.005 A 
ATOM      3  C   LIG    1       25.941 -23.942   7.027  0.00  0.00    +0.029 A 
ATOM      4  C   LIG    1       24.797 -23.142   7.116  0.00  0.00    +0.109 A 
ATOM      5  C   LIG    1       23.551 -23.651   6.751  0.00  0.00    +0.029 A 
ATOM      6  C   LIG    1       23.444 -24.970   6.323  0.00  0.00    +0.005 A 
ENDROOT
BRANCH   4   7
ATOM      7  S   LIG    1       24.912 -21.441   7.619  0.00  0.00    +0.076 S 
ATOM      8  O   LIG    1       25.301 -21.435   9.019  0.00  0.00    -0.150 OA
ATOM      9  O   LIG    1       23.727 -20.734   7.190  0.00  0.00    -0.150 OA
BRANCH   7  10
ATOM     10  N   LIG    1       26.246 -20.852   6.813  0.00  0.00    -0.169 N 
ATOM     11  H   LIG    1       26.023 -20.507   5.893  0.00  0.00    +0.178 HD
ATOM     12  C   LIG    1       27.507 -20.716   7.372  0.00  0.00    +0.319 C 
ATOM     13  N   LIG    1       28.435 -20.178   6.513  0.00  0.00    -0.295 N 
ATOM     14  H   LIG    1       28.205 -20.122   5.537  0.00  0.00    +0.151 HD
ATOM     15  O   LIG    1       27.759 -21.021   8.517  0.00  0.00    -0.251 OA
BRANCH  13  16
ATOM     16  C   LIG    1       29.819 -19.935   6.940  0.00  0.00    +0.074 C 
ATOM     17  C   LIG    1       30.150 -20.731   8.216  0.00  0.00    +0.022 C 
ATOM     18  C   LIG    1       31.504 -20.375   8.818  0.00  0.00    +0.005 C 
ATOM     19  C   LIG    1       31.655 -18.877   9.082  0.00  0.00    -0.014 C 
ATOM     20  C   LIG    1       30.744 -18.407  10.220  0.00  0.00    +0.007 C 
ATOM     21  C   LIG    1       31.403 -18.096   7.788  0.00  0.00    +0.005 C 
ATOM     22  C   LIG    1       30.060 -18.427   7.130  0.00  0.00    +0.022 C 
ENDBRANCH  13  16
ENDBRANCH   7  10
ENDBRANCH   4   7
BRANCH   1  23
ATOM     23  C   LIG    1       24.408 -27.213   5.756  0.00  0.00    +0.054 C 
BRANCH  23  24
ATOM     24  C   LIG    1       25.450 -28.180   6.336  0.00  0.00    +0.110 C 
BRANCH  24  30
ATOM     25  C   LIG    1       23.462 -30.484  11.158  0.00  0.00    +0.015 C 
ATOM     26  C   LIG    1       23.806 -30.182   9.750  0.00  0.00    +0.250 C 
ATOM     27  O   LIG    1       23.095 -30.436   8.792  0.00  0.00    -0.270 OA
ATOM     28  N   LIG    1       25.063 -29.584   9.744  0.00  0.00    -0.218 N 
ATOM     29  C   LIG    1       25.700 -28.921   8.707  0.00  0.00    +0.309 C 
ATOM     30  N   LIG    1       24.991 -28.859   7.538  0.00  0.00    -0.299 N 
ATOM     31  H   LIG    1       24.154 -29.438   7.471  0.00  0.00    +0.150 HD
ATOM     32  O   LIG    1       26.799 -28.389   8.847  0.00  0.00    -0.252 OA
ATOM     33  C   LIG    1       25.658 -29.633  11.050  0.00  0.00    +0.149 C 
ATOM     34  C   LIG    1       24.538 -30.157  11.891  0.00  0.00    -0.047 C 
ATOM     35  C   LIG    1       24.709 -30.227  13.368  0.00  0.00    +0.041 C 
BRANCH  25  37
ATOM     36  C   LIG    1       21.143 -29.945  11.915  0.00  0.00    +0.009 C 
ATOM     37  C   LIG    1       22.135 -31.038  11.544  0.00  0.00    +0.037 C 
ENDBRANCH  25  37
ENDBRANCH  24  30
ENDBRANCH  23  24
ENDBRANCH   1  23
TORSDOF 7
ENDMDL
MODEL 3
REMARK VINA RESULT:      -9.6      2.370     10.169
REMARK  Name = *****
REMARK                            x       y       z     vdW  Elec       q    Type
REMARK                         _______ _______ _______ _____ _____    ______ ____
ROOT
ATOM      1  C   LIG    1       24.610 -26.277   5.910  0.00  0.00    -0.046 A 
ATOM      2  C   LIG    1       25.955 -25.932   6.105  0.00  0.00    +0.005 A 
ATOM      3  C   LIG    1       26.293 -24.658   6.579  0.00  0.00    +0.029 A 
ATOM      4  C   LIG    1       25.282 -23.741   6.885  0.00  0.00    +0.109 A 
ATOM      5  C   LIG    1       23.942 -24.075   6.682  0.00  0.00    +0.029 A 
ATOM      6  C   LIG    1       23.612 -25.336   6.200  0.00  0.00    +0.005 A 
ENDROOT
BRANCH   4   7
ATOM      7  S   LIG    1       25.678 -22.106   7.460  0.00  0.00    +0.076 S 
ATOM      8  O   LIG    1       25.765 -22.174   8.909  0.00  0.00    -0.150 OA
ATOM      9  O   LIG    1       24.798 -21.150   6.828  0.00  0.00    -0.150 OA
BRANCH   7  10
ATOM     10  N   LIG    1       27.247 -21.851   6.960  0.00  0.00    -0.169 N 
ATOM     11  H   LIG    1       27.479 -22.375   6.131  0.00  0.00    +0.178 HD
ATOM     12  C   LIG    1       28.112 -20.926   7.521  0.00  0.00    +0.319 C 
ATOM     13  N   LIG    1       29.343 -20.884   6.913  0.00  0.00    -0.295 N 
ATOM     14  H   LIG    1       29.589 -21.625   6.281  0.00  0.00    +0.151 HD
ATOM     15  O   LIG    1       27.802 -20.208   8.446  0.00  0.00    -0.251 OA
BRANCH  13  16
ATOM     16  C   LIG    1       30.381 -19.944   7.356  0.00  0.00    +0.074 C 
ATOM     17  C   LIG    1       30.952 -20.359   8.725  0.00  0.00    +0.022 C 
ATOM     18  C   LIG    1       31.892 -19.322   9.329  0.00  0.00    +0.005 C 
ATOM     19  C   LIG    1       31.257 -17.936   9.425  0.00  0.00    -0.014 C 
ATOM     20  C   LIG    1       30.138 -17.896  10.469  0.00  0.00    +0.007 C 
ATOM     21  C   LIG    1       30.765 -17.495   8.041  0.00  0.00    +0.005 C 
ATOM     22  C   LIG    1       29.825 -18.509   7.380  0.00  0.00    +0.022 C 
ENDBRANCH  13  16
ENDBRANCH   7  10
ENDBRANCH   4   7
BRANCH   1  23
ATOM     23  C   LIG    1       24.199 -27.626   5.368  0.00  0.00    +0.054 C 
BRANCH  23  24
ATOM     24  C   LIG    1       25.220 -28.733   5.665  0.00  0.00    +0.110 C 
BRANCH  24  30
ATOM     25  C   LIG    1       26.453 -29.751  11.138  0.00  0.00    +0.015 C 
ATOM     26  C   LIG    1       26.253 -29.141   9.804  0.00  0.00    +0.250 C 
ATOM     27  O   LIG    1       26.954 -28.262   9.331  0.00  0.00    -0.270 OA
ATOM     28  N   LIG    1       25.137 -29.743   9.231  0.00  0.00    -0.218 N 
ATOM     29  C   LIG    1       24.699 -29.677   7.917  0.00  0.00    +0.309 C 
ATOM     30  N   LIG    1       25.472 -28.911   7.087  0.00  0.00    -0.299 N 
ATOM     31  H   LIG    1       26.183 -28.326   7.525  0.00  0.00    +0.150 HD
ATOM     32  O   LIG    1       23.716 -30.301   7.522  0.00  0.00    -0.252 OA
ATOM     33  C   LIG    1       24.471 -30.592  10.177  0.00  0.00    +0.149 C 
ATOM     34  C   LIG    1       25.420 -30.586  11.332  0.00  0.00    -0.047 C 
ATOM     35  C   LIG    1       25.156 -31.478  12.495  0.00  0.00    +0.041 C 
BRANCH  25  37
ATOM     36  C   LIG    1       27.258 -28.448  13.111  0.00  0.00    +0.009 C 
ATOM     37  C   LIG    1       27.624 -29.413  11.993  0.00  0.00    +0.037 C 
ENDBRANCH  25  37
ENDBRANCH  24  30
ENDBRANCH  23  24
ENDBRANCH   1  23
TORSDOF 7
ENDMDL
MODEL 4
REMARK VINA RESULT:      -9.6      3.733      9.739
REMARK  Name = *****
REMARK                            x       y       z     vdW  Elec       q    Type
REMARK                         _______ _______ _______ _____ _____    ______ ____
ROOT
ATOM      1  C   LIG    1       26.473 -29.566   9.957  0.00  0.00    -0.046 A 
ATOM      2  C   LIG    1       26.660 -28.254   9.499  0.00  0.00    +0.005 A 
ATOM      3  C   LIG    1       26.154 -27.866   8.253  0.00  0.00    +0.029 A 
ATOM      4  C   LIG    1       25.437 -28.784   7.478  0.00  0.00    +0.109 A 
ATOM      5  C   LIG    1       25.258 -30.094   7.924  0.00  0.00    +0.029 A 
ATOM      6  C   LIG    1       25.773 -30.479   9.157  0.00  0.00    +0.005 A 
ENDROOT
BRANCH   4   7
ATOM      7  S   LIG    1       24.807 -28.332   5.879  0.00  0.00    +0.076 S 
ATOM      8  O   LIG    1       23.742 -29.268   5.559  0.00  0.00    -0.150 OA
ATOM      9  O   LIG    1       25.910 -28.145   4.964  0.00  0.00    -0.150 OA
BRANCH   7  10
ATOM     10  N   LIG    1       24.025 -26.882   6.128  0.00  0.00    -0.169 N 
ATOM     11  H   LIG    1       23.059 -27.002   6.389  0.00  0.00    +0.178 HD
ATOM     12  C   LIG    1       24.643 -25.641   6.117  0.00  0.00    +0.319 C 
ATOM     13  N   LIG    1       23.789 -24.598   6.379  0.00  0.00    -0.295 N 
ATOM     14  H   LIG    1       22.800 -24.773   6.352  0.00  0.00    +0.151 HD
ATOM     15  O   LIG    1       25.829 -25.496   5.919  0.00  0.00    -0.251 OA
BRANCH  13  16
ATOM     16  C   LIG    1       24.271 -23.212   6.435  0.00  0.00    +0.074 C 
ATOM     17  C   LIG    1       23.307 -22.325   7.245  0.00  0.00    +0.022 C 
ATOM     18  C   LIG    1       23.648 -20.841   7.178  0.00  0.00    +0.005 C 
ATOM     19  C   LIG    1       23.755 -20.325   5.744  0.00  0.00    -0.014 C 
ATOM     20  C   LIG    1       22.391 -20.299   5.048  0.00  0.00    +0.007 C 
ATOM     21  C   LIG    1       24.777 -21.163   4.967  0.00  0.00    +0.005 C 
ATOM     22  C   LIG    1       24.491 -22.667   5.013  0.00  0.00    +0.022 C 
ENDBRANCH  13  16
ENDBRANCH   7  10
ENDBRANCH   4   7
BRANCH   1  23
ATOM     23  C   LIG    1       27.032 -30.040  11.280  0.00  0.00    +0.054 C 
BRANCH  23  24
ATOM     24  C   LIG    1       26.714 -29.092  12.444  0.00  0.00    +0.110 C 
BRANCH  24  30
ATOM     25  C   LIG    1       21.069 -28.604  13.075  0.00  0.00    +0.015 C 
ATOM     26  C   LIG    1       22.484 -29.037  13.124  0.00  0.00    +0.250 C 
ATOM     27  O   LIG    1       22.854 -30.198  13.173  0.00  0.00    -0.270 OA
ATOM     28  N   LIG    1       23.273 -27.891  13.118  0.00  0.00    -0.218 N 
ATOM     29  C   LIG    1       24.641 -27.785  12.920  0.00  0.00    +0.309 C 
ATOM     30  N   LIG    1       25.289 -28.972  12.710  0.00  0.00    -0.299 N 
ATOM     31  H   LIG    1       24.761 -29.826  12.887  0.00  0.00    +0.150 HD
ATOM     32  O   LIG    1       25.216 -26.699  12.888  0.00  0.00    -0.252 OA
ATOM     33  C   LIG    1       22.464 -26.712  13.250  0.00  0.00    +0.149 C 
ATOM     34  C   LIG    1       21.079 -27.263  13.144  0.00  0.00    -0.047 C 
ATOM     35  C   LIG    1       19.924 -26.325  13.095  0.00  0.00    +0.041 C 
BRANCH  25  37
ATOM     36  C   LIG    1       19.436 -30.017  14.330  0.00  0.00    +0.009 C 
ATOM     37  C   LIG    1       19.949 -29.580  12.966  0.00  0.00    +0.037 C 
ENDBRANCH  25  37
ENDBRANCH  24  30
ENDBRANCH  23  24
ENDBRANCH   1  23
TORSDOF 7
ENDMDL
MODEL 5
REMARK VINA RESULT:      -9.6      2.193     10.435
REMARK  Name = *****
REMARK                            x       y       z     vdW  Elec       q    Type
REMARK                         _______ _______ _______ _____ _____    ______ ____
ROOT
ATOM      1  C   LIG    1       24.612 -26.357   6.087  0.00  0.00    -0.046 A 
ATOM      2  C   LIG    1       23.601 -25.387   6.154  0.00  0.00    +0.005 A 
ATOM      3  C   LIG    1       23.901 -24.087   6.578  0.00  0.00    +0.029 A 
ATOM      4  C   LIG    1       25.219 -23.751   6.906  0.00  0.00    +0.109 A 
ATOM      5  C   LIG    1       26.227 -24.714   6.852  0.00  0.00    +0.029 A 
ATOM      6  C   LIG    1       25.922 -26.008   6.442  0.00  0.00    +0.005 A 
ENDROOT
BRANCH   4   7
ATOM      7  S   LIG    1       25.628 -22.117   7.474  0.00  0.00    +0.076 S 
ATOM      8  O   LIG    1       25.740 -22.184   8.922  0.00  0.00    -0.150 OA
ATOM      9  O   LIG    1       24.739 -21.159   6.857  0.00  0.00    -0.150 OA
BRANCH   7  10
ATOM     10  N   LIG    1       27.188 -21.865   6.947  0.00  0.00    -0.169 N 
ATOM     11  H   LIG    1       27.397 -22.368   6.099  0.00  0.00    +0.178 HD
ATOM     12  C   LIG    1       28.076 -20.965   7.515  0.00  0.00    +0.319 C 
ATOM     13  N   LIG    1       29.294 -20.919   6.881  0.00  0.00    -0.295 N 
ATOM     14  H   LIG    1       29.518 -21.645   6.224  0.00  0.00    +0.151 HD
ATOM     15  O   LIG    1       27.794 -20.269   8.466  0.00  0.00    -0.251 OA
BRANCH  13  16
ATOM     16  C   LIG    1       30.352 -20.003   7.327  0.00  0.00    +0.074 C 
ATOM     17  C   LIG    1       30.890 -20.414   8.710  0.00  0.00    +0.022 C 
ATOM     18  C   LIG    1       31.851 -19.397   9.314  0.00  0.00    +0.005 C 
ATOM     19  C   LIG    1       31.254 -17.992   9.381  0.00  0.00    -0.014 C 
ATOM     20  C   LIG    1       30.121 -17.905  10.408  0.00  0.00    +0.007 C 
ATOM     21  C   LIG    1       30.795 -17.557   7.985  0.00  0.00    +0.005 C 
ATOM     22  C   LIG    1       29.837 -18.553   7.323  0.00  0.00    +0.022 C 
ENDBRANCH  13  16
ENDBRANCH   7  10
ENDBRANCH   4   7
BRANCH   1  23
ATOM     23  C   LIG    1       24.329 -27.782   5.670  0.00  0.00    +0.054 C 
BRANCH  23  24
ATOM     24  C   LIG    1       25.271 -28.801   6.326  0.00  0.00    +0.110 C 
BRANCH  24  30
ATOM     25  C   LIG    1       23.385 -30.046  11.560  0.00  0.00    +0.015 C 
ATOM     26  C   LIG    1       23.678 -30.030  10.109  0.00  0.00    +0.250 C 
ATOM     27  O   LIG    1       22.908 -30.408   9.241  0.00  0.00    -0.270 OA
ATOM     28  N   LIG    1       24.966 -29.530   9.947  0.00  0.00    -0.218 N 
ATOM     29  C   LIG    1       25.591 -29.112   8.782  0.00  0.00    +0.309 C 
ATOM     30  N   LIG    1       24.831 -29.216   7.649  0.00  0.00    -0.299 N 
ATOM     31  H   LIG    1       23.960 -29.741   7.721  0.00  0.00    +0.150 HD
ATOM     32  O   LIG    1       26.726 -28.639   8.781  0.00  0.00    -0.252 OA
ATOM     33  C   LIG    1       25.620 -29.379  11.216  0.00  0.00    +0.149 C 
ATOM     34  C   LIG    1       24.513 -29.664  12.180  0.00  0.00    -0.047 C 
ATOM     35  C   LIG    1       24.750 -29.474  13.637  0.00  0.00    +0.041 C 
BRANCH  25  37
ATOM     36  C   LIG    1       21.184 -29.216  12.401  0.00  0.00    +0.009 C 
ATOM     37  C   LIG    1       22.047 -30.430  12.091  0.00  0.00    +0.037 C 
ENDBRANCH  25  37
ENDBRANCH  24  30
ENDBRANCH  23  24
ENDBRANCH   1  23
TORSDOF 7
ENDMDL
MODEL 6
REMARK VINA RESULT:      -9.4      3.739      6.109
REMARK  Name = *****
REMARK                            x       y       z     vdW  Elec       q    Type
REMARK                         _______ _______ _______ _____ _____    ______ ____
ROOT
ATOM      1  C   LIG    1       24.718 -29.021   7.325  0.00  0.00    -0.046 A 
ATOM      2  C   LIG    1       25.727 -28.202   7.850  0.00  0.00    +0.005 A 
ATOM      3  C   LIG    1       26.353 -28.543   9.056  0.00  0.00    +0.029 A 
ATOM      4  C   LIG    1       25.988 -29.719   9.719  0.00  0.00    +0.109 A 
ATOM      5  C   LIG    1       24.976 -30.532   9.207  0.00  0.00    +0.029 A 
ATOM      6  C   LIG    1       24.349 -30.183   8.016  0.00  0.00    +0.005 A 
ENDROOT
BRANCH   4   7
ATOM      7  S   LIG    1       26.743 -30.165  11.266  0.00  0.00    +0.076 S 
ATOM      8  O   LIG    1       28.176 -29.986  11.108  0.00  0.00    -0.150 OA
ATOM      9  O   LIG    1       26.212 -31.433  11.709  0.00  0.00    -0.150 OA
BRANCH   7  10
ATOM     10  N   LIG    1       26.287 -28.959  12.321  0.00  0.00    -0.169 N 
ATOM     11  H   LIG    1       27.038 -28.321  12.529  0.00  0.00    +0.178 HD
ATOM     12  C   LIG    1       24.992 -28.754  12.771  0.00  0.00    +0.319 C 
ATOM     13  N   LIG    1       24.866 -27.675  13.612  0.00  0.00    -0.295 N 
ATOM     14  H   LIG    1       25.701 -27.263  13.988  0.00  0.00    +0.151 HD
ATOM     15  O   LIG    1       24.058 -29.447  12.434  0.00  0.00    -0.251 OA
BRANCH  13  16
ATOM     16  C   LIG    1       23.562 -27.288  14.167  0.00  0.00    +0.074 C 
ATOM     17  C   LIG    1       22.985 -28.409  15.052  0.00  0.00    +0.022 C 
ATOM     18  C   LIG    1       21.552 -28.150  15.500  0.00  0.00    +0.005 C 
ATOM     19  C   LIG    1       20.610 -27.872  14.329  0.00  0.00    -0.014 C 
ATOM     20  C   LIG    1       20.383 -29.123  13.475  0.00  0.00    +0.007 C 
ATOM     21  C   LIG    1       21.149 -26.702  13.499  0.00  0.00    +0.005 C 
ATOM     22  C   LIG    1       22.595 -26.902  13.034  0.00  0.00    +0.022 C 
ENDBRANCH  13  16
ENDBRANCH   7  10
ENDBRANCH   4   7
BRANCH   1  23
ATOM     23  C   LIG    1       23.990 -28.676   6.046  0.00  0.00    +0.054 C 
BRANCH  23  24
ATOM     24  C   LIG    1       24.708 -27.606   5.212  0.00  0.00    +0.110 C 
BRANCH  24  30
ATOM     25  C   LIG    1       24.207 -22.219   7.014  0.00  0.00    +0.015 C 
ATOM     26  C   LIG    1       24.038 -23.670   6.769  0.00  0.00    +0.250 C 
ATOM     27  O   LIG    1       22.965 -24.250   6.751  0.00  0.00    -0.270 OA
ATOM     28  N   LIG    1       25.305 -24.214   6.583  0.00  0.00    -0.218 N 
ATOM     29  C   LIG    1       25.644 -25.468   6.100  0.00  0.00    +0.309 C 
ATOM     30  N   LIG    1       24.584 -26.268   5.772  0.00  0.00    -0.299 N 
ATOM     31  H   LIG    1       23.658 -25.956   6.065  0.00  0.00    +0.150 HD
ATOM     32  O   LIG    1       26.813 -25.813   5.936  0.00  0.00    -0.252 OA
ATOM     33  C   LIG    1       26.324 -23.245   6.870  0.00  0.00    +0.149 C 
ATOM     34  C   LIG    1       25.530 -21.994   7.064  0.00  0.00    -0.047 C 
ATOM     35  C   LIG    1       26.242 -20.700   7.250  0.00  0.00    +0.041 C 
BRANCH  25  37
ATOM     36  C   LIG    1       22.923 -20.344   5.977  0.00  0.00    +0.009 C 
ATOM     37  C   LIG    1       23.042 -21.302   7.154  0.00  0.00    +0.037 C 
ENDBRANCH  25  37
ENDBRANCH  24  30
ENDBRANCH  23  24
ENDBRANCH   1  23
TORSDOF 7
ENDMDL
MODEL 7
REMARK VINA RESULT:      -9.4      3.599     10.466
REMARK  Name = *****
REMARK                            x       y       z     vdW  Elec       q    Type
REMARK                         _______ _______ _______ _____ _____    ______ ____
ROOT
ATOM      1  C   LIG    1       25.500 -29.519   9.946  0.00  0.00    -0.046 A 
ATOM      2  C   LIG    1       24.475 -30.070   9.162  0.00  0.00    +0.005 A 
ATOM      3  C   LIG    1       24.301 -29.650   7.838  0.00  0.00    +0.029 A 
ATOM      4  C   LIG    1       25.171 -28.702   7.289  0.00  0.00    +0.109 A 
ATOM      5  C   LIG    1       26.185 -28.143   8.068  0.00  0.00    +0.029 A 
ATOM      6  C   LIG    1       26.347 -28.553   9.387  0.00  0.00    +0.005 A 
ENDROOT
BRANCH   4   7
ATOM      7  S   LIG    1       24.959 -28.128   5.621  0.00  0.00    +0.076 S 
ATOM      8  O   LIG    1       24.036 -29.042   4.969  0.00  0.00    -0.150 OA
ATOM      9  O   LIG    1       26.255 -27.863   5.037  0.00  0.00    -0.150 OA
BRANCH   7  10
ATOM     10  N   LIG    1       24.103 -26.707   5.769  0.00  0.00    -0.169 N 
ATOM     11  H   LIG    1       23.106 -26.855   5.798  0.00  0.00    +0.178 HD
ATOM     12  C   LIG    1       24.674 -25.459   5.967  0.00  0.00    +0.319 C 
ATOM     13  N   LIG    1       23.755 -24.446   6.088  0.00  0.00    -0.295 N 
ATOM     14  H   LIG    1       22.803 -24.632   5.830  0.00  0.00    +0.151 HD
ATOM     15  O   LIG    1       25.870 -25.286   6.049  0.00  0.00    -0.251 OA
BRANCH  13  16
ATOM     16  C   LIG    1       24.176 -23.059   6.329  0.00  0.00    +0.074 C 
ATOM     17  C   LIG    1       23.084 -22.276   7.082  0.00  0.00    +0.022 C 
ATOM     18  C   LIG    1       23.377 -20.784   7.193  0.00  0.00    +0.005 C 
ATOM     19  C   LIG    1       23.645 -20.135   5.836  0.00  0.00    -0.014 C 
ATOM     20  C   LIG    1       22.380 -20.078   4.974  0.00  0.00    +0.007 C 
ATOM     21  C   LIG    1       24.788 -20.870   5.127  0.00  0.00    +0.005 C 
ATOM     22  C   LIG    1       24.553 -22.379   5.002  0.00  0.00    +0.022 C 
ENDBRANCH  13  16
ENDBRANCH   7  10
ENDBRANCH   4   7
BRANCH   1  23
ATOM     23  C   LIG    1       25.704 -29.914  11.391  0.00  0.00    +0.054 C 
BRANCH  23  24
ATOM     24  C   LIG    1       24.613 -30.857  11.919  0.00  0.00    +0.110 C 
BRANCH  24  30
ATOM     25  C   LIG    1       20.000 -28.179  13.932  0.00  0.00    +0.015 C 
ATOM     26  C   LIG    1       21.241 -28.554  13.217  0.00  0.00    +0.250 C 
ATOM     27  O   LIG    1       22.128 -27.774  12.911  0.00  0.00    -0.270 OA
ATOM     28  N   LIG    1       21.183 -29.921  12.964  0.00  0.00    -0.218 N 
ATOM     29  C   LIG    1       22.196 -30.764  12.535  0.00  0.00    +0.309 C 
ATOM     30  N   LIG    1       23.406 -30.158  12.331  0.00  0.00    -0.299 N 
ATOM     31  H   LIG    1       23.422 -29.139  12.340  0.00  0.00    +0.150 HD
ATOM     32  O   LIG    1       22.026 -31.974  12.395  0.00  0.00    -0.252 OA
ATOM     33  C   LIG    1       19.893 -30.450  13.307  0.00  0.00    +0.149 C 
ATOM     34  C   LIG    1       19.239 -29.285  13.977  0.00  0.00    -0.047 C 
ATOM     35  C   LIG    1       17.907 -29.467  14.617  0.00  0.00    +0.041 C 
BRANCH  25  37
ATOM     36  C   LIG    1       18.759 -26.035  13.614  0.00  0.00    +0.009 C 
ATOM     37  C   LIG    1       19.773 -26.802  14.450  0.00  0.00    +0.037 C 
ENDBRANCH  25  37
ENDBRANCH  24  30
ENDBRANCH  23  24
ENDBRANCH   1  23
TORSDOF 7
ENDMDL
MODEL 8
REMARK VINA RESULT:      -9.1      3.342      5.145
REMARK  Name = *****
REMARK                            x       y       z     vdW  Elec       q    Type
REMARK                         _______ _______ _______ _____ _____    ______ ____
ROOT
ATOM      1  C   LIG    1       24.591 -27.264   6.099  0.00  0.00    -0.046 A 
ATOM      2  C   LIG    1       25.375 -27.456   7.246  0.00  0.00    +0.005 A 
ATOM      3  C   LIG    1       25.577 -28.746   7.751  0.00  0.00    +0.029 A 
ATOM      4  C   LIG    1       25.018 -29.846   7.092  0.00  0.00    +0.109 A 
ATOM      5  C   LIG    1       24.228 -29.660   5.957  0.00  0.00    +0.029 A 
ATOM      6  C   LIG    1       24.019 -28.376   5.465  0.00  0.00    +0.005 A 
ENDROOT
BRANCH   4   7
ATOM      7  S   LIG    1       25.231 -31.493   7.724  0.00  0.00    +0.076 S 
ATOM      8  O   LIG    1       26.653 -31.791   7.668  0.00  0.00    -0.150 OA
ATOM      9  O   LIG    1       24.278 -32.377   7.091  0.00  0.00    -0.150 OA
BRANCH   7  10
ATOM     10  N   LIG    1       24.895 -31.368   9.351  0.00  0.00    -0.169 N 
ATOM     11  H   LIG    1       25.712 -31.497   9.927  0.00  0.00    +0.178 HD
ATOM     12  C   LIG    1       23.668 -30.995   9.875  0.00  0.00    +0.319 C 
ATOM     13  N   LIG    1       23.650 -30.935  11.247  0.00  0.00    -0.295 N 
ATOM     14  H   LIG    1       24.416 -31.345  11.752  0.00  0.00    +0.151 HD
ATOM     15  O   LIG    1       22.710 -30.724   9.185  0.00  0.00    -0.251 OA
BRANCH  13  16
ATOM     16  C   LIG    1       22.442 -30.532  11.978  0.00  0.00    +0.074 C 
ATOM     17  C   LIG    1       22.424 -29.010  12.216  0.00  0.00    +0.022 C 
ATOM     18  C   LIG    1       21.298 -28.553  13.135  0.00  0.00    +0.005 C 
ATOM     19  C   LIG    1       21.293 -29.292  14.473  0.00  0.00    -0.014 C 
ATOM     20  C   LIG    1       22.494 -28.904  15.339  0.00  0.00    +0.007 C 
ATOM     21  C   LIG    1       21.228 -30.804  14.229  0.00  0.00    +0.005 C 
ATOM     22  C   LIG    1       22.331 -31.316  13.298  0.00  0.00    +0.022 C 
ENDBRANCH  13  16
ENDBRANCH   7  10
ENDBRANCH   4   7
BRANCH   1  23
ATOM     23  C   LIG    1       24.316 -25.888   5.537  0.00  0.00    +0.054 C 
BRANCH  23  24
ATOM     24  C   LIG    1       23.745 -24.914   6.577  0.00  0.00    +0.110 C 
BRANCH  24  30
ATOM     25  C   LIG    1       23.482 -19.688   4.314  0.00  0.00    +0.015 C 
ATOM     26  C   LIG    1       23.249 -20.926   5.093  0.00  0.00    +0.250 C 
ATOM     27  O   LIG    1       22.151 -21.334   5.435  0.00  0.00    -0.270 OA
ATOM     28  N   LIG    1       24.491 -21.495   5.356  0.00  0.00    -0.218 N 
ATOM     29  C   LIG    1       24.774 -22.762   5.842  0.00  0.00    +0.309 C 
ATOM     30  N   LIG    1       23.680 -23.542   6.099  0.00  0.00    -0.299 N 
ATOM     31  H   LIG    1       22.769 -23.084   6.082  0.00  0.00    +0.150 HD
ATOM     32  O   LIG    1       25.927 -23.166   5.985  0.00  0.00    -0.252 OA
ATOM     33  C   LIG    1       25.552 -20.616   4.954  0.00  0.00    +0.149 C 
ATOM     34  C   LIG    1       24.813 -19.530   4.242  0.00  0.00    -0.047 C 
ATOM     35  C   LIG    1       25.582 -18.467   3.539  0.00  0.00    +0.041 C 
BRANCH  25  37
ATOM     36  C   LIG    1       22.137 -17.599   4.573  0.00  0.00    +0.009 C 
ATOM     37  C   LIG    1       22.359 -18.874   3.772  0.00  0.00    +0.037 C 
ENDBRANCH  25  37
ENDBRANCH  24  30
ENDBRANCH  23  24
ENDBRANCH   1  23
TORSDOF 7
ENDMDL
MODEL 9
REMARK VINA RESULT:      -9.1      3.746      6.267
REMARK  Name = *****
REMARK                            x       y       z     vdW  Elec       q    Type
REMARK                         _______ _______ _______ _____ _____    ______ ____
ROOT
ATOM      1  C   LIG    1       24.386 -29.470   6.508  0.00  0.00    -0.046 A 
ATOM      2  C   LIG    1       24.030 -30.826   6.557  0.00  0.00    +0.005 A 
ATOM      3  C   LIG    1       24.457 -31.626   7.624  0.00  0.00    +0.029 A 
ATOM      4  C   LIG    1       25.215 -31.062   8.656  0.00  0.00    +0.109 A 
ATOM      5  C   LIG    1       25.581 -29.716   8.606  0.00  0.00    +0.029 A 
ATOM      6  C   LIG    1       25.165 -28.928   7.538  0.00  0.00    +0.005 A 
ENDROOT
BRANCH   4   7
ATOM      7  S   LIG    1       25.796 -32.056  10.009  0.00  0.00    +0.076 S 
ATOM      8  O   LIG    1       27.080 -32.608   9.612  0.00  0.00    -0.150 OA
ATOM      9  O   LIG    1       24.733 -32.931  10.452  0.00  0.00    -0.150 OA
BRANCH   7  10
ATOM     10  N   LIG    1       26.166 -30.961  11.209  0.00  0.00    -0.169 N 
ATOM     11  H   LIG    1       27.155 -30.781  11.279  0.00  0.00    +0.178 HD
ATOM     12  C   LIG    1       25.229 -30.261  11.953  0.00  0.00    +0.319 C 
ATOM     13  N   LIG    1       25.784 -29.394  12.862  0.00  0.00    -0.295 N 
ATOM     14  H   LIG    1       26.765 -29.477  13.062  0.00  0.00    +0.151 HD
ATOM     15  O   LIG    1       24.034 -30.385  11.796  0.00  0.00    -0.251 OA
BRANCH  13  16
ATOM     16  C   LIG    1       24.945 -28.547  13.720  0.00  0.00    +0.074 C 
ATOM     17  C   LIG    1       24.067 -27.605  12.875  0.00  0.00    +0.022 C 
ATOM     18  C   LIG    1       23.318 -26.569  13.703  0.00  0.00    +0.005 C 
ATOM     19  C   LIG    1       24.245 -25.753  14.603  0.00  0.00    -0.014 C 
ATOM     20  C   LIG    1       25.145 -24.818  13.790  0.00  0.00    +0.007 C 
ATOM     21  C   LIG    1       25.057 -26.694  15.499  0.00  0.00    +0.005 C 
ATOM     22  C   LIG    1       25.821 -27.768  14.717  0.00  0.00    +0.022 C 
ENDBRANCH  13  16
ENDBRANCH   7  10
ENDBRANCH   4   7
BRANCH   1  23
ATOM     23  C   LIG    1       23.979 -28.576   5.359  0.00  0.00    +0.054 C 
BRANCH  23  24
ATOM     24  C   LIG    1       25.042 -27.527   5.004  0.00  0.00    +0.110 C 
BRANCH  24  30
ATOM     25  C   LIG    1       24.168 -22.303   7.114  0.00  0.00    +0.015 C 
ATOM     26  C   LIG    1       24.065 -23.730   6.733  0.00  0.00    +0.250 C 
ATOM     27  O   LIG    1       23.019 -24.312   6.498  0.00  0.00    -0.270 OA
ATOM     28  N   LIG    1       25.355 -24.253   6.712  0.00  0.00    -0.218 N 
ATOM     29  C   LIG    1       25.788 -25.463   6.194  0.00  0.00    +0.309 C 
ATOM     30  N   LIG    1       24.808 -26.239   5.638  0.00  0.00    -0.299 N 
ATOM     31  H   LIG    1       23.842 -25.955   5.803  0.00  0.00    +0.150 HD
ATOM     32  O   LIG    1       26.974 -25.789   6.194  0.00  0.00    -0.252 OA
ATOM     33  C   LIG    1       26.299 -23.305   7.233  0.00  0.00    +0.149 C 
ATOM     34  C   LIG    1       25.462 -22.077   7.393  0.00  0.00    -0.047 C 
ATOM     35  C   LIG    1       26.114 -20.799   7.791  0.00  0.00    +0.041 C 
BRANCH  25  37
ATOM     36  C   LIG    1       22.803 -20.659   5.821  0.00  0.00    +0.009 C 
ATOM     37  C   LIG    1       22.981 -21.405   7.135  0.00  0.00    +0.037 C 
ENDBRANCH  25  37
ENDBRANCH  24  30
ENDBRANCH  23  24
ENDBRANCH   1  23
TORSDOF 7
ENDMDL
