MODEL 1
REMARK VINA RESULT:      -9.0      0.000      0.000
REMARK  Name = *****
REMARK                            x       y       z     vdW  Elec       q    Type
REMARK                         _______ _______ _______ _____ _____    ______ ____
ROOT
ATOM      1  C   LIG    1       26.509 -21.372   6.471  0.00  0.00    +0.098 C 
ENDROOT
BRANCH   1   2
ATOM      2  C   LIG    1       25.286 -20.669   5.870  0.00  0.00    -0.014 A 
ATOM      3  C   LIG    1       24.038 -20.612   6.523  0.00  0.00    +0.047 A 
ATOM      4 CL   LIG    1       23.806 -21.222   8.124  0.00  0.00    -0.083 Cl
ATOM      5  C   LIG    1       22.917 -20.060   5.891  0.00  0.00    +0.040 A 
ATOM      6  C   LIG    1       23.032 -19.526   4.611  0.00  0.00    +0.042 A 
ATOM      7 CL   LIG    1       21.655 -18.846   3.838  0.00  0.00    -0.084 Cl
ATOM      8  C   LIG    1       24.256 -19.536   3.956  0.00  0.00    +0.020 A 
ATOM      9  C   LIG    1       25.372 -20.104   4.576  0.00  0.00    +0.007 A 
ENDBRANCH   1   2
BRANCH   1  10
ATOM     10  S   LIG    1       25.928 -22.962   7.273  0.00  0.00    -0.146 S 
BRANCH  10  11
ATOM     11  C   LIG    1       25.244 -23.855   5.841  0.00  0.00    +0.104 C 
BRANCH  11  16
ATOM     12 CL   LIG    1       25.018 -29.819   6.763  0.00  0.00    -0.084 Cl
ATOM     13  C   LIG    1       25.082 -28.119   6.500  0.00  0.00    +0.041 A 
ATOM     14  C   LIG    1       24.239 -27.532   5.559  0.00  0.00    +0.020 A 
ATOM     15  C   LIG    1       24.295 -26.151   5.343  0.00  0.00    +0.006 A 
ATOM     16  C   LIG    1       25.193 -25.349   6.067  0.00  0.00    -0.037 A 
ATOM     17  C   LIG    1       26.035 -25.958   7.010  0.00  0.00    +0.006 A 
ATOM     18  C   LIG    1       25.976 -27.338   7.228  0.00  0.00    +0.020 A 
ENDBRANCH  11  16
ENDBRANCH  10  11
ENDBRANCH   1  10
BRANCH   1  19
ATOM     19  C   LIG    1       27.285 -20.479   7.472  0.00  0.00    +0.141 C 
BRANCH  19  20
ATOM     20  N   LIG    1       28.565 -19.971   7.015  0.00  0.00    -0.336 N 
ATOM     21  C   LIG    1       28.785 -19.130   5.956  0.00  0.00    +0.199 A 
ATOM     22  N   LIG    1       30.057 -18.810   5.857  0.00  0.00    -0.244 NA
ATOM     23  C   LIG    1       30.681 -19.429   6.907  0.00  0.00    +0.130 A 
ATOM     24  C   LIG    1       29.767 -20.142   7.652  0.00  0.00    +0.107 A 
ENDBRANCH  19  20
ENDBRANCH   1  19
TORSDOF 6
ENDMDL
MODEL 2
REMARK VINA RESULT:      -8.9      3.064      6.640
REMARK  Name = *****
REMARK                            x       y       z     vdW  Elec       q    Type
REMARK                         _______ _______ _______ _____ _____    ______ ____
ROOT
ATOM      1  C   LIG    1       25.300 -22.803   7.226  0.00  0.00    +0.098 C 
ENDROOT
BRANCH   1   2
ATOM      2  C   LIG    1       24.484 -21.772   6.436  0.00  0.00    -0.014 A 
ATOM      3  C   LIG    1       23.102 -21.913   6.195  0.00  0.00    +0.047 A 
ATOM      4 CL   LIG    1       22.172 -23.200   6.876  0.00  0.00    -0.083 Cl
ATOM      5  C   LIG    1       22.417 -21.008   5.373  0.00  0.00    +0.040 A 
ATOM      6  C   LIG    1       23.093 -19.931   4.809  0.00  0.00    +0.042 A 
ATOM      7 CL   LIG    1       22.251 -18.820   3.803  0.00  0.00    -0.084 Cl
ATOM      8  C   LIG    1       24.447 -19.746   5.058  0.00  0.00    +0.020 A 
ATOM      9  C   LIG    1       25.138 -20.658   5.860  0.00  0.00    +0.007 A 
ENDBRANCH   1   2
BRANCH   1  10
ATOM     10  S   LIG    1       26.538 -21.876   8.283  0.00  0.00    -0.146 S 
BRANCH  10  11
ATOM     11  C   LIG    1       28.034 -21.975   7.251  0.00  0.00    +0.104 C 
BRANCH  11  16
ATOM     12 CL   LIG    1       32.120 -17.763   8.678  0.00  0.00    -0.084 Cl
ATOM     13  C   LIG    1       30.955 -18.963   8.270  0.00  0.00    +0.041 A 
ATOM     14  C   LIG    1       29.862 -18.626   7.476  0.00  0.00    +0.020 A 
ATOM     15  C   LIG    1       28.914 -19.600   7.150  0.00  0.00    +0.006 A 
ATOM     16  C   LIG    1       29.053 -20.919   7.614  0.00  0.00    -0.037 A 
ATOM     17  C   LIG    1       30.159 -21.240   8.415  0.00  0.00    +0.006 A 
ATOM     18  C   LIG    1       31.110 -20.266   8.737  0.00  0.00    +0.020 A 
ENDBRANCH  11  16
ENDBRANCH  10  11
ENDBRANCH   1  10
BRANCH   1  19
ATOM     19  C   LIG    1       25.996 -23.845   6.314  0.00  0.00    +0.141 C 
BRANCH  19  20
ATOM     20  N   LIG    1       25.466 -25.195   6.368  0.00  0.00    -0.336 N 
ATOM     21  C   LIG    1       24.212 -25.601   5.995  0.00  0.00    +0.199 A 
ATOM     22  N   LIG    1       24.080 -26.905   6.108  0.00  0.00    -0.244 NA
ATOM     23  C   LIG    1       25.297 -27.369   6.529  0.00  0.00    +0.130 A 
ATOM     24  C   LIG    1       26.181 -26.323   6.680  0.00  0.00    +0.107 A 
ENDBRANCH  19  20
ENDBRANCH   1  19
TORSDOF 6
ENDMDL
MODEL 3
REMARK VINA RESULT:      -8.8      0.953      1.262
REMARK  Name = *****
REMARK                            x       y       z     vdW  Elec       q    Type
REMARK                         _______ _______ _______ _____ _____    ______ ____
ROOT
ATOM      1  C   LIG    1       26.142 -21.745   6.463  0.00  0.00    +0.098 C 
ENDROOT
BRANCH   1   2
ATOM      2  C   LIG    1       25.029 -20.881   5.859  0.00  0.00    -0.014 A 
ATOM      3  C   LIG    1       23.759 -20.742   6.456  0.00  0.00    +0.047 A 
ATOM      4 CL   LIG    1       23.381 -21.434   7.994  0.00  0.00    -0.083 Cl
ATOM      5  C   LIG    1       22.733 -20.037   5.814  0.00  0.00    +0.040 A 
ATOM      6  C   LIG    1       22.970 -19.430   4.584  0.00  0.00    +0.042 A 
ATOM      7 CL   LIG    1       21.710 -18.561   3.799  0.00  0.00    -0.084 Cl
ATOM      8  C   LIG    1       24.221 -19.519   3.988  0.00  0.00    +0.020 A 
ATOM      9  C   LIG    1       25.240 -20.240   4.616  0.00  0.00    +0.007 A 
ENDBRANCH   1   2
BRANCH   1  10
ATOM     10  S   LIG    1       25.391 -23.382   6.978  0.00  0.00    -0.146 S 
BRANCH  10  11
ATOM     11  C   LIG    1       25.047 -24.142   5.359  0.00  0.00    +0.104 C 
BRANCH  11  16
ATOM     12 CL   LIG    1       25.220 -30.176   5.546  0.00  0.00    -0.084 Cl
ATOM     13  C   LIG    1       25.170 -28.455   5.491  0.00  0.00    +0.041 A 
ATOM     14  C   LIG    1       26.023 -27.765   4.634  0.00  0.00    +0.020 A 
ATOM     15  C   LIG    1       25.986 -26.368   4.595  0.00  0.00    +0.006 A 
ATOM     16  C   LIG    1       25.094 -25.652   5.411  0.00  0.00    -0.037 A 
ATOM     17  C   LIG    1       24.244 -26.364   6.270  0.00  0.00    +0.006 A 
ATOM     18  C   LIG    1       24.279 -27.762   6.306  0.00  0.00    +0.020 A 
ENDBRANCH  11  16
ENDBRANCH  10  11
ENDBRANCH   1  10
BRANCH   1  19
ATOM     19  C   LIG    1       26.866 -21.053   7.646  0.00  0.00    +0.141 C 
BRANCH  19  20
ATOM     20  N   LIG    1       28.189 -20.528   7.365  0.00  0.00    -0.336 N 
ATOM     21  C   LIG    1       29.365 -20.895   7.967  0.00  0.00    +0.199 A 
ATOM     22  N   LIG    1       30.390 -20.271   7.429  0.00  0.00    -0.244 NA
ATOM     23  C   LIG    1       29.874 -19.504   6.419  0.00  0.00    +0.130 A 
ATOM     24  C   LIG    1       28.508 -19.663   6.349  0.00  0.00    +0.107 A 
ENDBRANCH  19  20
ENDBRANCH   1  19
TORSDOF 6
ENDMDL
MODEL 4
REMARK VINA RESULT:      -8.7      1.314      2.006
REMARK  Name = *****
REMARK                            x       y       z     vdW  Elec       q    Type
REMARK                         _______ _______ _______ _____ _____    ______ ____
ROOT
ATOM      1  C   LIG    1       26.059 -21.356   6.505  0.00  0.00    +0.098 C 
ENDROOT
BRANCH   1   2
ATOM      2  C   LIG    1       24.890 -20.683   5.776  0.00  0.00    -0.014 A 
ATOM      3  C   LIG    1       25.071 -19.796   4.695  0.00  0.00    +0.047 A 
ATOM      4 CL   LIG    1       26.626 -19.483   4.009  0.00  0.00    -0.083 Cl
ATOM      5  C   LIG    1       23.986 -19.114   4.131  0.00  0.00    +0.040 A 
ATOM      6  C   LIG    1       22.699 -19.334   4.614  0.00  0.00    +0.042 A 
ATOM      7 CL   LIG    1       21.367 -18.498   3.918  0.00  0.00    -0.084 Cl
ATOM      8  C   LIG    1       22.484 -20.228   5.654  0.00  0.00    +0.020 A 
ATOM      9  C   LIG    1       23.568 -20.894   6.233  0.00  0.00    +0.007 A 
ENDBRANCH   1   2
BRANCH   1  10
ATOM     10  S   LIG    1       25.433 -22.956   7.251  0.00  0.00    -0.146 S 
BRANCH  10  11
ATOM     11  C   LIG    1       25.150 -23.959   5.757  0.00  0.00    +0.104 C 
BRANCH  11  16
ATOM     12 CL   LIG    1       25.105 -29.883   6.930  0.00  0.00    -0.084 Cl
ATOM     13  C   LIG    1       25.119 -28.194   6.596  0.00  0.00    +0.041 A 
ATOM     14  C   LIG    1       25.985 -27.358   7.295  0.00  0.00    +0.020 A 
ATOM     15  C   LIG    1       25.992 -25.985   7.026  0.00  0.00    +0.006 A 
ATOM     16  C   LIG    1       25.134 -25.441   6.056  0.00  0.00    -0.037 A 
ATOM     17  C   LIG    1       24.267 -26.299   5.363  0.00  0.00    +0.006 A 
ATOM     18  C   LIG    1       24.263 -27.672   5.629  0.00  0.00    +0.020 A 
ENDBRANCH  11  16
ENDBRANCH  10  11
ENDBRANCH   1  10
BRANCH   1  19
ATOM     19  C   LIG    1       26.705 -20.443   7.578  0.00  0.00    +0.141 C 
BRANCH  19  20
ATOM     20  N   LIG    1       28.154 -20.355   7.551  0.00  0.00    -0.336 N 
ATOM     21  C   LIG    1       29.041 -21.222   8.134  0.00  0.00    +0.199 A 
ATOM     22  N   LIG    1       30.284 -20.888   7.861  0.00  0.00    -0.244 NA
ATOM     23  C   LIG    1       30.205 -19.793   7.043  0.00  0.00    +0.130 A 
ATOM     24  C   LIG    1       28.888 -19.455   6.822  0.00  0.00    +0.107 A 
ENDBRANCH  19  20
ENDBRANCH   1  19
TORSDOF 6
ENDMDL
MODEL 5
REMARK VINA RESULT:      -8.4      3.104      6.780
REMARK  Name = *****
REMARK                            x       y       z     vdW  Elec       q    Type
REMARK                         _______ _______ _______ _____ _____    ______ ____
ROOT
ATOM      1  C   LIG    1       25.289 -22.211   7.234  0.00  0.00    +0.098 C 
ENDROOT
BRANCH   1   2
ATOM      2  C   LIG    1       24.458 -21.320   6.302  0.00  0.00    -0.014 A 
ATOM      3  C   LIG    1       25.039 -20.414   5.391  0.00  0.00    +0.047 A 
ATOM      4 CL   LIG    1       26.748 -20.314   5.151  0.00  0.00    -0.083 Cl
ATOM      5  C   LIG    1       24.246 -19.538   4.640  0.00  0.00    +0.040 A 
ATOM      6  C   LIG    1       22.860 -19.577   4.760  0.00  0.00    +0.042 A 
ATOM      7 CL   LIG    1       21.887 -18.503   3.834  0.00  0.00    -0.084 Cl
ATOM      8  C   LIG    1       22.257 -20.484   5.622  0.00  0.00    +0.020 A 
ATOM      9  C   LIG    1       23.047 -21.345   6.389  0.00  0.00    +0.007 A 
ENDBRANCH   1   2
BRANCH   1  10
ATOM     10  S   LIG    1       26.412 -21.104   8.245  0.00  0.00    -0.146 S 
BRANCH  10  11
ATOM     11  C   LIG    1       28.055 -21.685   7.719  0.00  0.00    +0.104 C 
BRANCH  11  16
ATOM     12 CL   LIG    1       32.374 -17.613   8.832  0.00  0.00    -0.084 Cl
ATOM     13  C   LIG    1       31.143 -18.775   8.515  0.00  0.00    +0.041 A 
ATOM     14  C   LIG    1       31.383 -20.123   8.767  0.00  0.00    +0.020 A 
ATOM     15  C   LIG    1       30.384 -21.066   8.504  0.00  0.00    +0.006 A 
ATOM     16  C   LIG    1       29.138 -20.666   7.991  0.00  0.00    -0.037 A 
ATOM     17  C   LIG    1       28.916 -19.304   7.742  0.00  0.00    +0.006 A 
ATOM     18  C   LIG    1       29.913 -18.361   8.009  0.00  0.00    +0.020 A 
ENDBRANCH  11  16
ENDBRANCH  10  11
ENDBRANCH   1  10
BRANCH   1  19
ATOM     19  C   LIG    1       26.094 -23.294   6.471  0.00  0.00    +0.141 C 
BRANCH  19  20
ATOM     20  N   LIG    1       25.477 -24.606   6.387  0.00  0.00    -0.336 N 
ATOM     21  C   LIG    1       24.136 -24.882   6.338  0.00  0.00    +0.199 A 
ATOM     22  N   LIG    1       23.920 -26.172   6.196  0.00  0.00    -0.244 NA
ATOM     23  C   LIG    1       25.157 -26.751   6.109  0.00  0.00    +0.130 A 
ATOM     24  C   LIG    1       26.141 -25.792   6.208  0.00  0.00    +0.107 A 
ENDBRANCH  19  20
ENDBRANCH   1  19
TORSDOF 6
ENDMDL
MODEL 6
REMARK VINA RESULT:      -8.3      2.525      4.489
REMARK  Name = *****
REMARK                            x       y       z     vdW  Elec       q    Type
REMARK                         _______ _______ _______ _____ _____    ______ ____
ROOT
ATOM      1  C   LIG    1       24.967 -21.185   6.461  0.00  0.00    +0.098 C 
ENDROOT
BRANCH   1   2
ATOM      2  C   LIG    1       26.397 -20.670   6.660  0.00  0.00    -0.014 A 
ATOM      3  C   LIG    1       26.918 -20.327   7.925  0.00  0.00    +0.047 A 
ATOM      4 CL   LIG    1       26.030 -20.576   9.386  0.00  0.00    -0.083 Cl
ATOM      5  C   LIG    1       28.189 -19.752   8.050  0.00  0.00    +0.040 A 
ATOM      6  C   LIG    1       28.974 -19.544   6.920  0.00  0.00    +0.042 A 
ATOM      7 CL   LIG    1       30.535 -18.842   7.077  0.00  0.00    -0.084 Cl
ATOM      8  C   LIG    1       28.503 -19.905   5.664  0.00  0.00    +0.020 A 
ATOM      9  C   LIG    1       27.226 -20.459   5.534  0.00  0.00    +0.007 A 
ENDBRANCH   1   2
BRANCH   1  10
ATOM     10  S   LIG    1       24.871 -22.917   7.169  0.00  0.00    -0.146 S 
BRANCH  10  11
ATOM     11  C   LIG    1       25.029 -23.928   5.663  0.00  0.00    +0.104 C 
BRANCH  11  16
ATOM     12 CL   LIG    1       25.188 -29.838   6.898  0.00  0.00    -0.084 Cl
ATOM     13  C   LIG    1       25.142 -28.153   6.545  0.00  0.00    +0.041 A 
ATOM     14  C   LIG    1       24.266 -27.673   5.576  0.00  0.00    +0.020 A 
ATOM     15  C   LIG    1       24.232 -26.304   5.287  0.00  0.00    +0.006 A 
ATOM     16  C   LIG    1       25.074 -25.408   5.967  0.00  0.00    -0.037 A 
ATOM     17  C   LIG    1       25.951 -25.911   6.940  0.00  0.00    +0.006 A 
ATOM     18  C   LIG    1       25.981 -27.278   7.231  0.00  0.00    +0.020 A 
ENDBRANCH  11  16
ENDBRANCH  10  11
ENDBRANCH   1  10
BRANCH   1  19
ATOM     19  C   LIG    1       24.516 -21.150   4.978  0.00  0.00    +0.141 C 
BRANCH  19  20
ATOM     20  N   LIG    1       23.679 -20.028   4.593  0.00  0.00    -0.336 N 
ATOM     21  C   LIG    1       22.519 -19.622   5.198  0.00  0.00    +0.199 A 
ATOM     22  N   LIG    1       22.048 -18.529   4.637  0.00  0.00    -0.244 NA
ATOM     23  C   LIG    1       22.947 -18.189   3.664  0.00  0.00    +0.130 A 
ATOM     24  C   LIG    1       23.981 -19.099   3.630  0.00  0.00    +0.107 A 
ENDBRANCH  19  20
ENDBRANCH   1  19
TORSDOF 6
ENDMDL
MODEL 7
REMARK VINA RESULT:      -7.9      2.754      7.177
REMARK  Name = *****
REMARK                            x       y       z     vdW  Elec       q    Type
REMARK                         _______ _______ _______ _____ _____    ______ ____
ROOT
ATOM      1  C   LIG    1       25.559 -22.051   6.491  0.00  0.00    +0.098 C 
ENDROOT
BRANCH   1   2
ATOM      2  C   LIG    1       25.247 -23.549   6.392  0.00  0.00    -0.014 A 
ATOM      3  C   LIG    1       23.937 -24.065   6.467  0.00  0.00    +0.047 A 
ATOM      4 CL   LIG    1       22.546 -23.043   6.551  0.00  0.00    -0.083 Cl
ATOM      5  C   LIG    1       23.705 -25.446   6.487  0.00  0.00    +0.040 A 
ATOM      6  C   LIG    1       24.774 -26.332   6.397  0.00  0.00    +0.042 A 
ATOM      7 CL   LIG    1       24.487 -28.028   6.418  0.00  0.00    -0.084 Cl
ATOM      8  C   LIG    1       26.073 -25.854   6.286  0.00  0.00    +0.020 A 
ATOM      9  C   LIG    1       26.309 -24.477   6.287  0.00  0.00    +0.007 A 
ENDBRANCH   1   2
BRANCH   1  10
ATOM     10  S   LIG    1       26.827 -21.811   7.848  0.00  0.00    -0.146 S 
BRANCH  10  11
ATOM     11  C   LIG    1       28.347 -21.561   6.876  0.00  0.00    +0.104 C 
BRANCH  11  16
ATOM     12 CL   LIG    1       32.141 -17.700   9.554  0.00  0.00    -0.084 Cl
ATOM     13  C   LIG    1       31.059 -18.801   8.791  0.00  0.00    +0.041 A 
ATOM     14  C   LIG    1       31.202 -20.170   9.002  0.00  0.00    +0.020 A 
ATOM     15  C   LIG    1       30.326 -21.064   8.378  0.00  0.00    +0.006 A 
ATOM     16  C   LIG    1       29.301 -20.594   7.540  0.00  0.00    -0.037 A 
ATOM     17  C   LIG    1       29.173 -19.212   7.338  0.00  0.00    +0.006 A 
ATOM     18  C   LIG    1       30.046 -18.318   7.966  0.00  0.00    +0.020 A 
ENDBRANCH  11  16
ENDBRANCH  10  11
ENDBRANCH   1  10
BRANCH   1  19
ATOM     19  C   LIG    1       24.294 -21.188   6.733  0.00  0.00    +0.141 C 
BRANCH  19  20
ATOM     20  N   LIG    1       23.906 -20.305   5.648  0.00  0.00    -0.336 N 
ATOM     21  C   LIG    1       24.616 -20.046   4.505  0.00  0.00    +0.199 A 
ATOM     22  N   LIG    1       23.947 -19.252   3.698  0.00  0.00    -0.244 NA
ATOM     23  C   LIG    1       22.747 -19.016   4.315  0.00  0.00    +0.130 A 
ATOM     24  C   LIG    1       22.694 -19.677   5.523  0.00  0.00    +0.107 A 
ENDBRANCH  19  20
ENDBRANCH   1  19
TORSDOF 6
ENDMDL
MODEL 8
REMARK VINA RESULT:      -7.7      2.625      4.939
REMARK  Name = *****
REMARK                            x       y       z     vdW  Elec       q    Type
REMARK                         _______ _______ _______ _____ _____    ______ ____
ROOT
ATOM      1  C   LIG    1       25.846 -21.335   6.610  0.00  0.00    +0.098 C 
ENDROOT
BRANCH   1   2
ATOM      2  C   LIG    1       27.259 -20.761   6.771  0.00  0.00    -0.014 A 
ATOM      3  C   LIG    1       27.802 -19.807   5.887  0.00  0.00    +0.047 A 
ATOM      4 CL   LIG    1       26.878 -19.100   4.610  0.00  0.00    -0.083 Cl
ATOM      5  C   LIG    1       29.136 -19.393   6.003  0.00  0.00    +0.040 A 
ATOM      6  C   LIG    1       29.936 -19.899   7.023  0.00  0.00    +0.042 A 
ATOM      7 CL   LIG    1       31.571 -19.388   7.164  0.00  0.00    -0.084 Cl
ATOM      8  C   LIG    1       29.418 -20.814   7.930  0.00  0.00    +0.020 A 
ATOM      9  C   LIG    1       28.095 -21.244   7.805  0.00  0.00    +0.007 A 
ENDBRANCH   1   2
BRANCH   1  10
ATOM     10  S   LIG    1       25.853 -23.087   7.273  0.00  0.00    -0.146 S 
BRANCH  10  11
ATOM     11  C   LIG    1       25.074 -23.993   5.898  0.00  0.00    +0.104 C 
BRANCH  11  16
ATOM     12 CL   LIG    1       25.132 -29.970   6.755  0.00  0.00    -0.084 Cl
ATOM     13  C   LIG    1       25.117 -28.266   6.511  0.00  0.00    +0.041 A 
ATOM     14  C   LIG    1       25.974 -27.454   7.248  0.00  0.00    +0.020 A 
ATOM     15  C   LIG    1       25.957 -26.069   7.053  0.00  0.00    +0.006 A 
ATOM     16  C   LIG    1       25.083 -25.488   6.117  0.00  0.00    -0.037 A 
ATOM     17  C   LIG    1       24.226 -26.322   5.385  0.00  0.00    +0.006 A 
ATOM     18  C   LIG    1       24.246 -27.707   5.578  0.00  0.00    +0.020 A 
ENDBRANCH  11  16
ENDBRANCH  10  11
ENDBRANCH   1  10
BRANCH   1  19
ATOM     19  C   LIG    1       25.338 -21.282   5.147  0.00  0.00    +0.141 C 
BRANCH  19  20
ATOM     20  N   LIG    1       24.156 -20.474   4.912  0.00  0.00    -0.336 N 
ATOM     21  C   LIG    1       23.135 -20.234   5.794  0.00  0.00    +0.199 A 
ATOM     22  N   LIG    1       22.250 -19.404   5.284  0.00  0.00    -0.244 NA
ATOM     23  C   LIG    1       22.727 -19.061   4.048  0.00  0.00    +0.130 A 
ATOM     24  C   LIG    1       23.922 -19.702   3.803  0.00  0.00    +0.107 A 
ENDBRANCH  19  20
ENDBRANCH   1  19
TORSDOF 6
ENDMDL
MODEL 9
REMARK VINA RESULT:      -7.7      5.049      9.845
REMARK  Name = *****
REMARK                            x       y       z     vdW  Elec       q    Type
REMARK                         _______ _______ _______ _____ _____    ______ ____
ROOT
ATOM      1  C   LIG    1       25.217 -29.724   6.863  0.00  0.00    +0.098 C 
ENDROOT
BRANCH   1   2
ATOM      2  C   LIG    1       24.684 -29.909   8.288  0.00  0.00    -0.014 A 
ATOM      3  C   LIG    1       25.350 -29.408   9.425  0.00  0.00    +0.047 A 
ATOM      4 CL   LIG    1       26.767 -28.426   9.307  0.00  0.00    -0.083 Cl
ATOM      5  C   LIG    1       24.890 -29.696  10.717  0.00  0.00    +0.040 A 
ATOM      6  C   LIG    1       23.740 -30.460  10.892  0.00  0.00    +0.042 A 
ATOM      7 CL   LIG    1       23.176 -30.811  12.478  0.00  0.00    -0.084 Cl
ATOM      8  C   LIG    1       23.042 -30.938   9.790  0.00  0.00    +0.020 A 
ATOM      9  C   LIG    1       23.510 -30.669   8.501  0.00  0.00    +0.007 A 
ENDBRANCH   1   2
BRANCH   1  10
ATOM     10  S   LIG    1       24.364 -28.234   6.114  0.00  0.00    -0.146 S 
BRANCH  10  11
ATOM     11  C   LIG    1       25.685 -26.984   6.202  0.00  0.00    +0.104 C 
BRANCH  11  16
ATOM     12 CL   LIG    1       23.541 -21.447   7.302  0.00  0.00    -0.084 Cl
ATOM     13  C   LIG    1       24.151 -23.025   6.988  0.00  0.00    +0.041 A 
ATOM     14  C   LIG    1       23.280 -24.041   6.603  0.00  0.00    +0.020 A 
ATOM     15  C   LIG    1       23.776 -25.324   6.353  0.00  0.00    +0.006 A 
ATOM     16  C   LIG    1       25.148 -25.599   6.485  0.00  0.00    -0.037 A 
ATOM     17  C   LIG    1       26.011 -24.565   6.875  0.00  0.00    +0.006 A 
ATOM     18  C   LIG    1       25.514 -23.281   7.121  0.00  0.00    +0.020 A 
ENDBRANCH  11  16
ENDBRANCH  10  11
ENDBRANCH   1  10
BRANCH   1  19
ATOM     19  C   LIG    1       25.034 -30.987   5.983  0.00  0.00    +0.141 C 
BRANCH  19  20
ATOM     20  N   LIG    1       26.150 -31.915   5.960  0.00  0.00    -0.336 N 
ATOM     21  C   LIG    1       26.969 -32.243   7.008  0.00  0.00    +0.199 A 
ATOM     22  N   LIG    1       27.839 -33.167   6.662  0.00  0.00    -0.244 NA
ATOM     23  C   LIG    1       27.554 -33.481   5.361  0.00  0.00    +0.130 A 
ATOM     24  C   LIG    1       26.494 -32.726   4.909  0.00  0.00    +0.107 A 
ENDBRANCH  19  20
ENDBRANCH   1  19
TORSDOF 6
ENDMDL
