MODEL 1
REMARK VINA RESULT:      -4.8      0.000      0.000
REMARK  Name = *****
REMARK                            x       y       z     vdW  Elec       q    Type
REMARK                         _______ _______ _______ _____ _____    ______ ____
ROOT
ATOM      1  C   LIG    1       24.448 -19.383   3.651  0.00  0.00    -0.045 A 
ATOM      2  C   LIG    1       25.700 -18.857   3.338  0.00  0.00    +0.005 A 
ATOM      3  C   LIG    1       25.915 -17.467   3.345  0.00  0.00    +0.023 A 
ATOM      4  C   LIG    1       24.903 -16.539   3.646  0.00  0.00    +0.030 A 
ATOM      5  C   LIG    1       23.663 -17.105   3.986  0.00  0.00    +0.023 A 
ATOM      6  C   LIG    1       23.444 -18.489   4.014  0.00  0.00    +0.005 A 
ENDROOT
BRANCH   1   7
ATOM      7  C   LIG    1       24.158 -20.864   3.594  0.00  0.00    +0.065 C 
BRANCH   7   8
ATOM      8  CA  LIG    1       23.975 -21.571   4.951  0.00  0.00    +0.165 C 
BRANCH   8   9
ATOM      9  N   LIG    1       22.586 -21.504   5.495  0.00  0.00    -0.318 NA
ATOM     10  H1  LIG    1       22.628 -20.938   6.352  0.00  0.00    +0.119 HD
ATOM     11  H2  LIG    1       22.017 -20.944   4.856  0.00  0.00    +0.119 HD
ENDBRANCH   8   9
BRANCH   8  12
ATOM     12  C   LIG    1       24.947 -21.121   6.052  0.00  0.00    +0.322 C 
ATOM     13  O   LIG    1       24.660 -20.475   7.061  0.00  0.00    -0.249 OA
BRANCH  12  14
ATOM     14  OXT LIG    1       26.227 -21.444   5.734  0.00  0.00    -0.479 OA
ATOM     15  HXT LIG    1       26.798 -21.078   6.454  0.00  0.00    +0.295 HD
ENDBRANCH  12  14
ENDBRANCH   8  12
ENDBRANCH   7   8
ENDBRANCH   1   7
BRANCH   4  16
ATOM     16  N   LIG    1       25.112 -15.161   3.624  0.00  0.00    -0.328 N 
BRANCH  16  17
ATOM     17  C   LIG    1       26.395 -14.572   3.170  0.00  0.00    +0.121 C 
BRANCH  17  18
ATOM     18  C   LIG    1       27.250 -14.079   4.343  0.00  0.00    +0.127 C 
ATOM     19 CL   LIG    1       28.700 -13.209   3.777  0.00  0.00    -0.124 Cl
ENDBRANCH  17  18
ENDBRANCH  16  17
BRANCH  16  20
ATOM     20  C   LIG    1       24.054 -14.223   4.077  0.00  0.00    +0.121 C 
BRANCH  20  21
ATOM     21  C   LIG    1       24.021 -12.937   3.248  0.00  0.00    +0.127 C 
ATOM     22 CL   LIG    1       23.696 -11.515   4.275  0.00  0.00    -0.124 Cl
ENDBRANCH  20  21
ENDBRANCH  16  20
ENDBRANCH   4  16
TORSDOF 10
ENDMDL
MODEL 2
REMARK VINA RESULT:      -4.7      0.227      2.239
REMARK  Name = *****
REMARK                            x       y       z     vdW  Elec       q    Type
REMARK                         _______ _______ _______ _____ _____    ______ ____
ROOT
ATOM      1  C   LIG    1       24.370 -19.385   3.658  0.00  0.00    -0.045 A 
ATOM      2  C   LIG    1       25.633 -18.903   3.320  0.00  0.00    +0.005 A 
ATOM      3  C   LIG    1       25.903 -17.523   3.343  0.00  0.00    +0.023 A 
ATOM      4  C   LIG    1       24.936 -16.561   3.686  0.00  0.00    +0.030 A 
ATOM      5  C   LIG    1       23.684 -17.084   4.050  0.00  0.00    +0.023 A 
ATOM      6  C   LIG    1       23.412 -18.459   4.063  0.00  0.00    +0.005 A 
ENDROOT
BRANCH   1   7
ATOM      7  C   LIG    1       24.021 -20.852   3.585  0.00  0.00    +0.065 C 
BRANCH   7   8
ATOM      8  CA  LIG    1       23.834 -21.572   4.935  0.00  0.00    +0.165 C 
BRANCH   8   9
ATOM      9  N   LIG    1       22.449 -21.491   5.487  0.00  0.00    -0.318 NA
ATOM     10  H1  LIG    1       22.537 -21.392   6.505  0.00  0.00    +0.119 HD
ATOM     11  H2  LIG    1       22.034 -20.606   5.186  0.00  0.00    +0.119 HD
ENDBRANCH   8   9
BRANCH   8  12
ATOM     12  C   LIG    1       24.817 -21.147   6.037  0.00  0.00    +0.322 C 
ATOM     13  O   LIG    1       24.555 -20.456   7.023  0.00  0.00    -0.249 OA
BRANCH  12  14
ATOM     14  OXT LIG    1       26.079 -21.554   5.747  0.00  0.00    -0.479 OA
ATOM     15  HXT LIG    1       26.236 -22.383   6.263  0.00  0.00    +0.295 HD
ENDBRANCH  12  14
ENDBRANCH   8  12
ENDBRANCH   7   8
ENDBRANCH   1   7
BRANCH   4  16
ATOM     16  N   LIG    1       25.199 -15.192   3.680  0.00  0.00    -0.328 N 
BRANCH  16  17
ATOM     17  C   LIG    1       24.180 -14.199   4.097  0.00  0.00    +0.121 C 
BRANCH  17  18
ATOM     18  C   LIG    1       23.826 -13.226   2.967  0.00  0.00    +0.127 C 
ATOM     19 CL   LIG    1       23.799 -11.537   3.540  0.00  0.00    -0.124 Cl
ENDBRANCH  17  18
ENDBRANCH  16  17
BRANCH  16  20
ATOM     20  C   LIG    1       26.515 -14.672   3.233  0.00  0.00    +0.121 C 
BRANCH  20  21
ATOM     21  C   LIG    1       27.279 -13.972   4.360  0.00  0.00    +0.127 C 
ATOM     22 CL   LIG    1       28.718 -13.125   3.734  0.00  0.00    -0.124 Cl
ENDBRANCH  20  21
ENDBRANCH  16  20
ENDBRANCH   4  16
TORSDOF 10
ENDMDL
MODEL 3
REMARK VINA RESULT:      -4.6      1.545      2.684
REMARK  Name = *****
REMARK                            x       y       z     vdW  Elec       q    Type
REMARK                         _______ _______ _______ _____ _____    ______ ____
ROOT
ATOM      1  C   LIG    1       24.514 -18.183   3.692  0.00  0.00    -0.045 A 
ATOM      2  C   LIG    1       25.794 -17.795   3.300  0.00  0.00    +0.005 A 
ATOM      3  C   LIG    1       26.153 -16.435   3.275  0.00  0.00    +0.023 A 
ATOM      4  C   LIG    1       25.263 -15.403   3.620  0.00  0.00    +0.030 A 
ATOM      5  C   LIG    1       23.993 -15.833   4.038  0.00  0.00    +0.023 A 
ATOM      6  C   LIG    1       23.632 -17.186   4.100  0.00  0.00    +0.005 A 
ENDROOT
BRANCH   1   7
ATOM      7  C   LIG    1       24.069 -19.626   3.673  0.00  0.00    +0.065 C 
BRANCH   7   8
ATOM      8  CA  LIG    1       24.330 -20.433   4.960  0.00  0.00    +0.165 C 
BRANCH   8   9
ATOM      9  N   LIG    1       25.304 -21.553   4.795  0.00  0.00    -0.318 NA
ATOM     10  H1  LIG    1       26.244 -21.144   4.866  0.00  0.00    +0.119 HD
ATOM     11  H2  LIG    1       25.235 -22.161   5.615  0.00  0.00    +0.119 HD
ENDBRANCH   8   9
BRANCH   8  12
ATOM     12  C   LIG    1       23.070 -20.987   5.644  0.00  0.00    +0.322 C 
ATOM     13  O   LIG    1       22.952 -21.272   6.836  0.00  0.00    -0.249 OA
BRANCH  12  14
ATOM     14  OXT LIG    1       22.089 -21.229   4.736  0.00  0.00    -0.479 OA
ATOM     15  HXT LIG    1       21.233 -21.007   5.179  0.00  0.00    +0.295 HD
ENDBRANCH  12  14
ENDBRANCH   8  12
ENDBRANCH   7   8
ENDBRANCH   1   7
BRANCH   4  16
ATOM     16  N   LIG    1       25.614 -14.055   3.566  0.00  0.00    -0.328 N 
BRANCH  16  17
ATOM     17  C   LIG    1       25.776 -13.341   2.277  0.00  0.00    +0.121 C 
BRANCH  17  18
ATOM     18  C   LIG    1       24.471 -12.686   1.812  0.00  0.00    +0.127 C 
ATOM     19 CL   LIG    1       23.907 -11.452   2.969  0.00  0.00    -0.124 Cl
ENDBRANCH  17  18
ENDBRANCH  16  17
BRANCH  16  20
ATOM     20  C   LIG    1       25.858 -13.283   4.810  0.00  0.00    +0.121 C 
BRANCH  20  21
ATOM     21  C   LIG    1       27.304 -13.406   5.299  0.00  0.00    +0.127 C 
ATOM     22 CL   LIG    1       28.461 -13.052   3.988  0.00  0.00    -0.124 Cl
ENDBRANCH  20  21
ENDBRANCH  16  20
ENDBRANCH   4  16
TORSDOF 10
ENDMDL
MODEL 4
REMARK VINA RESULT:      -4.5      1.197      2.832
REMARK  Name = *****
REMARK                            x       y       z     vdW  Elec       q    Type
REMARK                         _______ _______ _______ _____ _____    ______ ____
ROOT
ATOM      1  C   LIG    1       23.619 -17.829   4.051  0.00  0.00    -0.045 A 
ATOM      2  C   LIG    1       22.963 -16.644   4.376  0.00  0.00    +0.005 A 
ATOM      3  C   LIG    1       23.607 -15.403   4.222  0.00  0.00    +0.023 A 
ATOM      4  C   LIG    1       24.927 -15.280   3.755  0.00  0.00    +0.030 A 
ATOM      5  C   LIG    1       25.547 -16.492   3.408  0.00  0.00    +0.023 A 
ATOM      6  C   LIG    1       24.905 -17.733   3.527  0.00  0.00    +0.005 A 
ENDROOT
BRANCH   1   7
ATOM      7  C   LIG    1       22.987 -19.184   4.261  0.00  0.00    +0.065 C 
BRANCH   7   8
ATOM      8  CA  LIG    1       23.951 -20.335   4.609  0.00  0.00    +0.165 C 
BRANCH   8   9
ATOM      9  N   LIG    1       23.749 -21.572   3.797  0.00  0.00    -0.318 NA
ATOM     10  H1  LIG    1       23.889 -21.310   2.814  0.00  0.00    +0.119 HD
ATOM     11  H2  LIG    1       24.520 -22.215   3.995  0.00  0.00    +0.119 HD
ENDBRANCH   8   9
BRANCH   8  12
ATOM     12  C   LIG    1       23.976 -20.732   6.094  0.00  0.00    +0.322 C 
ATOM     13  O   LIG    1       23.018 -21.122   6.762  0.00  0.00    -0.249 OA
BRANCH  12  14
ATOM     14  OXT LIG    1       25.200 -20.507   6.637  0.00  0.00    -0.479 OA
ATOM     15  HXT LIG    1       25.519 -21.375   6.986  0.00  0.00    +0.295 HD
ENDBRANCH  12  14
ENDBRANCH   8  12
ENDBRANCH   7   8
ENDBRANCH   1   7
BRANCH   4  16
ATOM     16  N   LIG    1       25.573 -14.050   3.630  0.00  0.00    -0.328 N 
BRANCH  16  17
ATOM     17  C   LIG    1       25.215 -13.085   2.563  0.00  0.00    +0.121 C 
BRANCH  17  18
ATOM     18  C   LIG    1       24.001 -12.230   2.942  0.00  0.00    +0.127 C 
ATOM     19 CL   LIG    1       23.949 -11.906   4.695  0.00  0.00    -0.124 Cl
ENDBRANCH  17  18
ENDBRANCH  16  17
BRANCH  16  20
ATOM     20  C   LIG    1       26.665 -13.667   4.559  0.00  0.00    +0.121 C 
BRANCH  20  21
ATOM     21  C   LIG    1       28.015 -13.532   3.849  0.00  0.00    +0.127 C 
ATOM     22 CL   LIG    1       28.974 -12.195   4.536  0.00  0.00    -0.124 Cl
ENDBRANCH  20  21
ENDBRANCH  16  20
ENDBRANCH   4  16
TORSDOF 10
ENDMDL
MODEL 5
REMARK VINA RESULT:      -4.3      4.412      6.800
REMARK  Name = *****
REMARK                            x       y       z     vdW  Elec       q    Type
REMARK                         _______ _______ _______ _____ _____    ______ ____
ROOT
ATOM      1  C   LIG    1       25.738 -15.224   3.619  0.00  0.00    -0.045 A 
ATOM      2  C   LIG    1       26.392 -16.398   3.253  0.00  0.00    +0.005 A 
ATOM      3  C   LIG    1       25.729 -17.637   3.315  0.00  0.00    +0.023 A 
ATOM      4  C   LIG    1       24.399 -17.770   3.753  0.00  0.00    +0.030 A 
ATOM      5  C   LIG    1       23.762 -16.564   4.085  0.00  0.00    +0.023 A 
ATOM      6  C   LIG    1       24.401 -15.319   3.997  0.00  0.00    +0.005 A 
ENDROOT
BRANCH   1   7
ATOM      7  C   LIG    1       26.432 -13.883   3.627  0.00  0.00    +0.065 C 
BRANCH   7   8
ATOM      8  CA  LIG    1       27.479 -13.669   4.738  0.00  0.00    +0.165 C 
BRANCH   8   9
ATOM      9  N   LIG    1       26.924 -13.110   6.006  0.00  0.00    -0.318 NA
ATOM     10  H1  LIG    1       26.454 -13.883   6.493  0.00  0.00    +0.119 HD
ATOM     11  H2  LIG    1       27.705 -12.868   6.620  0.00  0.00    +0.119 HD
ENDBRANCH   8   9
BRANCH   8  12
ATOM     12  C   LIG    1       28.693 -12.820   4.329  0.00  0.00    +0.322 C 
ATOM     13  O   LIG    1       29.425 -13.013   3.357  0.00  0.00    -0.249 OA
BRANCH  12  14
ATOM     14  OXT LIG    1       28.940 -11.848   5.245  0.00  0.00    -0.479 OA
ATOM     15  HXT LIG    1       29.375 -12.290   6.015  0.00  0.00    +0.295 HD
ENDBRANCH  12  14
ENDBRANCH   8  12
ENDBRANCH   7   8
ENDBRANCH   1   7
BRANCH   4  16
ATOM     16  N   LIG    1       23.754 -19.003   3.841  0.00  0.00    -0.328 N 
BRANCH  16  17
ATOM     17  C   LIG    1       24.349 -20.238   3.276  0.00  0.00    +0.121 C 
BRANCH  17  18
ATOM     18  C   LIG    1       24.958 -21.133   4.361  0.00  0.00    +0.127 C 
ATOM     19 CL   LIG    1       26.186 -20.261   5.317  0.00  0.00    -0.124 Cl
ENDBRANCH  17  18
ENDBRANCH  16  17
BRANCH  16  20
ATOM     20  C   LIG    1       22.426 -19.122   4.492  0.00  0.00    +0.121 C 
BRANCH  20  21
ATOM     21  C   LIG    1       22.235 -20.472   5.189  0.00  0.00    +0.127 C 
ATOM     22 CL   LIG    1       22.994 -20.477   6.802  0.00  0.00    -0.124 Cl
ENDBRANCH  20  21
ENDBRANCH  16  20
ENDBRANCH   4  16
TORSDOF 10
ENDMDL
MODEL 6
REMARK VINA RESULT:      -4.2      4.554      7.147
REMARK  Name = *****
REMARK                            x       y       z     vdW  Elec       q    Type
REMARK                         _______ _______ _______ _____ _____    ______ ____
ROOT
ATOM      1  C   LIG    1       25.930 -15.052   3.615  0.00  0.00    -0.045 A 
ATOM      2  C   LIG    1       26.629 -16.207   3.270  0.00  0.00    +0.005 A 
ATOM      3  C   LIG    1       25.993 -17.462   3.288  0.00  0.00    +0.023 A 
ATOM      4  C   LIG    1       24.648 -17.631   3.662  0.00  0.00    +0.030 A 
ATOM      5  C   LIG    1       23.967 -16.443   3.974  0.00  0.00    +0.023 A 
ATOM      6  C   LIG    1       24.580 -15.183   3.927  0.00  0.00    +0.005 A 
ENDROOT
BRANCH   1   7
ATOM      7  C   LIG    1       26.591 -13.696   3.669  0.00  0.00    +0.065 C 
BRANCH   7   8
ATOM      8  CA  LIG    1       27.608 -13.482   4.807  0.00  0.00    +0.165 C 
BRANCH   8   9
ATOM      9  N   LIG    1       27.008 -12.988   6.081  0.00  0.00    -0.318 NA
ATOM     10  H1  LIG    1       26.048 -13.352   6.122  0.00  0.00    +0.119 HD
ATOM     11  H2  LIG    1       27.482 -13.450   6.860  0.00  0.00    +0.119 HD
ENDBRANCH   8   9
BRANCH   8  12
ATOM     12  C   LIG    1       28.797 -12.576   4.451  0.00  0.00    +0.322 C 
ATOM     13  O   LIG    1       29.475 -12.630   3.424  0.00  0.00    -0.249 OA
BRANCH  12  14
ATOM     14  OXT LIG    1       29.094 -11.736   5.476  0.00  0.00    -0.479 OA
ATOM     15  HXT LIG    1       30.079 -11.728   5.559  0.00  0.00    +0.295 HD
ENDBRANCH  12  14
ENDBRANCH   8  12
ENDBRANCH   7   8
ENDBRANCH   1   7
BRANCH   4  16
ATOM     16  N   LIG    1       24.029 -18.880   3.707  0.00  0.00    -0.328 N 
BRANCH  16  17
ATOM     17  C   LIG    1       22.582 -19.024   3.995  0.00  0.00    +0.121 C 
BRANCH  17  18
ATOM     18  C   LIG    1       22.328 -19.724   5.334  0.00  0.00    +0.127 C 
ATOM     19 CL   LIG    1       21.792 -21.409   5.103  0.00  0.00    -0.124 Cl
ENDBRANCH  17  18
ENDBRANCH  16  17
BRANCH  16  20
ATOM     20  C   LIG    1       24.808 -20.123   3.485  0.00  0.00    +0.121 C 
BRANCH  20  21
ATOM     21  C   LIG    1       25.266 -20.767   4.796  0.00  0.00    +0.127 C 
ATOM     22 CL   LIG    1       26.795 -20.048   5.368  0.00  0.00    -0.124 Cl
ENDBRANCH  20  21
ENDBRANCH  16  20
ENDBRANCH   4  16
TORSDOF 10
ENDMDL
MODEL 7
REMARK VINA RESULT:      -4.1      4.054      6.887
REMARK  Name = *****
REMARK                            x       y       z     vdW  Elec       q    Type
REMARK                         _______ _______ _______ _____ _____    ______ ____
ROOT
ATOM      1  C   LIG    1       24.654 -15.012   3.754  0.00  0.00    -0.045 A 
ATOM      2  C   LIG    1       23.408 -15.424   4.223  0.00  0.00    +0.005 A 
ATOM      3  C   LIG    1       23.089 -16.791   4.302  0.00  0.00    +0.023 A 
ATOM      4  C   LIG    1       23.979 -17.807   3.909  0.00  0.00    +0.030 A 
ATOM      5  C   LIG    1       25.235 -17.357   3.470  0.00  0.00    +0.023 A 
ATOM      6  C   LIG    1       25.577 -15.998   3.417  0.00  0.00    +0.005 A 
ENDROOT
BRANCH   1   7
ATOM      7  C   LIG    1       25.013 -13.553   3.594  0.00  0.00    +0.065 C 
BRANCH   7   8
ATOM      8  CA  LIG    1       26.404 -13.259   3.000  0.00  0.00    +0.165 C 
BRANCH   8   9
ATOM      9  N   LIG    1       26.767 -14.116   1.832  0.00  0.00    -0.318 NA
ATOM     10  H1  LIG    1       26.324 -13.698   1.005  0.00  0.00    +0.119 HD
ATOM     11  H2  LIG    1       27.769 -14.012   1.657  0.00  0.00    +0.119 HD
ENDBRANCH   8   9
BRANCH   8  12
ATOM     12  C   LIG    1       27.562 -13.304   4.009  0.00  0.00    +0.322 C 
ATOM     13  O   LIG    1       27.460 -13.384   5.234  0.00  0.00    -0.249 OA
BRANCH  12  14
ATOM     14  OXT LIG    1       28.758 -13.145   3.386  0.00  0.00    -0.479 OA
ATOM     15  HXT LIG    1       28.993 -12.188   3.465  0.00  0.00    +0.295 HD
ENDBRANCH  12  14
ENDBRANCH   8  12
ENDBRANCH   7   8
ENDBRANCH   1   7
BRANCH   4  16
ATOM     16  N   LIG    1       23.649 -19.161   3.961  0.00  0.00    -0.328 N 
BRANCH  16  17
ATOM     17  C   LIG    1       22.335 -19.626   4.466  0.00  0.00    +0.121 C 
BRANCH  17  18
ATOM     18  C   LIG    1       22.465 -20.868   5.354  0.00  0.00    +0.127 C 
ATOM     19 CL   LIG    1       23.211 -20.475   6.926  0.00  0.00    -0.124 Cl
ENDBRANCH  17  18
ENDBRANCH  16  17
BRANCH  16  20
ATOM     20  C   LIG    1       24.619 -20.197   3.527  0.00  0.00    +0.121 C 
BRANCH  20  21
ATOM     21  C   LIG    1       25.399 -20.795   4.702  0.00  0.00    +0.127 C 
ATOM     22 CL   LIG    1       26.806 -19.784   5.124  0.00  0.00    -0.124 Cl
ENDBRANCH  20  21
ENDBRANCH  16  20
ENDBRANCH   4  16
TORSDOF 10
ENDMDL
MODEL 8
REMARK VINA RESULT:      -3.8      1.509      2.101
REMARK  Name = *****
REMARK                            x       y       z     vdW  Elec       q    Type
REMARK                         _______ _______ _______ _____ _____    ______ ____
ROOT
ATOM      1  C   LIG    1       24.324 -18.165   3.726  0.00  0.00    -0.045 A 
ATOM      2  C   LIG    1       23.487 -17.101   4.057  0.00  0.00    +0.005 A 
ATOM      3  C   LIG    1       23.960 -15.777   4.013  0.00  0.00    +0.023 A 
ATOM      4  C   LIG    1       25.280 -15.449   3.655  0.00  0.00    +0.030 A 
ATOM      5  C   LIG    1       26.086 -16.543   3.299  0.00  0.00    +0.023 A 
ATOM      6  C   LIG    1       25.617 -17.864   3.307  0.00  0.00    +0.005 A 
ENDROOT
BRANCH   1   7
ATOM      7  C   LIG    1       23.875 -19.604   3.821  0.00  0.00    +0.065 C 
BRANCH   7   8
ATOM      8  CA  LIG    1       24.290 -20.360   5.098  0.00  0.00    +0.165 C 
BRANCH   8   9
ATOM      9  N   LIG    1       25.360 -21.379   4.888  0.00  0.00    -0.318 NA
ATOM     10  H1  LIG    1       25.917 -21.067   4.084  0.00  0.00    +0.119 HD
ATOM     11  H2  LIG    1       26.011 -21.329   5.676  0.00  0.00    +0.119 HD
ENDBRANCH   8   9
BRANCH   8  12
ATOM     12  C   LIG    1       23.133 -21.026   5.861  0.00  0.00    +0.322 C 
ATOM     13  O   LIG    1       23.111 -21.298   7.062  0.00  0.00    -0.249 OA
BRANCH  12  14
ATOM     14  OXT LIG    1       22.134 -21.384   5.014  0.00  0.00    -0.479 OA
ATOM     15  HXT LIG    1       21.582 -22.051   5.493  0.00  0.00    +0.295 HD
ENDBRANCH  12  14
ENDBRANCH   8  12
ENDBRANCH   7   8
ENDBRANCH   1   7
BRANCH   4  16
ATOM     16  N   LIG    1       25.753 -14.138   3.640  0.00  0.00    -0.328 N 
BRANCH  16  17
ATOM     17  C   LIG    1       26.114 -13.423   4.888  0.00  0.00    +0.121 C 
BRANCH  17  18
ATOM     18  C   LIG    1       27.585 -13.626   5.264  0.00  0.00    +0.127 C 
ATOM     19 CL   LIG    1       28.657 -12.557   4.321  0.00  0.00    -0.124 Cl
ENDBRANCH  17  18
ENDBRANCH  16  17
BRANCH  16  20
ATOM     20  C   LIG    1       25.896 -13.396   2.363  0.00  0.00    +0.121 C 
BRANCH  20  21
ATOM     21  C   LIG    1       24.580 -12.761   1.906  0.00  0.00    +0.127 C 
ATOM     22 CL   LIG    1       23.821 -11.829   3.223  0.00  0.00    -0.124 Cl
ENDBRANCH  20  21
ENDBRANCH  16  20
ENDBRANCH   4  16
TORSDOF 10
ENDMDL
MODEL 9
REMARK VINA RESULT:      -3.7      4.341      6.750
REMARK  Name = *****
REMARK                            x       y       z     vdW  Elec       q    Type
REMARK                         _______ _______ _______ _____ _____    ______ ____
ROOT
ATOM      1  C   LIG    1       26.687 -16.346   3.520  0.00  0.00    -0.045 A 
ATOM      2  C   LIG    1       27.556 -17.299   4.046  0.00  0.00    +0.005 A 
ATOM      3  C   LIG    1       27.107 -18.602   4.325  0.00  0.00    +0.023 A 
ATOM      4  C   LIG    1       25.780 -19.015   4.109  0.00  0.00    +0.030 A 
ATOM      5  C   LIG    1       24.940 -18.038   3.549  0.00  0.00    +0.023 A 
ATOM      6  C   LIG    1       25.384 -16.745   3.237  0.00  0.00    +0.005 A 
ENDROOT
BRANCH   1   7
ATOM      7  C   LIG    1       27.113 -14.919   3.266  0.00  0.00    +0.065 C 
BRANCH   7   8
ATOM      8  CA  LIG    1       27.341 -14.047   4.516  0.00  0.00    +0.165 C 
BRANCH   8   9
ATOM      9  N   LIG    1       26.127 -13.312   4.980  0.00  0.00    -0.318 NA
ATOM     10  H1  LIG    1       25.385 -13.495   4.295  0.00  0.00    +0.119 HD
ATOM     11  H2  LIG    1       25.790 -13.757   5.837  0.00  0.00    +0.119 HD
ENDBRANCH   8   9
BRANCH   8  12
ATOM     12  C   LIG    1       28.499 -13.044   4.403  0.00  0.00    +0.322 C 
ATOM     13  O   LIG    1       29.395 -13.054   3.558  0.00  0.00    -0.249 OA
BRANCH  12  14
ATOM     14  OXT LIG    1       28.482 -12.162   5.435  0.00  0.00    -0.479 OA
ATOM     15  HXT LIG    1       29.370 -12.215   5.868  0.00  0.00    +0.295 HD
ENDBRANCH  12  14
ENDBRANCH   8  12
ENDBRANCH   7   8
ENDBRANCH   1   7
BRANCH   4  16
ATOM     16  N   LIG    1       25.330 -20.299   4.413  0.00  0.00    -0.328 N 
BRANCH  16  17
ATOM     17  C   LIG    1       26.055 -21.176   5.364  0.00  0.00    +0.121 C 
BRANCH  17  18
ATOM     18  C   LIG    1       26.459 -20.432   6.641  0.00  0.00    +0.127 C 
ATOM     19 CL   LIG    1       28.168 -20.727   7.058  0.00  0.00    -0.124 Cl
ENDBRANCH  17  18
ENDBRANCH  16  17
BRANCH  16  20
ATOM     20  C   LIG    1       24.108 -20.848   3.775  0.00  0.00    +0.121 C 
BRANCH  20  21
ATOM     21  C   LIG    1       22.973 -21.065   4.779  0.00  0.00    +0.127 C 
ATOM     22 CL   LIG    1       22.464 -19.526   5.521  0.00  0.00    -0.124 Cl
ENDBRANCH  20  21
ENDBRANCH  16  20
ENDBRANCH   4  16
TORSDOF 10
ENDMDL
