MODEL 1
REMARK VINA RESULT:      -7.2      0.000      0.000
REMARK  Name = *****
REMARK                            x       y       z     vdW  Elec       q    Type
REMARK                         _______ _______ _______ _____ _____    ______ ____
ROOT
ATOM      1  C   LIG    1       28.196 -20.234   6.999  0.00  0.00    +0.123 C 
ATOM      2  N   LIG    1       27.706 -20.295   8.196  0.00  0.00    -0.178 NA
ATOM      3  C   LIG    1       26.354 -20.471   8.378  0.00  0.00    +0.352 C 
ATOM      4  O   LIG    1       25.889 -20.606   9.506  0.00  0.00    -0.244 OA
ATOM      5  N   LIG    1       25.523 -20.494   7.247  0.00  0.00    -0.273 N 
ATOM      6  C   LIG    1       26.058 -20.455   5.978  0.00  0.00    +0.096 C 
ATOM      7  C   LIG    1       27.370 -20.338   5.782  0.00  0.00    +0.061 C 
ENDROOT
BRANCH   5   8
ATOM      8  C   LIG    1       24.096 -20.705   7.486  0.00  0.00    +0.224 C 
ATOM      9  O   LIG    1       23.838 -22.076   7.864  0.00  0.00    -0.351 OA
ATOM     10  C   LIG    1       22.977 -22.676   6.874  0.00  0.00    +0.146 C 
ATOM     11  C   LIG    1       23.028 -21.785   5.653  0.00  0.00    +0.038 C 
ATOM     12  C   LIG    1       23.210 -20.423   6.272  0.00  0.00    +0.057 C 
BRANCH  10  13
ATOM     13  C   LIG    1       23.448 -24.101   6.594  0.00  0.00    +0.187 C 
BRANCH  13  14
ATOM     14  O   LIG    1       24.337 -24.107   5.478  0.00  0.00    -0.393 OA
ATOM     15  H   LIG    1       25.215 -23.871   5.837  0.00  0.00    +0.209 HD
ENDBRANCH  13  14
ENDBRANCH  10  13
ENDBRANCH   5   8
BRANCH   1  16
ATOM     16  N   LIG    1       29.549 -20.073   6.887  0.00  0.00    -0.343 N 
ATOM     17  H   LIG    1       30.052 -20.926   7.112  0.00  0.00    +0.144 HD
ATOM     18  H   LIG    1       29.890 -19.618   6.050  0.00  0.00    +0.144 HD
ENDBRANCH   1  16
TORSDOF 4
ENDMDL
MODEL 2
REMARK VINA RESULT:      -7.0      3.202      5.020
REMARK  Name = *****
REMARK                            x       y       z     vdW  Elec       q    Type
REMARK                         _______ _______ _______ _____ _____    ______ ____
ROOT
ATOM      1  C   LIG    1       24.789 -26.146   6.051  0.00  0.00    +0.123 C 
ATOM      2  N   LIG    1       23.618 -25.619   6.209  0.00  0.00    -0.178 NA
ATOM      3  C   LIG    1       23.502 -24.322   6.653  0.00  0.00    +0.352 C 
ATOM      4  O   LIG    1       22.400 -23.787   6.734  0.00  0.00    -0.244 OA
ATOM      5  N   LIG    1       24.669 -23.628   7.006  0.00  0.00    -0.273 N 
ATOM      6  C   LIG    1       25.912 -24.190   6.809  0.00  0.00    +0.096 C 
ATOM      7  C   LIG    1       26.045 -25.425   6.330  0.00  0.00    +0.061 C 
ENDROOT
BRANCH   5   8
ATOM      8  C   LIG    1       24.500 -22.245   7.453  0.00  0.00    +0.224 C 
ATOM      9  O   LIG    1       24.378 -21.355   6.321  0.00  0.00    -0.351 OA
ATOM     10  C   LIG    1       25.476 -20.419   6.345  0.00  0.00    +0.146 C 
ATOM     11  C   LIG    1       26.518 -20.994   7.279  0.00  0.00    +0.038 C 
ATOM     12  C   LIG    1       25.663 -21.712   8.291  0.00  0.00    +0.057 C 
BRANCH  10  13
ATOM     13  C   LIG    1       25.995 -20.215   4.924  0.00  0.00    +0.187 C 
BRANCH  13  14
ATOM     14  O   LIG    1       27.421 -20.149   4.934  0.00  0.00    -0.393 OA
ATOM     15  H   LIG    1       27.730 -21.076   4.950  0.00  0.00    +0.209 HD
ENDBRANCH  13  14
ENDBRANCH  10  13
ENDBRANCH   5   8
BRANCH   1  16
ATOM     16  N   LIG    1       24.836 -27.434   5.594  0.00  0.00    -0.343 N 
ATOM     17  H   LIG    1       24.585 -28.102   6.316  0.00  0.00    +0.144 HD
ATOM     18  H   LIG    1       24.392 -27.623   4.704  0.00  0.00    +0.144 HD
ENDBRANCH   1  16
TORSDOF 4
ENDMDL
MODEL 3
REMARK VINA RESULT:      -6.9      2.839      5.806
REMARK  Name = *****
REMARK                            x       y       z     vdW  Elec       q    Type
REMARK                         _______ _______ _______ _____ _____    ______ ____
ROOT
ATOM      1  C   LIG    1       24.791 -20.836   7.473  0.00  0.00    +0.123 C 
ATOM      2  N   LIG    1       24.967 -20.499   6.236  0.00  0.00    -0.178 NA
ATOM      3  C   LIG    1       26.240 -20.315   5.748  0.00  0.00    +0.352 C 
ATOM      4  O   LIG    1       26.422 -20.070   4.559  0.00  0.00    -0.244 OA
ATOM      5  N   LIG    1       27.319 -20.415   6.638  0.00  0.00    -0.273 N 
ATOM      6  C   LIG    1       27.122 -20.800   7.947  0.00  0.00    +0.096 C 
ATOM      7  C   LIG    1       25.901 -21.035   8.423  0.00  0.00    +0.061 C 
ENDROOT
BRANCH   5   8
ATOM      8  C   LIG    1       28.656 -20.233   6.072  0.00  0.00    +0.224 C 
ATOM      9  O   LIG    1       29.652 -20.883   6.893  0.00  0.00    -0.351 OA
ATOM     10  C   LIG    1       30.565 -19.885   7.394  0.00  0.00    +0.146 C 
ATOM     11  C   LIG    1       29.890 -18.544   7.209  0.00  0.00    +0.038 C 
ATOM     12  C   LIG    1       29.091 -18.772   5.952  0.00  0.00    +0.057 C 
BRANCH  10  13
ATOM     13  C   LIG    1       30.896 -20.192   8.852  0.00  0.00    +0.187 C 
BRANCH  13  14
ATOM     14  O   LIG    1       32.136 -19.582   9.206  0.00  0.00    -0.393 OA
ATOM     15  H   LIG    1       31.902 -18.792   9.733  0.00  0.00    +0.209 HD
ENDBRANCH  13  14
ENDBRANCH  10  13
ENDBRANCH   5   8
BRANCH   1  16
ATOM     16  N   LIG    1       23.502 -21.018   7.892  0.00  0.00    -0.343 N 
ATOM     17  H   LIG    1       22.832 -20.620   7.241  0.00  0.00    +0.144 HD
ATOM     18  H   LIG    1       23.247 -21.945   8.209  0.00  0.00    +0.144 HD
ENDBRANCH   1  16
TORSDOF 4
ENDMDL
MODEL 4
REMARK VINA RESULT:      -6.7      1.778      2.204
REMARK  Name = *****
REMARK                            x       y       z     vdW  Elec       q    Type
REMARK                         _______ _______ _______ _____ _____    ______ ____
ROOT
ATOM      1  C   LIG    1       28.312 -19.911   7.645  0.00  0.00    +0.123 C 
ATOM      2  N   LIG    1       27.560 -20.357   8.599  0.00  0.00    -0.178 NA
ATOM      3  C   LIG    1       26.344 -20.930   8.306  0.00  0.00    +0.352 C 
ATOM      4  O   LIG    1       25.658 -21.424   9.196  0.00  0.00    -0.244 OA
ATOM      5  N   LIG    1       25.912 -20.938   6.972  0.00  0.00    -0.273 N 
ATOM      6  C   LIG    1       26.732 -20.484   5.961  0.00  0.00    +0.096 C 
ATOM      7  C   LIG    1       27.934 -19.975   6.221  0.00  0.00    +0.061 C 
ENDROOT
BRANCH   5   8
ATOM      8  C   LIG    1       24.623 -21.576   6.703  0.00  0.00    +0.224 C 
ATOM      9  O   LIG    1       24.506 -21.922   5.305  0.00  0.00    -0.351 OA
ATOM     10  C   LIG    1       23.396 -21.196   4.738  0.00  0.00    +0.146 C 
ATOM     11  C   LIG    1       23.070 -20.076   5.701  0.00  0.00    +0.038 C 
ATOM     12  C   LIG    1       23.412 -20.702   7.029  0.00  0.00    +0.057 C 
BRANCH  10  13
ATOM     13  C   LIG    1       23.779 -20.696   3.348  0.00  0.00    +0.187 C 
BRANCH  13  14
ATOM     14  O   LIG    1       24.351 -19.392   3.442  0.00  0.00    -0.393 OA
ATOM     15  H   LIG    1       25.298 -19.531   3.640  0.00  0.00    +0.209 HD
ENDBRANCH  13  14
ENDBRANCH  10  13
ENDBRANCH   5   8
BRANCH   1  16
ATOM     16  N   LIG    1       29.514 -19.366   8.001  0.00  0.00    -0.343 N 
ATOM     17  H   LIG    1       29.840 -19.720   8.895  0.00  0.00    +0.144 HD
ATOM     18  H   LIG    1       30.238 -19.344   7.294  0.00  0.00    +0.144 HD
ENDBRANCH   1  16
TORSDOF 4
ENDMDL
MODEL 5
REMARK VINA RESULT:      -6.7      4.123      6.968
REMARK  Name = *****
REMARK                            x       y       z     vdW  Elec       q    Type
REMARK                         _______ _______ _______ _____ _____    ______ ____
ROOT
ATOM      1  C   LIG    1       27.996 -19.981   5.801  0.00  0.00    +0.123 C 
ATOM      2  N   LIG    1       28.188 -20.862   6.729  0.00  0.00    -0.178 NA
ATOM      3  C   LIG    1       29.254 -20.733   7.590  0.00  0.00    +0.352 C 
ATOM      4  O   LIG    1       29.402 -21.521   8.520  0.00  0.00    -0.244 OA
ATOM      5  N   LIG    1       30.160 -19.684   7.381  0.00  0.00    -0.273 N 
ATOM      6  C   LIG    1       29.932 -18.736   6.407  0.00  0.00    +0.096 C 
ATOM      7  C   LIG    1       28.877 -18.816   5.598  0.00  0.00    +0.061 C 
ENDROOT
BRANCH   5   8
ATOM      8  C   LIG    1       31.266 -19.573   8.333  0.00  0.00    +0.224 C 
ATOM      9  O   LIG    1       30.766 -19.426   9.681  0.00  0.00    -0.351 OA
ATOM     10  C   LIG    1       31.201 -18.153  10.203  0.00  0.00    +0.146 C 
ATOM     11  C   LIG    1       31.639 -17.323   9.016  0.00  0.00    +0.038 C 
ATOM     12  C   LIG    1       32.186 -18.376   8.087  0.00  0.00    +0.057 C 
BRANCH  10  13
ATOM     13  C   LIG    1       30.061 -17.515  10.990  0.00  0.00    +0.187 C 
BRANCH  13  14
ATOM     14  O   LIG    1       30.418 -16.186  11.370  0.00  0.00    -0.393 OA
ATOM     15  H   LIG    1       29.741 -15.904  12.015  0.00  0.00    +0.209 HD
ENDBRANCH  13  14
ENDBRANCH  10  13
ENDBRANCH   5   8
BRANCH   1  16
ATOM     16  N   LIG    1       26.912 -20.158   4.988  0.00  0.00    -0.343 N 
ATOM     17  H   LIG    1       27.127 -19.949   4.018  0.00  0.00    +0.144 HD
ATOM     18  H   LIG    1       26.385 -21.015   5.103  0.00  0.00    +0.144 HD
ENDBRANCH   1  16
TORSDOF 4
ENDMDL
MODEL 6
REMARK VINA RESULT:      -6.5      1.765      2.153
REMARK  Name = *****
REMARK                            x       y       z     vdW  Elec       q    Type
REMARK                         _______ _______ _______ _____ _____    ______ ____
ROOT
ATOM      1  C   LIG    1       28.491 -19.341   5.737  0.00  0.00    +0.123 C 
ATOM      2  N   LIG    1       29.012 -19.896   6.785  0.00  0.00    -0.178 NA
ATOM      3  C   LIG    1       28.302 -20.844   7.485  0.00  0.00    +0.352 C 
ATOM      4  O   LIG    1       28.815 -21.431   8.434  0.00  0.00    -0.244 OA
ATOM      5  N   LIG    1       26.987 -21.124   7.089  0.00  0.00    -0.273 N 
ATOM      6  C   LIG    1       26.452 -20.548   5.957  0.00  0.00    +0.096 C 
ATOM      7  C   LIG    1       27.143 -19.667   5.236  0.00  0.00    +0.061 C 
ENDROOT
BRANCH   5   8
ATOM      8  C   LIG    1       26.278 -22.154   7.849  0.00  0.00    +0.224 C 
ATOM      9  O   LIG    1       26.372 -23.434   7.184  0.00  0.00    -0.351 OA
ATOM     10  C   LIG    1       25.045 -23.872   6.827  0.00  0.00    +0.146 C 
ATOM     11  C   LIG    1       24.148 -22.656   6.910  0.00  0.00    +0.038 C 
ATOM     12  C   LIG    1       24.785 -21.879   8.034  0.00  0.00    +0.057 C 
BRANCH  10  13
ATOM     13  C   LIG    1       25.078 -24.495   5.434  0.00  0.00    +0.187 C 
BRANCH  13  14
ATOM     14  O   LIG    1       24.716 -23.519   4.458  0.00  0.00    -0.393 OA
ATOM     15  H   LIG    1       24.124 -23.979   3.831  0.00  0.00    +0.209 HD
ENDBRANCH  13  14
ENDBRANCH  10  13
ENDBRANCH   5   8
BRANCH   1  16
ATOM     16  N   LIG    1       29.253 -18.417   5.078  0.00  0.00    -0.343 N 
ATOM     17  H   LIG    1       28.713 -17.597   4.818  0.00  0.00    +0.144 HD
ATOM     18  H   LIG    1       30.153 -18.190   5.481  0.00  0.00    +0.144 HD
ENDBRANCH   1  16
TORSDOF 4
ENDMDL
MODEL 7
REMARK VINA RESULT:      -6.4      3.040      4.601
REMARK  Name = *****
REMARK                            x       y       z     vdW  Elec       q    Type
REMARK                         _______ _______ _______ _____ _____    ______ ____
ROOT
ATOM      1  C   LIG    1       25.172 -21.868   8.035  0.00  0.00    +0.123 C 
ATOM      2  N   LIG    1       23.931 -22.048   7.716  0.00  0.00    -0.178 NA
ATOM      3  C   LIG    1       23.566 -23.136   6.957  0.00  0.00    +0.352 C 
ATOM      4  O   LIG    1       22.384 -23.357   6.713  0.00  0.00    -0.244 OA
ATOM      5  N   LIG    1       24.574 -23.983   6.474  0.00  0.00    -0.273 N 
ATOM      6  C   LIG    1       25.889 -23.797   6.841  0.00  0.00    +0.096 C 
ATOM      7  C   LIG    1       26.254 -22.780   7.618  0.00  0.00    +0.061 C 
ENDROOT
BRANCH   5   8
ATOM      8  C   LIG    1       24.139 -25.139   5.689  0.00  0.00    +0.224 C 
ATOM      9  O   LIG    1       23.976 -26.299   6.537  0.00  0.00    -0.351 OA
ATOM     10  C   LIG    1       24.898 -27.322   6.107  0.00  0.00    +0.146 C 
ATOM     11  C   LIG    1       25.930 -26.641   5.236  0.00  0.00    +0.038 C 
ATOM     12  C   LIG    1       25.116 -25.551   4.587  0.00  0.00    +0.057 C 
BRANCH  10  13
ATOM     13  C   LIG    1       25.504 -28.001   7.332  0.00  0.00    +0.187 C 
BRANCH  13  14
ATOM     14  O   LIG    1       25.699 -29.390   7.069  0.00  0.00    -0.393 OA
ATOM     15  H   LIG    1       26.103 -29.759   7.879  0.00  0.00    +0.209 HD
ENDBRANCH  13  14
ENDBRANCH  10  13
ENDBRANCH   5   8
BRANCH   1  16
ATOM     16  N   LIG    1       25.467 -20.775   8.802  0.00  0.00    -0.343 N 
ATOM     17  H   LIG    1       25.387 -20.977   9.794  0.00  0.00    +0.144 HD
ATOM     18  H   LIG    1       26.306 -20.260   8.567  0.00  0.00    +0.144 HD
ENDBRANCH   1  16
TORSDOF 4
ENDMDL
MODEL 8
REMARK VINA RESULT:      -6.4      2.071      2.857
REMARK  Name = *****
REMARK                            x       y       z     vdW  Elec       q    Type
REMARK                         _______ _______ _______ _____ _____    ______ ____
ROOT
ATOM      1  C   LIG    1       25.507 -19.548   4.087  0.00  0.00    +0.123 C 
ATOM      2  N   LIG    1       26.389 -19.785   5.004  0.00  0.00    -0.178 NA
ATOM      3  C   LIG    1       26.115 -20.691   6.003  0.00  0.00    +0.352 C 
ATOM      4  O   LIG    1       26.972 -20.979   6.834  0.00  0.00    -0.244 OA
ATOM      5  N   LIG    1       24.841 -21.275   6.048  0.00  0.00    -0.273 N 
ATOM      6  C   LIG    1       23.919 -21.035   5.051  0.00  0.00    +0.096 C 
ATOM      7  C   LIG    1       24.186 -20.202   4.047  0.00  0.00    +0.061 C 
ENDROOT
BRANCH   5   8
ATOM      8  C   LIG    1       24.601 -22.247   7.114  0.00  0.00    +0.224 C 
ATOM      9  O   LIG    1       25.178 -23.528   6.775  0.00  0.00    -0.351 OA
ATOM     10  C   LIG    1       24.121 -24.507   6.695  0.00  0.00    +0.146 C 
ATOM     11  C   LIG    1       22.822 -23.738   6.586  0.00  0.00    +0.038 C 
ATOM     12  C   LIG    1       23.123 -22.508   7.403  0.00  0.00    +0.057 C 
BRANCH  10  13
ATOM     13  C   LIG    1       24.374 -25.425   5.503  0.00  0.00    +0.187 C 
BRANCH  13  14
ATOM     14  O   LIG    1       24.758 -24.650   4.367  0.00  0.00    -0.393 OA
ATOM     15  H   LIG    1       24.820 -23.728   4.685  0.00  0.00    +0.209 HD
ENDBRANCH  13  14
ENDBRANCH  10  13
ENDBRANCH   5   8
BRANCH   1  16
ATOM     16  N   LIG    1       25.846 -18.649   3.114  0.00  0.00    -0.343 N 
ATOM     17  H   LIG    1       26.842 -18.452   3.111  0.00  0.00    +0.144 HD
ATOM     18  H   LIG    1       25.468 -18.808   2.188  0.00  0.00    +0.144 HD
ENDBRANCH   1  16
TORSDOF 4
ENDMDL
MODEL 9
REMARK VINA RESULT:      -6.0      2.296      5.179
REMARK  Name = *****
REMARK                            x       y       z     vdW  Elec       q    Type
REMARK                         _______ _______ _______ _____ _____    ______ ____
ROOT
ATOM      1  C   LIG    1       24.035 -20.705   6.389  0.00  0.00    +0.123 C 
ATOM      2  N   LIG    1       24.137 -21.042   7.635  0.00  0.00    -0.178 NA
ATOM      3  C   LIG    1       25.375 -21.110   8.230  0.00  0.00    +0.352 C 
ATOM      4  O   LIG    1       25.477 -21.354   9.429  0.00  0.00    -0.244 OA
ATOM      5  N   LIG    1       26.512 -20.891   7.439  0.00  0.00    -0.273 N 
ATOM      6  C   LIG    1       26.392 -20.507   6.121  0.00  0.00    +0.096 C 
ATOM      7  C   LIG    1       25.199 -20.385   5.542  0.00  0.00    +0.061 C 
ENDROOT
BRANCH   5   8
ATOM      8  C   LIG    1       27.806 -20.952   8.118  0.00  0.00    +0.224 C 
ATOM      9  O   LIG    1       28.335 -19.624   8.329  0.00  0.00    -0.351 OA
ATOM     10  C   LIG    1       29.582 -19.501   7.613  0.00  0.00    +0.146 C 
ATOM     11  C   LIG    1       29.625 -20.636   6.615  0.00  0.00    +0.038 C 
ATOM     12  C   LIG    1       28.881 -21.722   7.350  0.00  0.00    +0.057 C 
BRANCH  10  13
ATOM     13  C   LIG    1       29.651 -18.125   6.957  0.00  0.00    +0.187 C 
BRANCH  13  14
ATOM     14  O   LIG    1       29.918 -18.266   5.562  0.00  0.00    -0.393 OA
ATOM     15  H   LIG    1       29.705 -19.195   5.344  0.00  0.00    +0.209 HD
ENDBRANCH  13  14
ENDBRANCH  10  13
ENDBRANCH   5   8
BRANCH   1  16
ATOM     16  N   LIG    1       22.776 -20.642   5.861  0.00  0.00    -0.343 N 
ATOM     17  H   LIG    1       22.068 -20.539   6.581  0.00  0.00    +0.144 HD
ATOM     18  H   LIG    1       22.637 -20.021   5.074  0.00  0.00    +0.144 HD
ENDBRANCH   1  16
TORSDOF 4
ENDMDL
