MODEL 1
REMARK VINA RESULT:      -6.6      0.000      0.000
REMARK  Name = *****
REMARK                            x       y       z     vdW  Elec       q    Type
REMARK                         _______ _______ _______ _____ _____    ______ ____
ROOT
ATOM      1  C   LIG    1       23.466 -21.919   6.801  0.00  0.00    +0.161 C 
ENDROOT
BRANCH   1   2
ATOM      2  C   LIG    1       23.579 -20.822   5.757  0.00  0.00    -0.018 A 
ATOM      3  C   LIG    1       22.532 -19.920   5.509  0.00  0.00    +0.006 A 
ATOM      4  C   LIG    1       22.636 -18.955   4.504  0.00  0.00    +0.000 A 
ATOM      5  C   LIG    1       23.794 -18.872   3.733  0.00  0.00    +0.000 A 
ATOM      6  C   LIG    1       24.847 -19.749   3.972  0.00  0.00    +0.000 A 
ATOM      7  C   LIG    1       24.743 -20.716   4.975  0.00  0.00    +0.006 A 
ENDBRANCH   1   2
BRANCH   1   9
ATOM      8  C   LIG    1       25.368 -23.654   7.133  0.00  0.00    +0.027 C 
ATOM      9  C   LIG    1       24.058 -23.314   6.431  0.00  0.00    +0.081 C 
BRANCH   9  10
ATOM     10  N   LIG    1       23.059 -24.389   6.616  0.00  0.00    -0.325 NA
ATOM     11  H   LIG    1       22.149 -24.055   6.297  0.00  0.00    +0.118 HD
ATOM     12  H   LIG    1       23.295 -25.163   5.990  0.00  0.00    +0.118 HD
ENDBRANCH   9  10
ENDBRANCH   1   9
BRANCH   1  13
ATOM     13  O   LIG    1       24.100 -21.483   8.015  0.00  0.00    -0.386 OA
ATOM     14  H   LIG    1       24.263 -22.312   8.512  0.00  0.00    +0.210 HD
ENDBRANCH   1  13
TORSDOF 4
ENDMDL
MODEL 2
REMARK VINA RESULT:      -6.6      0.124      1.456
REMARK  Name = *****
REMARK                            x       y       z     vdW  Elec       q    Type
REMARK                         _______ _______ _______ _____ _____    ______ ____
ROOT
ATOM      1  C   LIG    1       23.543 -21.980   6.740  0.00  0.00    +0.161 C 
ENDROOT
BRANCH   1   2
ATOM      2  C   LIG    1       23.607 -20.925   5.649  0.00  0.00    -0.018 A 
ATOM      3  C   LIG    1       24.718 -20.799   4.801  0.00  0.00    +0.006 A 
ATOM      4  C   LIG    1       24.780 -19.785   3.841  0.00  0.00    +0.000 A 
ATOM      5  C   LIG    1       23.726 -18.882   3.712  0.00  0.00    +0.000 A 
ATOM      6  C   LIG    1       22.612 -18.998   4.536  0.00  0.00    +0.000 A 
ATOM      7  C   LIG    1       22.550 -20.011   5.497  0.00  0.00    +0.006 A 
ENDBRANCH   1   2
BRANCH   1   9
ATOM      8  C   LIG    1       25.441 -23.711   7.115  0.00  0.00    +0.027 C 
ATOM      9  C   LIG    1       24.133 -23.385   6.404  0.00  0.00    +0.081 C 
BRANCH   9  10
ATOM     10  N   LIG    1       23.131 -24.453   6.613  0.00  0.00    -0.325 NA
ATOM     11  H   LIG    1       22.252 -24.030   6.914  0.00  0.00    +0.118 HD
ATOM     12  H   LIG    1       22.926 -24.887   5.710  0.00  0.00    +0.118 HD
ENDBRANCH   9  10
ENDBRANCH   1   9
BRANCH   1  13
ATOM     13  O   LIG    1       24.220 -21.491   7.910  0.00  0.00    -0.386 OA
ATOM     14  H   LIG    1       23.987 -22.136   8.610  0.00  0.00    +0.210 HD
ENDBRANCH   1  13
TORSDOF 4
ENDMDL
MODEL 3
REMARK VINA RESULT:      -6.5      7.381      8.131
REMARK  Name = *****
REMARK                            x       y       z     vdW  Elec       q    Type
REMARK                         _______ _______ _______ _____ _____    ______ ____
ROOT
ATOM      1  C   LIG    1       31.652 -18.687   8.275  0.00  0.00    +0.161 C 
ENDROOT
BRANCH   1   2
ATOM      2  C   LIG    1       30.488 -19.308   7.523  0.00  0.00    -0.018 A 
ATOM      3  C   LIG    1       29.859 -18.651   6.453  0.00  0.00    +0.006 A 
ATOM      4  C   LIG    1       28.753 -19.215   5.812  0.00  0.00    +0.000 A 
ATOM      5  C   LIG    1       28.261 -20.451   6.229  0.00  0.00    +0.000 A 
ATOM      6  C   LIG    1       28.878 -21.122   7.279  0.00  0.00    +0.000 A 
ATOM      7  C   LIG    1       29.983 -20.557   7.922  0.00  0.00    +0.006 A 
ENDBRANCH   1   2
BRANCH   1   9
ATOM      8  C   LIG    1       30.976 -17.437  10.447  0.00  0.00    +0.027 C 
ATOM      9  C   LIG    1       31.392 -17.322   8.985  0.00  0.00    +0.081 C 
BRANCH   9  10
ATOM     10  N   LIG    1       32.541 -16.404   8.827  0.00  0.00    -0.325 NA
ATOM     11  H   LIG    1       32.275 -15.478   9.163  0.00  0.00    +0.118 HD
ATOM     12  H   LIG    1       33.291 -16.712   9.451  0.00  0.00    +0.118 HD
ENDBRANCH   9  10
ENDBRANCH   1   9
BRANCH   1  13
ATOM     13  O   LIG    1       32.121 -19.613   9.269  0.00  0.00    -0.386 OA
ATOM     14  H   LIG    1       32.835 -19.128   9.732  0.00  0.00    +0.210 HD
ENDBRANCH   1  13
TORSDOF 4
ENDMDL
MODEL 4
REMARK VINA RESULT:      -6.5      1.422      1.536
REMARK  Name = *****
REMARK                            x       y       z     vdW  Elec       q    Type
REMARK                         _______ _______ _______ _____ _____    ______ ____
ROOT
ATOM      1  C   LIG    1       25.033 -21.876   6.520  0.00  0.00    +0.161 C 
ENDROOT
BRANCH   1   2
ATOM      2  C   LIG    1       24.371 -20.807   5.666  0.00  0.00    -0.018 A 
ATOM      3  C   LIG    1       23.074 -20.341   5.934  0.00  0.00    +0.006 A 
ATOM      4  C   LIG    1       22.462 -19.399   5.102  0.00  0.00    +0.000 A 
ATOM      5  C   LIG    1       23.142 -18.905   3.990  0.00  0.00    +0.000 A 
ATOM      6  C   LIG    1       24.432 -19.347   3.716  0.00  0.00    +0.000 A 
ATOM      7  C   LIG    1       25.043 -20.290   4.546  0.00  0.00    +0.006 A 
ENDBRANCH   1   2
BRANCH   1   9
ATOM      8  C   LIG    1       23.226 -23.727   6.733  0.00  0.00    +0.027 C 
ATOM      9  C   LIG    1       24.623 -23.356   6.248  0.00  0.00    +0.081 C 
BRANCH   9  10
ATOM     10  N   LIG    1       24.807 -23.714   4.825  0.00  0.00    -0.325 NA
ATOM     11  H   LIG    1       23.935 -24.105   4.465  0.00  0.00    +0.118 HD
ATOM     12  H   LIG    1       24.957 -22.854   4.291  0.00  0.00    +0.118 HD
ENDBRANCH   9  10
ENDBRANCH   1   9
BRANCH   1  13
ATOM     13  O   LIG    1       26.460 -21.784   6.369  0.00  0.00    -0.386 OA
ATOM     14  H   LIG    1       26.717 -21.046   6.959  0.00  0.00    +0.210 HD
ENDBRANCH   1  13
TORSDOF 4
ENDMDL
MODEL 5
REMARK VINA RESULT:      -6.3      3.414      4.502
REMARK  Name = *****
REMARK                            x       y       z     vdW  Elec       q    Type
REMARK                         _______ _______ _______ _____ _____    ______ ____
ROOT
ATOM      1  C   LIG    1       26.522 -21.713   8.370  0.00  0.00    +0.161 C 
ENDROOT
BRANCH   1   2
ATOM      2  C   LIG    1       25.423 -22.512   7.691  0.00  0.00    -0.018 A 
ATOM      3  C   LIG    1       24.113 -22.022   7.574  0.00  0.00    +0.006 A 
ATOM      4  C   LIG    1       23.103 -22.797   6.996  0.00  0.00    +0.000 A 
ATOM      5  C   LIG    1       23.392 -24.076   6.521  0.00  0.00    +0.000 A 
ATOM      6  C   LIG    1       24.687 -24.574   6.618  0.00  0.00    +0.000 A 
ATOM      7  C   LIG    1       25.696 -23.799   7.198  0.00  0.00    +0.006 A 
ENDBRANCH   1   2
BRANCH   1   9
ATOM      8  C   LIG    1       26.923 -20.344   6.201  0.00  0.00    +0.027 C 
ATOM      9  C   LIG    1       27.538 -20.974   7.445  0.00  0.00    +0.081 C 
BRANCH   9  10
ATOM     10  N   LIG    1       28.339 -19.988   8.203  0.00  0.00    -0.325 NA
ATOM     11  H   LIG    1       27.710 -19.407   8.758  0.00  0.00    +0.118 HD
ATOM     12  H   LIG    1       28.912 -20.491   8.885  0.00  0.00    +0.118 HD
ENDBRANCH   9  10
ENDBRANCH   1   9
BRANCH   1  13
ATOM     13  O   LIG    1       25.928 -20.731   9.236  0.00  0.00    -0.386 OA
ATOM     14  H   LIG    1       26.656 -20.466   9.834  0.00  0.00    +0.210 HD
ENDBRANCH   1  13
TORSDOF 4
ENDMDL
MODEL 6
REMARK VINA RESULT:      -6.3      4.775      5.612
REMARK  Name = *****
REMARK                            x       y       z     vdW  Elec       q    Type
REMARK                         _______ _______ _______ _____ _____    ______ ____
ROOT
ATOM      1  C   LIG    1       28.857 -20.338   6.350  0.00  0.00    +0.161 C 
ENDROOT
BRANCH   1   2
ATOM      2  C   LIG    1       27.400 -20.435   6.771  0.00  0.00    -0.018 A 
ATOM      3  C   LIG    1       27.020 -20.510   8.120  0.00  0.00    +0.006 A 
ATOM      4  C   LIG    1       25.678 -20.657   8.482  0.00  0.00    +0.000 A 
ATOM      5  C   LIG    1       24.694 -20.725   7.498  0.00  0.00    +0.000 A 
ATOM      6  C   LIG    1       25.050 -20.640   6.157  0.00  0.00    +0.000 A 
ATOM      7  C   LIG    1       26.392 -20.496   5.794  0.00  0.00    +0.006 A 
ENDBRANCH   1   2
BRANCH   1   9
ATOM      8  C   LIG    1       30.983 -19.116   7.201  0.00  0.00    +0.027 C 
ATOM      9  C   LIG    1       29.583 -18.982   6.613  0.00  0.00    +0.081 C 
BRANCH   9  10
ATOM     10  N   LIG    1       29.591 -18.132   5.403  0.00  0.00    -0.325 NA
ATOM     11  H   LIG    1       30.485 -17.642   5.347  0.00  0.00    +0.118 HD
ATOM     12  H   LIG    1       29.564 -18.739   4.580  0.00  0.00    +0.118 HD
ENDBRANCH   9  10
ENDBRANCH   1   9
BRANCH   1  13
ATOM     13  O   LIG    1       29.609 -21.371   7.009  0.00  0.00    -0.386 OA
ATOM     14  H   LIG    1       30.216 -20.884   7.604  0.00  0.00    +0.210 HD
ENDBRANCH   1  13
TORSDOF 4
ENDMDL
MODEL 7
REMARK VINA RESULT:      -6.2      2.682      4.227
REMARK  Name = *****
REMARK                            x       y       z     vdW  Elec       q    Type
REMARK                         _______ _______ _______ _____ _____    ______ ____
ROOT
ATOM      1  C   LIG    1       24.218 -20.916   5.021  0.00  0.00    +0.161 C 
ENDROOT
BRANCH   1   2
ATOM      2  C   LIG    1       25.259 -20.697   6.105  0.00  0.00    -0.018 A 
ATOM      3  C   LIG    1       26.595 -20.391   5.803  0.00  0.00    +0.006 A 
ATOM      4  C   LIG    1       27.548 -20.251   6.815  0.00  0.00    +0.000 A 
ATOM      5  C   LIG    1       27.177 -20.408   8.149  0.00  0.00    +0.000 A 
ATOM      6  C   LIG    1       25.855 -20.699   8.469  0.00  0.00    +0.000 A 
ATOM      7  C   LIG    1       24.902 -20.842   7.457  0.00  0.00    +0.006 A 
ENDBRANCH   1   2
BRANCH   1   9
ATOM      8  C   LIG    1       22.417 -19.064   4.761  0.00  0.00    +0.027 C 
ATOM      9  C   LIG    1       22.764 -20.437   5.324  0.00  0.00    +0.081 C 
BRANCH   9  10
ATOM     10  N   LIG    1       21.768 -21.450   4.914  0.00  0.00    -0.325 NA
ATOM     11  H   LIG    1       21.692 -21.448   3.896  0.00  0.00    +0.118 HD
ATOM     12  H   LIG    1       22.129 -22.377   5.155  0.00  0.00    +0.118 HD
ENDBRANCH   9  10
ENDBRANCH   1   9
BRANCH   1  13
ATOM     13  O   LIG    1       24.649 -20.264   3.814  0.00  0.00    -0.386 OA
ATOM     14  H   LIG    1       25.603 -20.094   3.959  0.00  0.00    +0.210 HD
ENDBRANCH   1  13
TORSDOF 4
ENDMDL
MODEL 8
REMARK VINA RESULT:      -6.1      3.243      4.740
REMARK  Name = *****
REMARK                            x       y       z     vdW  Elec       q    Type
REMARK                         _______ _______ _______ _____ _____    ______ ____
ROOT
ATOM      1  C   LIG    1       25.818 -21.228   6.888  0.00  0.00    +0.161 C 
ENDROOT
BRANCH   1   2
ATOM      2  C   LIG    1       25.166 -22.595   6.768  0.00  0.00    -0.018 A 
ATOM      3  C   LIG    1       25.922 -23.776   6.706  0.00  0.00    +0.006 A 
ATOM      4  C   LIG    1       25.304 -25.018   6.538  0.00  0.00    +0.000 A 
ATOM      5  C   LIG    1       23.917 -25.099   6.435  0.00  0.00    +0.000 A 
ATOM      6  C   LIG    1       23.150 -23.940   6.506  0.00  0.00    +0.000 A 
ATOM      7  C   LIG    1       23.768 -22.697   6.672  0.00  0.00    +0.006 A 
ENDBRANCH   1   2
BRANCH   1   9
ATOM      8  C   LIG    1       27.970 -20.107   7.809  0.00  0.00    +0.027 C 
ATOM      9  C   LIG    1       26.771 -21.000   8.103  0.00  0.00    +0.081 C 
BRANCH   9  10
ATOM     10  N   LIG    1       26.027 -20.524   9.289  0.00  0.00    -0.325 NA
ATOM     11  H   LIG    1       26.653 -20.523  10.095  0.00  0.00    +0.118 HD
ATOM     12  H   LIG    1       25.775 -19.544   9.143  0.00  0.00    +0.118 HD
ENDBRANCH   9  10
ENDBRANCH   1   9
BRANCH   1  13
ATOM     13  O   LIG    1       26.564 -20.954   5.691  0.00  0.00    -0.386 OA
ATOM     14  H   LIG    1       26.237 -20.078   5.399  0.00  0.00    +0.210 HD
ENDBRANCH   1  13
TORSDOF 4
ENDMDL
MODEL 9
REMARK VINA RESULT:      -6.1      3.521      4.340
REMARK  Name = *****
REMARK                            x       y       z     vdW  Elec       q    Type
REMARK                         _______ _______ _______ _____ _____    ______ ____
ROOT
ATOM      1  C   LIG    1       24.952 -25.443   5.708  0.00  0.00    +0.161 C 
ENDROOT
BRANCH   1   2
ATOM      2  C   LIG    1       24.804 -24.151   6.493  0.00  0.00    -0.018 A 
ATOM      3  C   LIG    1       23.577 -23.477   6.589  0.00  0.00    +0.006 A 
ATOM      4  C   LIG    1       23.476 -22.259   7.268  0.00  0.00    +0.000 A 
ATOM      5  C   LIG    1       24.603 -21.699   7.867  0.00  0.00    +0.000 A 
ATOM      6  C   LIG    1       25.825 -22.358   7.792  0.00  0.00    +0.000 A 
ATOM      7  C   LIG    1       25.927 -23.575   7.111  0.00  0.00    +0.006 A 
ENDBRANCH   1   2
BRANCH   1   9
ATOM      8  C   LIG    1       25.086 -27.869   6.623  0.00  0.00    +0.027 C 
ATOM      9  C   LIG    1       25.827 -26.566   6.348  0.00  0.00    +0.081 C 
BRANCH   9  10
ATOM     10  N   LIG    1       27.055 -26.806   5.560  0.00  0.00    -0.325 NA
ATOM     11  H   LIG    1       26.929 -27.647   4.996  0.00  0.00    +0.118 HD
ATOM     12  H   LIG    1       27.162 -26.043   4.886  0.00  0.00    +0.118 HD
ENDBRANCH   9  10
ENDBRANCH   1   9
BRANCH   1  13
ATOM     13  O   LIG    1       23.649 -25.996   5.457  0.00  0.00    -0.386 OA
ATOM     14  H   LIG    1       23.666 -26.866   5.907  0.00  0.00    +0.210 HD
ENDBRANCH   1  13
TORSDOF 4
ENDMDL
