MODEL 1
REMARK VINA RESULT:      -8.0      0.000      0.000
REMARK  Name = *****
REMARK                            x       y       z     vdW  Elec       q    Type
REMARK                         _______ _______ _______ _____ _____    ______ ____
ROOT
ATOM      1  O   LIG    1       26.732 -20.744   6.533  0.00  0.00    -0.489 OA
ENDROOT
BRANCH   1   2
ATOM      2  C   LIG    1       27.931 -20.092   6.363  0.00  0.00    +0.126 A 
ATOM      3  C   LIG    1       28.999 -20.435   7.213  0.00  0.00    +0.016 A 
ATOM      4  C   LIG    1       28.882 -21.445   8.329  0.00  0.00    +0.050 C 
ATOM      5  C   LIG    1       30.217 -22.111   8.629  0.00  0.00    +0.101 C 
ATOM      6  C   LIG    1       31.346 -21.114   8.772  0.00  0.00    +0.217 C 
ATOM      7  N   LIG    1       31.278 -20.015   7.954  0.00  0.00    -0.285 N 
ATOM      8  H   LIG    1       32.100 -19.426   7.959  0.00  0.00    +0.155 HD
ATOM      9  O   LIG    1       32.321 -21.311   9.480  0.00  0.00    -0.276 OA
ATOM     10  C   LIG    1       30.207 -19.723   7.107  0.00  0.00    +0.040 A 
ATOM     11  C   LIG    1       30.363 -18.698   6.178  0.00  0.00    +0.024 A 
ATOM     12  C   LIG    1       29.326 -18.405   5.301  0.00  0.00    +0.005 A 
ATOM     13  C   LIG    1       28.125 -19.111   5.379  0.00  0.00    +0.046 A 
ENDBRANCH   1   2
BRANCH   1  14
ATOM     14  C   LIG    1       25.690 -20.381   5.611  0.00  0.00    +0.261 C 
BRANCH  14  15
ATOM     15  C   LIG    1       24.309 -20.683   6.208  0.00  0.00    +0.166 C 
BRANCH  15  16
ATOM     16  O   LIG    1       24.409 -20.806   7.633  0.00  0.00    -0.387 OA
ATOM     17  H   LIG    1       24.972 -21.590   7.795  0.00  0.00    +0.210 HD
ENDBRANCH  15  16
BRANCH  15  18
ATOM     18  C   LIG    1       23.698 -21.972   5.612  0.00  0.00    +0.116 C 
BRANCH  18  19
ATOM     19  N   LIG    1       24.733 -22.905   5.111  0.00  0.00    -0.309 NA
ATOM     20  H   LIG    1       24.506 -23.160   4.147  0.00  0.00    +0.122 HD
BRANCH  19  22
ATOM     21  C   LIG    1       25.112 -25.357   4.948  0.00  0.00    +0.027 C 
ATOM     22  C   LIG    1       24.855 -24.165   5.880  0.00  0.00    +0.011 C 
ATOM     23  C   LIG    1       25.951 -24.087   6.959  0.00  0.00    +0.027 C 
ATOM     24  C   LIG    1       23.507 -24.400   6.596  0.00  0.00    +0.027 C 
ENDBRANCH  19  22
ENDBRANCH  18  19
ENDBRANCH  15  18
ENDBRANCH  14  15
ENDBRANCH   1  14
TORSDOF 7
ENDMDL
MODEL 2
REMARK VINA RESULT:      -7.9      2.397      3.887
REMARK  Name = *****
REMARK                            x       y       z     vdW  Elec       q    Type
REMARK                         _______ _______ _______ _____ _____    ______ ____
ROOT
ATOM      1  O   LIG    1       23.255 -20.808   7.154  0.00  0.00    -0.489 OA
ENDROOT
BRANCH   1   2
ATOM      2  C   LIG    1       23.985 -20.531   6.022  0.00  0.00    +0.126 A 
ATOM      3  C   LIG    1       25.381 -20.407   6.148  0.00  0.00    +0.016 A 
ATOM      4  C   LIG    1       26.110 -20.515   7.466  0.00  0.00    +0.050 C 
ATOM      5  C   LIG    1       27.538 -21.008   7.282  0.00  0.00    +0.101 C 
ATOM      6  C   LIG    1       28.276 -20.261   6.192  0.00  0.00    +0.217 C 
ATOM      7  N   LIG    1       27.519 -19.882   5.112  0.00  0.00    -0.285 N 
ATOM      8  H   LIG    1       28.043 -19.507   4.333  0.00  0.00    +0.155 HD
ATOM      9  O   LIG    1       29.486 -20.097   6.200  0.00  0.00    -0.276 OA
ATOM     10  C   LIG    1       26.135 -20.045   5.018  0.00  0.00    +0.040 A 
ATOM     11  C   LIG    1       25.528 -19.816   3.787  0.00  0.00    +0.024 A 
ATOM     12  C   LIG    1       24.157 -20.000   3.654  0.00  0.00    +0.005 A 
ATOM     13  C   LIG    1       23.393 -20.375   4.760  0.00  0.00    +0.046 A 
ENDBRANCH   1   2
BRANCH   1  14
ATOM     14  C   LIG    1       23.374 -22.151   7.658  0.00  0.00    +0.261 C 
BRANCH  14  15
ATOM     15  C   LIG    1       23.207 -23.172   6.524  0.00  0.00    +0.166 C 
BRANCH  15  16
ATOM     16  O   LIG    1       21.904 -23.766   6.590  0.00  0.00    -0.387 OA
ATOM     17  H   LIG    1       22.045 -24.731   6.506  0.00  0.00    +0.210 HD
ENDBRANCH  15  16
BRANCH  15  18
ATOM     18  C   LIG    1       24.289 -24.273   6.583  0.00  0.00    +0.116 C 
BRANCH  18  19
ATOM     19  N   LIG    1       23.827 -25.548   5.987  0.00  0.00    -0.309 NA
ATOM     20  H   LIG    1       23.086 -25.936   6.574  0.00  0.00    +0.122 HD
BRANCH  19  22
ATOM     21  C   LIG    1       24.298 -27.986   6.114  0.00  0.00    +0.027 C 
ATOM     22  C   LIG    1       24.875 -26.587   5.859  0.00  0.00    +0.011 C 
ATOM     23  C   LIG    1       25.578 -26.543   4.490  0.00  0.00    +0.027 C 
ATOM     24  C   LIG    1       25.938 -26.304   6.943  0.00  0.00    +0.027 C 
ENDBRANCH  19  22
ENDBRANCH  18  19
ENDBRANCH  15  18
ENDBRANCH  14  15
ENDBRANCH   1  14
TORSDOF 7
ENDMDL
MODEL 3
REMARK VINA RESULT:      -7.8      2.166      6.844
REMARK  Name = *****
REMARK                            x       y       z     vdW  Elec       q    Type
REMARK                         _______ _______ _______ _____ _____    ______ ____
ROOT
ATOM      1  O   LIG    1       26.436 -21.839   7.524  0.00  0.00    -0.489 OA
ENDROOT
BRANCH   1   2
ATOM      2  C   LIG    1       25.173 -22.339   7.313  0.00  0.00    +0.126 A 
ATOM      3  C   LIG    1       25.053 -23.663   6.850  0.00  0.00    +0.016 A 
ATOM      4  C   LIG    1       26.237 -24.542   6.529  0.00  0.00    +0.050 C 
ATOM      5  C   LIG    1       25.909 -26.018   6.708  0.00  0.00    +0.101 C 
ATOM      6  C   LIG    1       24.610 -26.411   6.040  0.00  0.00    +0.217 C 
ATOM      7  N   LIG    1       23.618 -25.463   6.062  0.00  0.00    -0.285 N 
ATOM      8  H   LIG    1       22.715 -25.781   5.736  0.00  0.00    +0.155 HD
ATOM      9  O   LIG    1       24.398 -27.532   5.605  0.00  0.00    -0.276 OA
ATOM     10  C   LIG    1       23.773 -24.165   6.552  0.00  0.00    +0.040 A 
ATOM     11  C   LIG    1       22.634 -23.382   6.713  0.00  0.00    +0.024 A 
ATOM     12  C   LIG    1       22.753 -22.097   7.228  0.00  0.00    +0.005 A 
ATOM     13  C   LIG    1       24.013 -21.586   7.546  0.00  0.00    +0.046 A 
ENDBRANCH   1   2
BRANCH   1  14
ATOM     14  C   LIG    1       26.572 -20.414   7.389  0.00  0.00    +0.261 C 
BRANCH  14  15
ATOM     15  C   LIG    1       27.586 -20.067   6.291  0.00  0.00    +0.166 C 
BRANCH  15  16
ATOM     16  O   LIG    1       27.059 -20.429   5.008  0.00  0.00    -0.387 OA
ATOM     17  H   LIG    1       27.151 -19.633   4.446  0.00  0.00    +0.210 HD
ENDBRANCH  15  16
BRANCH  15  18
ATOM     18  C   LIG    1       28.940 -20.773   6.520  0.00  0.00    +0.116 C 
BRANCH  18  19
ATOM     19  N   LIG    1       29.374 -20.714   7.934  0.00  0.00    -0.309 NA
ATOM     20  H   LIG    1       28.567 -20.480   8.517  0.00  0.00    +0.122 HD
BRANCH  19  22
ATOM     21  C   LIG    1       31.166 -19.309   6.936  0.00  0.00    +0.027 C 
ATOM     22  C   LIG    1       30.424 -19.708   8.218  0.00  0.00    +0.011 C 
ATOM     23  C   LIG    1       29.862 -18.458   8.918  0.00  0.00    +0.027 C 
ATOM     24  C   LIG    1       31.443 -20.364   9.175  0.00  0.00    +0.027 C 
ENDBRANCH  19  22
ENDBRANCH  18  19
ENDBRANCH  15  18
ENDBRANCH  14  15
ENDBRANCH   1  14
TORSDOF 7
ENDMDL
MODEL 4
REMARK VINA RESULT:      -7.7      2.602      7.585
REMARK  Name = *****
REMARK                            x       y       z     vdW  Elec       q    Type
REMARK                         _______ _______ _______ _____ _____    ______ ____
ROOT
ATOM      1  O   LIG    1       28.658 -20.579   6.516  0.00  0.00    -0.489 OA
ENDROOT
BRANCH   1   2
ATOM      2  C   LIG    1       27.401 -20.928   6.950  0.00  0.00    +0.126 A 
ATOM      3  C   LIG    1       26.299 -20.546   6.162  0.00  0.00    +0.016 A 
ATOM      4  C   LIG    1       26.423 -19.734   4.896  0.00  0.00    +0.050 C 
ATOM      5  C   LIG    1       25.282 -20.019   3.929  0.00  0.00    +0.101 C 
ATOM      6  C   LIG    1       23.927 -19.972   4.599  0.00  0.00    +0.217 C 
ATOM      7  N   LIG    1       23.884 -20.432   5.890  0.00  0.00    -0.285 N 
ATOM      8  H   LIG    1       22.955 -20.523   6.282  0.00  0.00    +0.155 HD
ATOM      9  O   LIG    1       22.905 -19.657   4.010  0.00  0.00    -0.276 OA
ATOM     10  C   LIG    1       25.001 -20.823   6.630  0.00  0.00    +0.040 A 
ATOM     11  C   LIG    1       24.794 -21.470   7.845  0.00  0.00    +0.024 A 
ATOM     12  C   LIG    1       25.887 -21.899   8.588  0.00  0.00    +0.005 A 
ATOM     13  C   LIG    1       27.182 -21.648   8.133  0.00  0.00    +0.046 A 
ENDBRANCH   1   2
BRANCH   1  14
ATOM     14  C   LIG    1       29.307 -19.536   7.264  0.00  0.00    +0.261 C 
BRANCH  14  15
ATOM     15  C   LIG    1       30.646 -20.026   7.830  0.00  0.00    +0.166 C 
BRANCH  15  16
ATOM     16  O   LIG    1       30.422 -20.785   9.025  0.00  0.00    -0.387 OA
ATOM     17  H   LIG    1       31.046 -21.538   8.985  0.00  0.00    +0.210 HD
ENDBRANCH  15  16
BRANCH  15  18
ATOM     18  C   LIG    1       31.606 -18.853   8.126  0.00  0.00    +0.116 C 
BRANCH  18  19
ATOM     19  N   LIG    1       31.871 -18.694   9.574  0.00  0.00    -0.309 NA
ATOM     20  H   LIG    1       31.268 -19.336  10.092  0.00  0.00    +0.122 HD
BRANCH  19  22
ATOM     21  C   LIG    1       31.574 -17.340  11.639  0.00  0.00    +0.027 C 
ATOM     22  C   LIG    1       31.619 -17.334  10.104  0.00  0.00    +0.011 C 
ATOM     23  C   LIG    1       32.656 -16.311   9.607  0.00  0.00    +0.027 C 
ATOM     24  C   LIG    1       30.234 -16.889   9.588  0.00  0.00    +0.027 C 
ENDBRANCH  19  22
ENDBRANCH  18  19
ENDBRANCH  15  18
ENDBRANCH  14  15
ENDBRANCH   1  14
TORSDOF 7
ENDMDL
MODEL 5
REMARK VINA RESULT:      -7.7      2.422      7.133
REMARK  Name = *****
REMARK                            x       y       z     vdW  Elec       q    Type
REMARK                         _______ _______ _______ _____ _____    ______ ____
ROOT
ATOM      1  O   LIG    1       29.108 -20.231   8.463  0.00  0.00    -0.489 OA
ENDROOT
BRANCH   1   2
ATOM      2  C   LIG    1       28.316 -20.070   7.350  0.00  0.00    +0.126 A 
ATOM      3  C   LIG    1       27.017 -20.611   7.378  0.00  0.00    +0.016 A 
ATOM      4  C   LIG    1       26.468 -21.397   8.543  0.00  0.00    +0.050 C 
ATOM      5  C   LIG    1       24.953 -21.285   8.636  0.00  0.00    +0.101 C 
ATOM      6  C   LIG    1       24.269 -21.530   7.309  0.00  0.00    +0.217 C 
ATOM      7  N   LIG    1       24.940 -21.080   6.201  0.00  0.00    -0.285 N 
ATOM      8  H   LIG    1       24.418 -21.126   5.335  0.00  0.00    +0.155 HD
ATOM      9  O   LIG    1       23.143 -21.993   7.217  0.00  0.00    -0.276 OA
ATOM     10  C   LIG    1       26.223 -20.527   6.220  0.00  0.00    +0.040 A 
ATOM     11  C   LIG    1       26.694 -19.917   5.062  0.00  0.00    +0.024 A 
ATOM     12  C   LIG    1       27.954 -19.331   5.061  0.00  0.00    +0.005 A 
ATOM     13  C   LIG    1       28.752 -19.389   6.204  0.00  0.00    +0.046 A 
ENDBRANCH   1   2
BRANCH   1  14
ATOM     14  C   LIG    1       30.044 -21.322   8.409  0.00  0.00    +0.261 C 
BRANCH  14  15
ATOM     15  C   LIG    1       31.487 -20.799   8.424  0.00  0.00    +0.166 C 
BRANCH  15  16
ATOM     16  O   LIG    1       32.210 -21.392   9.510  0.00  0.00    -0.387 OA
ATOM     17  H   LIG    1       32.466 -20.651  10.097  0.00  0.00    +0.210 HD
ENDBRANCH  15  16
BRANCH  15  18
ATOM     18  C   LIG    1       31.536 -19.259   8.540  0.00  0.00    +0.116 C 
BRANCH  18  19
ATOM     19  N   LIG    1       31.843 -18.808   9.917  0.00  0.00    -0.309 NA
ATOM     20  H   LIG    1       31.289 -19.359  10.575  0.00  0.00    +0.122 HD
BRANCH  19  22
ATOM     21  C   LIG    1       31.422 -17.115  11.688  0.00  0.00    +0.027 C 
ATOM     22  C   LIG    1       31.546 -17.382  10.182  0.00  0.00    +0.011 C 
ATOM     23  C   LIG    1       32.593 -16.441   9.559  0.00  0.00    +0.027 C 
ATOM     24  C   LIG    1       30.183 -17.066   9.528  0.00  0.00    +0.027 C 
ENDBRANCH  19  22
ENDBRANCH  18  19
ENDBRANCH  15  18
ENDBRANCH  14  15
ENDBRANCH   1  14
TORSDOF 7
ENDMDL
MODEL 6
REMARK VINA RESULT:      -7.6      2.001      6.567
REMARK  Name = *****
REMARK                            x       y       z     vdW  Elec       q    Type
REMARK                         _______ _______ _______ _____ _____    ______ ____
ROOT
ATOM      1  O   LIG    1       25.197 -21.379   8.666  0.00  0.00    -0.489 OA
ENDROOT
BRANCH   1   2
ATOM      2  C   LIG    1       24.643 -21.523   7.415  0.00  0.00    +0.126 A 
ATOM      3  C   LIG    1       24.936 -22.695   6.693  0.00  0.00    +0.016 A 
ATOM      4  C   LIG    1       25.862 -23.775   7.199  0.00  0.00    +0.050 C 
ATOM      5  C   LIG    1       25.507 -25.138   6.623  0.00  0.00    +0.101 C 
ATOM      6  C   LIG    1       25.311 -25.103   5.123  0.00  0.00    +0.217 C 
ATOM      7  N   LIG    1       24.741 -23.959   4.623  0.00  0.00    -0.285 N 
ATOM      8  H   LIG    1       24.490 -23.998   3.644  0.00  0.00    +0.155 HD
ATOM      9  O   LIG    1       25.532 -26.062   4.401  0.00  0.00    -0.276 OA
ATOM     10  C   LIG    1       24.445 -22.824   5.381  0.00  0.00    +0.040 A 
ATOM     11  C   LIG    1       23.675 -21.824   4.796  0.00  0.00    +0.024 A 
ATOM     12  C   LIG    1       23.338 -20.697   5.536  0.00  0.00    +0.005 A 
ATOM     13  C   LIG    1       23.802 -20.557   6.844  0.00  0.00    +0.046 A 
ENDBRANCH   1   2
BRANCH   1  14
ATOM     14  C   LIG    1       26.240 -20.394   8.775  0.00  0.00    +0.261 C 
BRANCH  14  15
ATOM     15  C   LIG    1       27.488 -20.838   8.000  0.00  0.00    +0.166 C 
BRANCH  15  16
ATOM     16  O   LIG    1       28.221 -21.802   8.767  0.00  0.00    -0.387 OA
ATOM     17  H   LIG    1       27.818 -22.670   8.563  0.00  0.00    +0.210 HD
ENDBRANCH  15  16
BRANCH  15  18
ATOM     18  C   LIG    1       28.401 -19.642   7.651  0.00  0.00    +0.116 C 
BRANCH  18  19
ATOM     19  N   LIG    1       29.339 -19.311   8.748  0.00  0.00    -0.309 NA
ATOM     20  H   LIG    1       29.180 -18.343   9.037  0.00  0.00    +0.122 HD
BRANCH  19  22
ATOM     21  C   LIG    1       31.593 -18.299   9.023  0.00  0.00    +0.027 C 
ATOM     22  C   LIG    1       30.772 -19.433   8.395  0.00  0.00    +0.011 C 
ATOM     23  C   LIG    1       31.358 -20.799   8.794  0.00  0.00    +0.027 C 
ATOM     24  C   LIG    1       30.880 -19.306   6.860  0.00  0.00    +0.027 C 
ENDBRANCH  19  22
ENDBRANCH  18  19
ENDBRANCH  15  18
ENDBRANCH  14  15
ENDBRANCH   1  14
TORSDOF 7
ENDMDL
MODEL 7
REMARK VINA RESULT:      -7.5      2.858      6.290
REMARK  Name = *****
REMARK                            x       y       z     vdW  Elec       q    Type
REMARK                         _______ _______ _______ _____ _____    ______ ____
ROOT
ATOM      1  O   LIG    1       26.515 -22.413   7.784  0.00  0.00    -0.489 OA
ENDROOT
BRANCH   1   2
ATOM      2  C   LIG    1       25.243 -22.819   7.455  0.00  0.00    +0.126 A 
ATOM      3  C   LIG    1       25.084 -24.089   6.871  0.00  0.00    +0.016 A 
ATOM      4  C   LIG    1       26.238 -25.005   6.543  0.00  0.00    +0.050 C 
ATOM      5  C   LIG    1       25.823 -26.469   6.570  0.00  0.00    +0.101 C 
ATOM      6  C   LIG    1       24.550 -26.727   5.795  0.00  0.00    +0.217 C 
ATOM      7  N   LIG    1       23.610 -25.729   5.843  0.00  0.00    -0.285 N 
ATOM      8  H   LIG    1       22.713 -25.965   5.437  0.00  0.00    +0.155 HD
ATOM      9  O   LIG    1       24.308 -27.793   5.250  0.00  0.00    -0.276 OA
ATOM     10  C   LIG    1       23.801 -24.489   6.455  0.00  0.00    +0.040 A 
ATOM     11  C   LIG    1       22.696 -23.658   6.618  0.00  0.00    +0.024 A 
ATOM     12  C   LIG    1       22.850 -22.431   7.251  0.00  0.00    +0.005 A 
ATOM     13  C   LIG    1       24.112 -22.022   7.686  0.00  0.00    +0.046 A 
ENDBRANCH   1   2
BRANCH   1  14
ATOM     14  C   LIG    1       26.748 -20.994   7.731  0.00  0.00    +0.261 C 
BRANCH  14  15
ATOM     15  C   LIG    1       27.591 -20.629   6.501  0.00  0.00    +0.166 C 
BRANCH  15  16
ATOM     16  O   LIG    1       28.523 -19.593   6.838  0.00  0.00    -0.387 OA
ATOM     17  H   LIG    1       29.108 -19.496   6.059  0.00  0.00    +0.210 HD
ENDBRANCH  15  16
BRANCH  15  18
ATOM     18  C   LIG    1       26.708 -20.175   5.317  0.00  0.00    +0.116 C 
BRANCH  18  19
ATOM     19  N   LIG    1       25.279 -20.071   5.689  0.00  0.00    -0.309 NA
ATOM     20  H   LIG    1       25.019 -20.896   6.232  0.00  0.00    +0.122 HD
BRANCH  19  22
ATOM     21  C   LIG    1       22.939 -19.580   5.002  0.00  0.00    +0.027 C 
ATOM     22  C   LIG    1       24.345 -19.990   4.542  0.00  0.00    +0.011 C 
ATOM     23  C   LIG    1       24.846 -19.032   3.446  0.00  0.00    +0.027 C 
ATOM     24  C   LIG    1       24.252 -21.402   3.924  0.00  0.00    +0.027 C 
ENDBRANCH  19  22
ENDBRANCH  18  19
ENDBRANCH  15  18
ENDBRANCH  14  15
ENDBRANCH   1  14
TORSDOF 7
ENDMDL
MODEL 8
REMARK VINA RESULT:      -7.4      2.600      7.388
REMARK  Name = *****
REMARK                            x       y       z     vdW  Elec       q    Type
REMARK                         _______ _______ _______ _____ _____    ______ ____
ROOT
ATOM      1  O   LIG    1       27.078 -22.266   7.513  0.00  0.00    -0.489 OA
ENDROOT
BRANCH   1   2
ATOM      2  C   LIG    1       25.737 -22.515   7.334  0.00  0.00    +0.126 A 
ATOM      3  C   LIG    1       25.358 -23.782   6.850  0.00  0.00    +0.016 A 
ATOM      4  C   LIG    1       26.346 -24.859   6.474  0.00  0.00    +0.050 C 
ATOM      5  C   LIG    1       25.752 -26.251   6.636  0.00  0.00    +0.101 C 
ATOM      6  C   LIG    1       24.383 -26.377   6.003  0.00  0.00    +0.217 C 
ATOM      7  N   LIG    1       23.588 -25.261   6.076  0.00  0.00    -0.285 N 
ATOM      8  H   LIG    1       22.632 -25.396   5.773  0.00  0.00    +0.155 HD
ATOM      9  O   LIG    1       23.952 -27.427   5.554  0.00  0.00    -0.276 OA
ATOM     10  C   LIG    1       23.998 -24.027   6.585  0.00  0.00    +0.040 A 
ATOM     11  C   LIG    1       23.032 -23.049   6.798  0.00  0.00    +0.024 A 
ATOM     12  C   LIG    1       23.406 -21.822   7.333  0.00  0.00    +0.005 A 
ATOM     13  C   LIG    1       24.747 -21.564   7.618  0.00  0.00    +0.046 A 
ENDBRANCH   1   2
BRANCH   1  14
ATOM     14  C   LIG    1       27.454 -20.878   7.545  0.00  0.00    +0.261 C 
BRANCH  14  15
ATOM     15  C   LIG    1       28.980 -20.731   7.609  0.00  0.00    +0.166 C 
BRANCH  15  16
ATOM     16  O   LIG    1       29.498 -21.486   8.712  0.00  0.00    -0.387 OA
ATOM     17  H   LIG    1       28.956 -21.233   9.487  0.00  0.00    +0.210 HD
ENDBRANCH  15  16
BRANCH  15  18
ATOM     18  C   LIG    1       29.407 -19.252   7.740  0.00  0.00    +0.116 C 
BRANCH  18  19
ATOM     19  N   LIG    1       29.386 -18.783   9.145  0.00  0.00    -0.309 NA
ATOM     20  H   LIG    1       28.569 -18.184   9.280  0.00  0.00    +0.122 HD
BRANCH  19  22
ATOM     21  C   LIG    1       31.868 -18.657   9.050  0.00  0.00    +0.027 C 
ATOM     22  C   LIG    1       30.575 -18.000   9.553  0.00  0.00    +0.011 C 
ATOM     23  C   LIG    1       30.503 -16.537   9.079  0.00  0.00    +0.027 C 
ATOM     24  C   LIG    1       30.613 -17.992  11.097  0.00  0.00    +0.027 C 
ENDBRANCH  19  22
ENDBRANCH  18  19
ENDBRANCH  15  18
ENDBRANCH  14  15
ENDBRANCH   1  14
TORSDOF 7
ENDMDL
MODEL 9
REMARK VINA RESULT:      -7.4      2.255      3.727
REMARK  Name = *****
REMARK                            x       y       z     vdW  Elec       q    Type
REMARK                         _______ _______ _______ _____ _____    ______ ____
ROOT
ATOM      1  O   LIG    1       23.829 -21.486   6.866  0.00  0.00    -0.489 OA
ENDROOT
BRANCH   1   2
ATOM      2  C   LIG    1       24.522 -20.814   5.887  0.00  0.00    +0.126 A 
ATOM      3  C   LIG    1       25.893 -20.572   6.094  0.00  0.00    +0.016 A 
ATOM      4  C   LIG    1       26.627 -20.969   7.351  0.00  0.00    +0.050 C 
ATOM      5  C   LIG    1       28.105 -21.221   7.086  0.00  0.00    +0.101 C 
ATOM      6  C   LIG    1       28.749 -20.114   6.281  0.00  0.00    +0.217 C 
ATOM      7  N   LIG    1       27.954 -19.530   5.328  0.00  0.00    -0.285 N 
ATOM      8  H   LIG    1       28.430 -18.889   4.706  0.00  0.00    +0.155 HD
ATOM      9  O   LIG    1       29.930 -19.821   6.379  0.00  0.00    -0.276 OA
ATOM     10  C   LIG    1       26.600 -19.816   5.141  0.00  0.00    +0.040 A 
ATOM     11  C   LIG    1       25.972 -19.316   4.005  0.00  0.00    +0.024 A 
ATOM     12  C   LIG    1       24.633 -19.610   3.776  0.00  0.00    +0.005 A 
ATOM     13  C   LIG    1       23.918 -20.372   4.701  0.00  0.00    +0.046 A 
ENDBRANCH   1   2
BRANCH   1  14
ATOM     14  C   LIG    1       23.255 -22.745   6.470  0.00  0.00    +0.261 C 
BRANCH  14  15
ATOM     15  C   LIG    1       24.355 -23.783   6.209  0.00  0.00    +0.166 C 
BRANCH  15  16
ATOM     16  O   LIG    1       24.727 -23.762   4.825  0.00  0.00    -0.387 OA
ATOM     17  H   LIG    1       24.411 -22.904   4.475  0.00  0.00    +0.210 HD
ENDBRANCH  15  16
BRANCH  15  18
ATOM     18  C   LIG    1       23.904 -25.206   6.609  0.00  0.00    +0.116 C 
BRANCH  18  19
ATOM     19  N   LIG    1       23.914 -26.142   5.462  0.00  0.00    -0.309 NA
ATOM     20  H   LIG    1       22.999 -26.594   5.398  0.00  0.00    +0.122 HD
BRANCH  19  22
ATOM     21  C   LIG    1       24.277 -28.602   5.423  0.00  0.00    +0.027 C 
ATOM     22  C   LIG    1       24.929 -27.218   5.549  0.00  0.00    +0.011 C 
ATOM     23  C   LIG    1       26.043 -27.057   4.500  0.00  0.00    +0.027 C 
ATOM     24  C   LIG    1       25.580 -27.123   6.946  0.00  0.00    +0.027 C 
ENDBRANCH  19  22
ENDBRANCH  18  19
ENDBRANCH  15  18
ENDBRANCH  14  15
ENDBRANCH   1  14
TORSDOF 7
ENDMDL
