MODEL 1
REMARK VINA RESULT:      -5.6      0.000      0.000
REMARK  Name = *****
REMARK                            x       y       z     vdW  Elec       q    Type
REMARK                         _______ _______ _______ _____ _____    ______ ____
ROOT
ATOM      1  C   LIG    1       23.367 -19.160   4.132  0.00  0.00    -0.047 A 
ATOM      2  C   LIG    1       22.392 -18.241   4.525  0.00  0.00    +0.004 A 
ATOM      3  C   LIG    1       22.646 -16.870   4.480  0.00  0.00    +0.004 A 
ATOM      4  C   LIG    1       23.895 -16.398   4.045  0.00  0.00    -0.047 A 
ATOM      5  C   LIG    1       24.876 -17.317   3.673  0.00  0.00    +0.004 A 
ATOM      6  C   LIG    1       24.623 -18.688   3.718  0.00  0.00    +0.004 A 
ENDROOT
BRANCH   1   7
ATOM      7  C   LIG    1       23.103 -20.642   4.184  0.00  0.00    +0.035 C 
BRANCH   7   8
ATOM      8  C   LIG    1       22.430 -21.023   5.500  0.00  0.00    +0.005 C 
BRANCH   8   9
ATOM      9  C   LIG    1       23.298 -20.663   6.706  0.00  0.00    +0.000 C 
BRANCH   9  10
ATOM     10  C   LIG    1       24.602 -21.464   6.740  0.00  0.00    +0.000 C 
BRANCH  10  11
ATOM     11  C   LIG    1       25.813 -20.588   7.061  0.00  0.00    -0.000 C 
BRANCH  11  12
ATOM     12  C   LIG    1       26.773 -20.493   5.881  0.00  0.00    -0.000 C 
BRANCH  12  14
ATOM     13  C   LIG    1       29.020 -20.903   6.928  0.00  0.00    +0.004 C 
ATOM     14  C   LIG    1       28.096 -19.865   6.314  0.00  0.00    -0.003 C 
ENDBRANCH  12  14
ENDBRANCH  11  12
ENDBRANCH  10  11
ENDBRANCH   9  10
ENDBRANCH   8   9
ENDBRANCH   7   8
ENDBRANCH   1   7
BRANCH   4  15
ATOM     15  C   LIG    1       24.157 -14.916   3.951  0.00  0.00    +0.037 C 
BRANCH  15  16
ATOM     16  C   LIG    1       25.321 -14.618   2.994  0.00  0.00    +0.031 C 
BRANCH  16  17
ATOM     17  C   LIG    1       26.382 -13.631   3.547  0.00  0.00    +0.064 C 
BRANCH  17  18
ATOM     18  N   LIG    1       26.533 -12.513   2.563  0.00  0.00    -0.321 NA
ATOM     19  H   LIG    1       27.431 -12.623   2.083  0.00  0.00    +0.119 HD
ATOM     20  H   LIG    1       25.842 -12.641   1.821  0.00  0.00    +0.119 HD
ENDBRANCH  17  18
BRANCH  17  21
ATOM     21  C   LIG    1       27.767 -14.310   3.690  0.00  0.00    +0.180 C 
BRANCH  21  22
ATOM     22  O   LIG    1       28.815 -13.343   3.637  0.00  0.00    -0.393 OA
ATOM     23  H   LIG    1       28.808 -13.005   2.719  0.00  0.00    +0.209 HD
ENDBRANCH  21  22
ENDBRANCH  17  21
BRANCH  17  24
ATOM     24  C   LIG    1       25.943 -13.016   4.901  0.00  0.00    +0.180 C 
BRANCH  24  25
ATOM     25  O   LIG    1       26.911 -13.286   5.917  0.00  0.00    -0.393 OA
ATOM     26  H   LIG    1       26.411 -13.340   6.750  0.00  0.00    +0.209 HD
ENDBRANCH  24  25
ENDBRANCH  17  24
ENDBRANCH  16  17
ENDBRANCH  15  16
ENDBRANCH   4  15
TORSDOF 15
ENDMDL
MODEL 2
REMARK VINA RESULT:      -5.2      1.442      3.628
REMARK  Name = *****
REMARK                            x       y       z     vdW  Elec       q    Type
REMARK                         _______ _______ _______ _____ _____    ______ ____
ROOT
ATOM      1  C   LIG    1       26.120 -20.073   4.863  0.00  0.00    -0.047 A 
ATOM      2  C   LIG    1       27.287 -19.443   5.301  0.00  0.00    +0.004 A 
ATOM      3  C   LIG    1       27.642 -18.184   4.815  0.00  0.00    +0.004 A 
ATOM      4  C   LIG    1       26.830 -17.539   3.868  0.00  0.00    -0.047 A 
ATOM      5  C   LIG    1       25.676 -18.178   3.415  0.00  0.00    +0.004 A 
ATOM      6  C   LIG    1       25.320 -19.437   3.900  0.00  0.00    +0.004 A 
ENDROOT
BRANCH   1   7
ATOM      7  C   LIG    1       25.734 -21.435   5.377  0.00  0.00    +0.035 C 
BRANCH   7   8
ATOM      8  C   LIG    1       25.281 -21.353   6.831  0.00  0.00    +0.005 C 
BRANCH   8   9
ATOM      9  C   LIG    1       23.842 -20.848   6.950  0.00  0.00    +0.000 C 
BRANCH   9  10
ATOM     10  C   LIG    1       22.894 -21.571   5.990  0.00  0.00    +0.000 C 
BRANCH  10  11
ATOM     11  C   LIG    1       22.206 -20.610   5.020  0.00  0.00    -0.000 C 
BRANCH  11  12
ATOM     12  C   LIG    1       22.407 -19.155   5.425  0.00  0.00    -0.000 C 
BRANCH  12  14
ATOM     13  C   LIG    1       22.333 -16.781   4.606  0.00  0.00    +0.004 C 
ATOM     14  C   LIG    1       21.941 -18.219   4.312  0.00  0.00    -0.003 C 
ENDBRANCH  12  14
ENDBRANCH  11  12
ENDBRANCH  10  11
ENDBRANCH   9  10
ENDBRANCH   8   9
ENDBRANCH   7   8
ENDBRANCH   1   7
BRANCH   4  15
ATOM     15  C   LIG    1       27.186 -16.158   3.376  0.00  0.00    +0.037 C 
BRANCH  15  16
ATOM     16  C   LIG    1       25.958 -15.235   3.376  0.00  0.00    +0.031 C 
BRANCH  16  17
ATOM     17  C   LIG    1       26.277 -13.729   3.556  0.00  0.00    +0.064 C 
BRANCH  17  18
ATOM     18  N   LIG    1       27.634 -13.469   2.979  0.00  0.00    -0.321 NA
ATOM     19  H   LIG    1       27.874 -12.488   3.143  0.00  0.00    +0.119 HD
ATOM     20  H   LIG    1       28.323 -13.985   3.530  0.00  0.00    +0.119 HD
ENDBRANCH  17  18
BRANCH  17  21
ATOM     21  C   LIG    1       26.331 -13.336   5.053  0.00  0.00    +0.180 C 
BRANCH  21  22
ATOM     22  O   LIG    1       27.608 -12.795   5.392  0.00  0.00    -0.393 OA
ATOM     23  H   LIG    1       28.232 -13.545   5.322  0.00  0.00    +0.209 HD
ENDBRANCH  21  22
ENDBRANCH  17  21
BRANCH  17  24
ATOM     24  C   LIG    1       25.261 -12.832   2.801  0.00  0.00    +0.180 C 
BRANCH  24  25
ATOM     25  O   LIG    1       24.124 -12.555   3.622  0.00  0.00    -0.393 OA
ATOM     26  H   LIG    1       24.122 -11.590   3.751  0.00  0.00    +0.209 HD
ENDBRANCH  24  25
ENDBRANCH  17  24
ENDBRANCH  16  17
ENDBRANCH  15  16
ENDBRANCH   4  15
TORSDOF 15
ENDMDL
MODEL 3
REMARK VINA RESULT:      -4.4      1.993      3.895
REMARK  Name = *****
REMARK                            x       y       z     vdW  Elec       q    Type
REMARK                         _______ _______ _______ _____ _____    ______ ____
ROOT
ATOM      1  C   LIG    1       26.499 -19.325   4.511  0.00  0.00    -0.047 A 
ATOM      2  C   LIG    1       27.676 -18.672   4.881  0.00  0.00    +0.004 A 
ATOM      3  C   LIG    1       27.923 -17.362   4.470  0.00  0.00    +0.004 A 
ATOM      4  C   LIG    1       26.988 -16.685   3.669  0.00  0.00    -0.047 A 
ATOM      5  C   LIG    1       25.822 -17.346   3.282  0.00  0.00    +0.004 A 
ATOM      6  C   LIG    1       25.575 -18.656   3.692  0.00  0.00    +0.004 A 
ENDROOT
BRANCH   1   7
ATOM      7  C   LIG    1       26.228 -20.742   4.943  0.00  0.00    +0.035 C 
BRANCH   7   8
ATOM      8  C   LIG    1       26.342 -20.874   6.459  0.00  0.00    +0.005 C 
BRANCH   8   9
ATOM      9  C   LIG    1       25.115 -21.561   7.062  0.00  0.00    +0.000 C 
BRANCH   9  10
ATOM     10  C   LIG    1       23.858 -20.693   6.960  0.00  0.00    +0.000 C 
BRANCH  10  11
ATOM     11  C   LIG    1       22.772 -21.343   6.102  0.00  0.00    -0.000 C 
BRANCH  11  12
ATOM     12  C   LIG    1       22.720 -20.744   4.703  0.00  0.00    -0.000 C 
BRANCH  12  14
ATOM     13  C   LIG    1       22.301 -18.278   4.463  0.00  0.00    +0.004 C 
ATOM     14  C   LIG    1       21.662 -19.646   4.627  0.00  0.00    -0.003 C 
ENDBRANCH  12  14
ENDBRANCH  11  12
ENDBRANCH  10  11
ENDBRANCH   9  10
ENDBRANCH   8   9
ENDBRANCH   7   8
ENDBRANCH   1   7
BRANCH   4  15
ATOM     15  C   LIG    1       27.230 -15.253   3.263  0.00  0.00    +0.037 C 
BRANCH  15  16
ATOM     16  C   LIG    1       25.924 -14.573   2.824  0.00  0.00    +0.031 C 
BRANCH  16  17
ATOM     17  C   LIG    1       25.328 -13.582   3.857  0.00  0.00    +0.064 C 
BRANCH  17  18
ATOM     18  N   LIG    1       26.426 -13.163   4.785  0.00  0.00    -0.321 NA
ATOM     19  H   LIG    1       26.931 -12.383   4.357  0.00  0.00    +0.119 HD
ATOM     20  H   LIG    1       26.003 -12.752   5.619  0.00  0.00    +0.119 HD
ENDBRANCH  17  18
BRANCH  17  21
ATOM     21  C   LIG    1       24.229 -14.253   4.716  0.00  0.00    +0.180 C 
BRANCH  21  22
ATOM     22  O   LIG    1       23.265 -14.907   3.891  0.00  0.00    -0.393 OA
ATOM     23  H   LIG    1       22.490 -15.056   4.468  0.00  0.00    +0.209 HD
ENDBRANCH  21  22
ENDBRANCH  17  21
BRANCH  17  24
ATOM     24  C   LIG    1       24.772 -12.306   3.173  0.00  0.00    +0.180 C 
BRANCH  24  25
ATOM     25  O   LIG    1       23.664 -12.627   2.329  0.00  0.00    -0.393 OA
ATOM     26  H   LIG    1       23.583 -13.597   2.358  0.00  0.00    +0.209 HD
ENDBRANCH  24  25
ENDBRANCH  17  24
ENDBRANCH  16  17
ENDBRANCH  15  16
ENDBRANCH   4  15
TORSDOF 15
ENDMDL
MODEL 4
REMARK VINA RESULT:      -4.3      3.655      7.262
REMARK  Name = *****
REMARK                            x       y       z     vdW  Elec       q    Type
REMARK                         _______ _______ _______ _____ _____    ______ ____
ROOT
ATOM      1  C   LIG    1       26.950 -16.685   3.836  0.00  0.00    -0.047 A 
ATOM      2  C   LIG    1       25.712 -17.000   3.272  0.00  0.00    +0.004 A 
ATOM      3  C   LIG    1       25.203 -18.296   3.350  0.00  0.00    +0.004 A 
ATOM      4  C   LIG    1       25.938 -19.305   3.993  0.00  0.00    -0.047 A 
ATOM      5  C   LIG    1       27.184 -18.995   4.538  0.00  0.00    +0.004 A 
ATOM      6  C   LIG    1       27.695 -17.700   4.459  0.00  0.00    +0.004 A 
ENDROOT
BRANCH   1   7
ATOM      7  C   LIG    1       27.512 -15.290   3.749  0.00  0.00    +0.035 C 
BRANCH   7   8
ATOM      8  C   LIG    1       26.912 -14.541   2.562  0.00  0.00    +0.005 C 
BRANCH   8   9
ATOM      9  C   LIG    1       26.409 -13.154   2.963  0.00  0.00    +0.000 C 
BRANCH   9  10
ATOM     10  C   LIG    1       25.122 -12.771   2.228  0.00  0.00    +0.000 C 
BRANCH  10  11
ATOM     11  C   LIG    1       23.972 -12.468   3.190  0.00  0.00    -0.000 C 
BRANCH  11  12
ATOM     12  C   LIG    1       23.998 -13.381   4.409  0.00  0.00    -0.000 C 
BRANCH  12  14
ATOM     13  C   LIG    1       22.702 -15.386   5.194  0.00  0.00    +0.004 C 
ATOM     14  C   LIG    1       23.489 -14.775   4.048  0.00  0.00    -0.003 C 
ENDBRANCH  12  14
ENDBRANCH  11  12
ENDBRANCH  10  11
ENDBRANCH   9  10
ENDBRANCH   8   9
ENDBRANCH   7   8
ENDBRANCH   1   7
BRANCH   4  15
ATOM     15  C   LIG    1       25.369 -20.696   4.120  0.00  0.00    +0.037 C 
BRANCH  15  16
ATOM     16  C   LIG    1       23.858 -20.705   3.848  0.00  0.00    +0.031 C 
BRANCH  16  17
ATOM     17  C   LIG    1       22.969 -20.738   5.118  0.00  0.00    +0.064 C 
BRANCH  17  18
ATOM     18  N   LIG    1       21.734 -21.524   4.801  0.00  0.00    -0.321 NA
ATOM     19  H   LIG    1       21.943 -22.518   4.926  0.00  0.00    +0.119 HD
ATOM     20  H   LIG    1       21.035 -21.329   5.520  0.00  0.00    +0.119 HD
ENDBRANCH  17  18
BRANCH  17  21
ATOM     21  C   LIG    1       22.515 -19.315   5.529  0.00  0.00    +0.180 C 
BRANCH  21  22
ATOM     22  O   LIG    1       21.877 -18.649   4.440  0.00  0.00    -0.393 OA
ATOM     23  H   LIG    1       21.958 -17.695   4.637  0.00  0.00    +0.209 HD
ENDBRANCH  21  22
ENDBRANCH  17  21
BRANCH  17  24
ATOM     24  C   LIG    1       23.685 -21.436   6.303  0.00  0.00    +0.180 C 
BRANCH  24  25
ATOM     25  O   LIG    1       24.446 -20.493   7.061  0.00  0.00    -0.393 OA
ATOM     26  H   LIG    1       24.639 -20.930   7.909  0.00  0.00    +0.209 HD
ENDBRANCH  24  25
ENDBRANCH  17  24
ENDBRANCH  16  17
ENDBRANCH  15  16
ENDBRANCH   4  15
TORSDOF 15
ENDMDL
MODEL 5
REMARK VINA RESULT:      -4.2      3.514      6.831
REMARK  Name = *****
REMARK                            x       y       z     vdW  Elec       q    Type
REMARK                         _______ _______ _______ _____ _____    ______ ____
ROOT
ATOM      1  C   LIG    1       23.690 -14.927   4.412  0.00  0.00    -0.047 A 
ATOM      2  C   LIG    1       22.482 -15.254   5.030  0.00  0.00    +0.004 A 
ATOM      3  C   LIG    1       22.013 -16.568   5.027  0.00  0.00    +0.004 A 
ATOM      4  C   LIG    1       22.753 -17.579   4.392  0.00  0.00    -0.047 A 
ATOM      5  C   LIG    1       23.950 -17.248   3.756  0.00  0.00    +0.004 A 
ATOM      6  C   LIG    1       24.418 -15.934   3.758  0.00  0.00    +0.004 A 
ENDROOT
BRANCH   1   7
ATOM      7  C   LIG    1       24.199 -13.509   4.403  0.00  0.00    +0.035 C 
BRANCH   7   8
ATOM      8  C   LIG    1       23.786 -12.796   3.119  0.00  0.00    +0.005 C 
BRANCH   8   9
ATOM      9  C   LIG    1       24.826 -12.976   2.012  0.00  0.00    +0.000 C 
BRANCH   9  10
ATOM     10  C   LIG    1       26.255 -12.782   2.523  0.00  0.00    +0.000 C 
BRANCH  10  11
ATOM     11  C   LIG    1       27.049 -14.089   2.540  0.00  0.00    -0.000 C 
BRANCH  11  12
ATOM     12  C   LIG    1       28.020 -14.147   3.712  0.00  0.00    -0.000 C 
BRANCH  12  14
ATOM     13  C   LIG    1       27.129 -13.577   5.992  0.00  0.00    +0.004 C 
ATOM     14  C   LIG    1       27.728 -13.028   4.709  0.00  0.00    -0.003 C 
ENDBRANCH  12  14
ENDBRANCH  11  12
ENDBRANCH  10  11
ENDBRANCH   9  10
ENDBRANCH   8   9
ENDBRANCH   7   8
ENDBRANCH   1   7
BRANCH   4  15
ATOM     15  C   LIG    1       22.274 -19.009   4.427  0.00  0.00    +0.037 C 
BRANCH  15  16
ATOM     16  C   LIG    1       22.905 -19.777   5.598  0.00  0.00    +0.031 C 
BRANCH  16  17
ATOM     17  C   LIG    1       24.142 -20.633   5.223  0.00  0.00    +0.064 C 
BRANCH  17  18
ATOM     18  N   LIG    1       24.418 -21.572   6.356  0.00  0.00    -0.321 NA
ATOM     19  H   LIG    1       25.009 -22.332   6.010  0.00  0.00    +0.119 HD
ATOM     20  H   LIG    1       25.012 -21.091   7.036  0.00  0.00    +0.119 HD
ENDBRANCH  17  18
BRANCH  17  21
ATOM     21  C   LIG    1       25.404 -19.753   5.035  0.00  0.00    +0.180 C 
BRANCH  21  22
ATOM     22  O   LIG    1       26.511 -20.540   4.596  0.00  0.00    -0.393 OA
ATOM     23  H   LIG    1       26.701 -21.152   5.335  0.00  0.00    +0.209 HD
ENDBRANCH  21  22
ENDBRANCH  17  21
BRANCH  17  24
ATOM     24  C   LIG    1       23.887 -21.484   3.952  0.00  0.00    +0.180 C 
BRANCH  24  25
ATOM     25  O   LIG    1       24.389 -20.821   2.790  0.00  0.00    -0.393 OA
ATOM     26  H   LIG    1       25.196 -20.359   3.078  0.00  0.00    +0.209 HD
ENDBRANCH  24  25
ENDBRANCH  17  24
ENDBRANCH  16  17
ENDBRANCH  15  16
ENDBRANCH   4  15
TORSDOF 15
ENDMDL
MODEL 6
REMARK VINA RESULT:      -4.2      2.051      3.899
REMARK  Name = *****
REMARK                            x       y       z     vdW  Elec       q    Type
REMARK                         _______ _______ _______ _____ _____    ______ ____
ROOT
ATOM      1  C   LIG    1       27.037 -18.854   4.466  0.00  0.00    -0.047 A 
ATOM      2  C   LIG    1       28.101 -18.003   4.769  0.00  0.00    +0.004 A 
ATOM      3  C   LIG    1       28.095 -16.675   4.342  0.00  0.00    +0.004 A 
ATOM      4  C   LIG    1       27.016 -16.181   3.590  0.00  0.00    -0.047 A 
ATOM      5  C   LIG    1       25.963 -17.038   3.269  0.00  0.00    +0.004 A 
ATOM      6  C   LIG    1       25.969 -18.366   3.696  0.00  0.00    +0.004 A 
ENDROOT
BRANCH   1   7
ATOM      7  C   LIG    1       27.039 -20.292   4.917  0.00  0.00    +0.035 C 
BRANCH   7   8
ATOM      8  C   LIG    1       26.958 -20.379   6.438  0.00  0.00    +0.005 C 
BRANCH   8   9
ATOM      9  C   LIG    1       25.954 -21.440   6.892  0.00  0.00    +0.000 C 
BRANCH   9  10
ATOM     10  C   LIG    1       24.727 -21.505   5.978  0.00  0.00    +0.000 C 
BRANCH  10  11
ATOM     11  C   LIG    1       23.559 -20.678   6.515  0.00  0.00    -0.000 C 
BRANCH  11  12
ATOM     12  C   LIG    1       22.390 -20.647   5.538  0.00  0.00    -0.000 C 
BRANCH  12  14
ATOM     13  C   LIG    1       22.362 -18.290   4.669  0.00  0.00    +0.004 C 
ATOM     14  C   LIG    1       22.703 -19.735   4.354  0.00  0.00    -0.003 C 
ENDBRANCH  12  14
ENDBRANCH  11  12
ENDBRANCH  10  11
ENDBRANCH   9  10
ENDBRANCH   8   9
ENDBRANCH   7   8
ENDBRANCH   1   7
BRANCH   4  15
ATOM     15  C   LIG    1       26.984 -14.734   3.166  0.00  0.00    +0.037 C 
BRANCH  15  16
ATOM     16  C   LIG    1       26.403 -13.844   4.276  0.00  0.00    +0.031 C 
BRANCH  16  17
ATOM     17  C   LIG    1       25.079 -13.126   3.907  0.00  0.00    +0.064 C 
BRANCH  17  18
ATOM     18  N   LIG    1       23.960 -14.109   4.062  0.00  0.00    -0.321 NA
ATOM     19  H   LIG    1       23.075 -13.619   3.907  0.00  0.00    +0.119 HD
ATOM     20  H   LIG    1       24.008 -14.777   3.290  0.00  0.00    +0.119 HD
ENDBRANCH  17  18
BRANCH  17  21
ATOM     21  C   LIG    1       25.080 -12.658   2.431  0.00  0.00    +0.180 C 
BRANCH  21  22
ATOM     22  O   LIG    1       23.817 -12.913   1.816  0.00  0.00    -0.393 OA
ATOM     23  H   LIG    1       23.751 -12.265   1.086  0.00  0.00    +0.209 HD
ENDBRANCH  21  22
ENDBRANCH  17  21
BRANCH  17  24
ATOM     24  C   LIG    1       24.793 -11.929   4.850  0.00  0.00    +0.180 C 
BRANCH  24  25
ATOM     25  O   LIG    1       23.453 -11.460   4.681  0.00  0.00    -0.393 OA
ATOM     26  H   LIG    1       23.087 -11.973   3.939  0.00  0.00    +0.209 HD
ENDBRANCH  24  25
ENDBRANCH  17  24
ENDBRANCH  16  17
ENDBRANCH  15  16
ENDBRANCH   4  15
TORSDOF 15
ENDMDL
MODEL 7
REMARK VINA RESULT:      -3.8      2.802      5.837
REMARK  Name = *****
REMARK                            x       y       z     vdW  Elec       q    Type
REMARK                         _______ _______ _______ _____ _____    ______ ____
ROOT
ATOM      1  C   LIG    1       22.774 -19.252   4.654  0.00  0.00    -0.047 A 
ATOM      2  C   LIG    1       23.931 -19.392   3.885  0.00  0.00    +0.004 A 
ATOM      3  C   LIG    1       25.046 -20.061   4.390  0.00  0.00    +0.004 A 
ATOM      4  C   LIG    1       25.018 -20.598   5.688  0.00  0.00    -0.047 A 
ATOM      5  C   LIG    1       23.869 -20.439   6.464  0.00  0.00    +0.004 A 
ATOM      6  C   LIG    1       22.755 -19.769   5.960  0.00  0.00    +0.004 A 
ENDROOT
BRANCH   1   7
ATOM      7  C   LIG    1       21.569 -18.523   4.119  0.00  0.00    +0.035 C 
BRANCH   7   8
ATOM      8  C   LIG    1       21.914 -17.071   3.803  0.00  0.00    +0.005 C 
BRANCH   8   9
ATOM      9  C   LIG    1       22.765 -16.438   4.905  0.00  0.00    +0.000 C 
BRANCH   9  10
ATOM     10  C   LIG    1       23.126 -14.983   4.594  0.00  0.00    +0.000 C 
BRANCH  10  11
ATOM     11  C   LIG    1       24.487 -14.857   3.907  0.00  0.00    -0.000 C 
BRANCH  11  12
ATOM     12  C   LIG    1       25.215 -13.585   4.322  0.00  0.00    -0.000 C 
BRANCH  12  14
ATOM     13  C   LIG    1       27.289 -14.888   3.762  0.00  0.00    +0.004 C 
ATOM     14  C   LIG    1       26.655 -13.896   4.722  0.00  0.00    -0.003 C 
ENDBRANCH  12  14
ENDBRANCH  11  12
ENDBRANCH  10  11
ENDBRANCH   9  10
ENDBRANCH   8   9
ENDBRANCH   7   8
ENDBRANCH   1   7
BRANCH   4  15
ATOM     15  C   LIG    1       26.203 -21.363   6.221  0.00  0.00    +0.037 C 
BRANCH  15  16
ATOM     16  C   LIG    1       27.170 -20.436   6.972  0.00  0.00    +0.031 C 
BRANCH  16  17
ATOM     17  C   LIG    1       28.437 -20.033   6.173  0.00  0.00    +0.064 C 
BRANCH  17  18
ATOM     18  N   LIG    1       29.151 -21.287   5.771  0.00  0.00    -0.321 NA
ATOM     19  H   LIG    1       29.771 -21.566   6.536  0.00  0.00    +0.119 HD
ATOM     20  H   LIG    1       28.467 -22.045   5.722  0.00  0.00    +0.119 HD
ENDBRANCH  17  18
BRANCH  17  21
ATOM     21  C   LIG    1       29.415 -19.204   7.042  0.00  0.00    +0.180 C 
BRANCH  21  22
ATOM     22  O   LIG    1       29.048 -17.825   7.046  0.00  0.00    -0.393 OA
ATOM     23  H   LIG    1       28.129 -17.802   6.712  0.00  0.00    +0.209 HD
ENDBRANCH  21  22
ENDBRANCH  17  21
BRANCH  17  24
ATOM     24  C   LIG    1       28.077 -19.257   4.879  0.00  0.00    +0.180 C 
BRANCH  24  25
ATOM     25  O   LIG    1       29.152 -18.398   4.490  0.00  0.00    -0.393 OA
ATOM     26  H   LIG    1       29.816 -18.471   5.197  0.00  0.00    +0.209 HD
ENDBRANCH  24  25
ENDBRANCH  17  24
ENDBRANCH  16  17
ENDBRANCH  15  16
ENDBRANCH   4  15
TORSDOF 15
ENDMDL
MODEL 8
REMARK VINA RESULT:      -3.7      3.623      7.326
REMARK  Name = *****
REMARK                            x       y       z     vdW  Elec       q    Type
REMARK                         _______ _______ _______ _____ _____    ______ ____
ROOT
ATOM      1  C   LIG    1       27.289 -16.929   4.045  0.00  0.00    -0.047 A 
ATOM      2  C   LIG    1       26.094 -17.179   3.367  0.00  0.00    +0.004 A 
ATOM      3  C   LIG    1       25.497 -18.438   3.417  0.00  0.00    +0.004 A 
ATOM      4  C   LIG    1       26.099 -19.476   4.147  0.00  0.00    -0.047 A 
ATOM      5  C   LIG    1       27.304 -19.232   4.807  0.00  0.00    +0.004 A 
ATOM      6  C   LIG    1       27.902 -17.973   4.756  0.00  0.00    +0.004 A 
ENDROOT
BRANCH   1   7
ATOM      7  C   LIG    1       27.945 -15.573   3.989  0.00  0.00    +0.035 C 
BRANCH   7   8
ATOM      8  C   LIG    1       27.226 -14.668   2.994  0.00  0.00    +0.005 C 
BRANCH   8   9
ATOM      9  C   LIG    1       27.158 -13.222   3.489  0.00  0.00    +0.000 C 
BRANCH   9  10
ATOM     10  C   LIG    1       26.715 -13.132   4.951  0.00  0.00    +0.000 C 
BRANCH  10  11
ATOM     11  C   LIG    1       25.194 -13.048   5.093  0.00  0.00    -0.000 C 
BRANCH  11  12
ATOM     12  C   LIG    1       24.519 -12.719   3.768  0.00  0.00    -0.000 C 
BRANCH  12  14
ATOM     13  C   LIG    1       23.516 -14.932   4.410  0.00  0.00    +0.004 C 
ATOM     14  C   LIG    1       23.587 -13.853   3.344  0.00  0.00    -0.003 C 
ENDBRANCH  12  14
ENDBRANCH  11  12
ENDBRANCH  10  11
ENDBRANCH   9  10
ENDBRANCH   8   9
ENDBRANCH   7   8
ENDBRANCH   1   7
BRANCH   4  15
ATOM     15  C   LIG    1       25.433 -20.825   4.242  0.00  0.00    +0.037 C 
BRANCH  15  16
ATOM     16  C   LIG    1       23.917 -20.713   4.020  0.00  0.00    +0.031 C 
BRANCH  16  17
ATOM     17  C   LIG    1       23.088 -20.466   5.306  0.00  0.00    +0.064 C 
BRANCH  17  18
ATOM     18  N   LIG    1       24.019 -20.520   6.477  0.00  0.00    -0.321 NA
ATOM     19  H   LIG    1       24.846 -21.060   6.208  0.00  0.00    +0.119 HD
ATOM     20  H   LIG    1       24.385 -19.580   6.642  0.00  0.00    +0.119 HD
ENDBRANCH  17  18
BRANCH  17  21
ATOM     21  C   LIG    1       22.022 -21.570   5.514  0.00  0.00    +0.180 C 
BRANCH  21  22
ATOM     22  O   LIG    1       20.984 -21.466   4.540  0.00  0.00    -0.393 OA
ATOM     23  H   LIG    1       21.440 -21.265   3.698  0.00  0.00    +0.209 HD
ENDBRANCH  21  22
ENDBRANCH  17  21
BRANCH  17  24
ATOM     24  C   LIG    1       22.417 -19.067   5.297  0.00  0.00    +0.180 C 
BRANCH  24  25
ATOM     25  O   LIG    1       21.803 -18.808   4.033  0.00  0.00    -0.393 OA
ATOM     26  H   LIG    1       21.777 -17.839   3.947  0.00  0.00    +0.209 HD
ENDBRANCH  24  25
ENDBRANCH  17  24
ENDBRANCH  16  17
ENDBRANCH  15  16
ENDBRANCH   4  15
TORSDOF 15
ENDMDL
MODEL 9
REMARK VINA RESULT:      -3.6      1.463      1.938
REMARK  Name = *****
REMARK                            x       y       z     vdW  Elec       q    Type
REMARK                         _______ _______ _______ _____ _____    ______ ____
ROOT
ATOM      1  C   LIG    1       22.659 -17.422   4.433  0.00  0.00    -0.047 A 
ATOM      2  C   LIG    1       22.096 -16.321   5.080  0.00  0.00    +0.004 A 
ATOM      3  C   LIG    1       22.724 -15.075   5.043  0.00  0.00    +0.004 A 
ATOM      4  C   LIG    1       23.940 -14.918   4.357  0.00  0.00    -0.047 A 
ATOM      5  C   LIG    1       24.512 -16.025   3.728  0.00  0.00    +0.004 A 
ATOM      6  C   LIG    1       23.885 -17.270   3.766  0.00  0.00    +0.004 A 
ENDROOT
BRANCH   1   7
ATOM      7  C   LIG    1       21.991 -18.772   4.475  0.00  0.00    +0.035 C 
BRANCH   7   8
ATOM      8  C   LIG    1       22.826 -19.761   5.284  0.00  0.00    +0.005 C 
BRANCH   8   9
ATOM      9  C   LIG    1       24.110 -20.152   4.551  0.00  0.00    +0.000 C 
BRANCH   9  10
ATOM     10  C   LIG    1       24.752 -21.410   5.141  0.00  0.00    +0.000 C 
BRANCH  10  11
ATOM     11  C   LIG    1       24.923 -21.318   6.657  0.00  0.00    -0.000 C 
BRANCH  11  12
ATOM     12  C   LIG    1       26.132 -20.474   7.042  0.00  0.00    -0.000 C 
BRANCH  12  14
ATOM     13  C   LIG    1       28.563 -20.445   6.410  0.00  0.00    +0.004 C 
ATOM     14  C   LIG    1       27.416 -21.292   6.932  0.00  0.00    -0.003 C 
ENDBRANCH  12  14
ENDBRANCH  11  12
ENDBRANCH  10  11
ENDBRANCH   9  10
ENDBRANCH   8   9
ENDBRANCH   7   8
ENDBRANCH   1   7
BRANCH   4  15
ATOM     15  C   LIG    1       24.598 -13.564   4.274  0.00  0.00    +0.037 C 
BRANCH  15  16
ATOM     16  C   LIG    1       25.884 -13.622   3.436  0.00  0.00    +0.031 C 
BRANCH  16  17
ATOM     17  C   LIG    1       27.198 -13.547   4.256  0.00  0.00    +0.064 C 
BRANCH  17  18
ATOM     18  N   LIG    1       26.850 -13.696   5.705  0.00  0.00    -0.321 NA
ATOM     19  H   LIG    1       25.847 -13.525   5.817  0.00  0.00    +0.119 HD
ATOM     20  H   LIG    1       26.961 -14.678   5.964  0.00  0.00    +0.119 HD
ENDBRANCH  17  18
BRANCH  17  21
ATOM     21  C   LIG    1       27.894 -12.174   4.088  0.00  0.00    +0.180 C 
BRANCH  21  22
ATOM     22  O   LIG    1       29.097 -12.116   4.853  0.00  0.00    -0.393 OA
ATOM     23  H   LIG    1       29.678 -12.805   4.473  0.00  0.00    +0.209 HD
ENDBRANCH  21  22
ENDBRANCH  17  21
BRANCH  17  24
ATOM     24  C   LIG    1       28.173 -14.693   3.882  0.00  0.00    +0.180 C 
BRANCH  24  25
ATOM     25  O   LIG    1       27.646 -15.959   4.288  0.00  0.00    -0.393 OA
ATOM     26  H   LIG    1       27.578 -15.916   5.258  0.00  0.00    +0.209 HD
ENDBRANCH  24  25
ENDBRANCH  17  24
ENDBRANCH  16  17
ENDBRANCH  15  16
ENDBRANCH   4  15
TORSDOF 15
ENDMDL
