MODEL 1
REMARK VINA RESULT:      -7.1      0.000      0.000
REMARK  Name = *****
REMARK                            x       y       z     vdW  Elec       q    Type
REMARK                         _______ _______ _______ _____ _____    ______ ____
ROOT
ATOM      1  C   LIG    1       24.636 -22.718   6.250  0.00  0.00    +0.024 C 
ATOM      2  C   LIG    1       24.562 -21.135   5.963  0.00  0.00    -0.014 C 
ATOM      3  C   LIG    1       23.241 -20.459   6.380  0.00  0.00    +0.013 C 
ATOM      4  C   LIG    1       24.767 -20.743   4.473  0.00  0.00    +0.013 C 
ATOM      5  C   LIG    1       25.801 -20.601   6.769  0.00  0.00    -0.003 C 
ATOM      6  C   LIG    1       26.815 -21.743   6.631  0.00  0.00    +0.009 C 
ATOM      7  C   LIG    1       25.558 -20.632   8.287  0.00  0.00    +0.004 C 
ATOM      8  C   LIG    1       25.559 -22.130   8.600  0.00  0.00    +0.005 C 
ATOM      9  C   LIG    1       25.861 -22.779   7.233  0.00  0.00    +0.010 C 
ATOM     10  C   LIG    1       23.354 -23.320   6.857  0.00  0.00    +0.028 C 
ENDROOT
BRANCH   1  12
ATOM     11  C   LIG    1       25.095 -24.877   5.058  0.00  0.00    +0.101 C 
ATOM     12  N   LIG    1       24.921 -23.434   4.981  0.00  0.00    -0.313 NA
ATOM     13  H   LIG    1       24.180 -23.231   4.312  0.00  0.00    +0.122 HD
ENDBRANCH   1  12
TORSDOF 1
ENDMDL
MODEL 2
REMARK VINA RESULT:      -6.4      1.274      3.217
REMARK  Name = *****
REMARK                            x       y       z     vdW  Elec       q    Type
REMARK                         _______ _______ _______ _____ _____    ______ ____
ROOT
ATOM      1  C   LIG    1       24.347 -21.220   5.882  0.00  0.00    +0.024 C 
ATOM      2  C   LIG    1       24.408 -22.748   6.387  0.00  0.00    -0.014 C 
ATOM      3  C   LIG    1       24.917 -23.759   5.341  0.00  0.00    +0.013 C 
ATOM      4  C   LIG    1       23.047 -23.317   6.875  0.00  0.00    +0.013 C 
ATOM      5  C   LIG    1       25.353 -22.638   7.638  0.00  0.00    -0.003 C 
ATOM      6  C   LIG    1       25.005 -21.258   8.208  0.00  0.00    +0.009 C 
ATOM      7  C   LIG    1       26.819 -22.407   7.235  0.00  0.00    +0.004 C 
ATOM      8  C   LIG    1       26.798 -20.978   6.688  0.00  0.00    +0.005 C 
ATOM      9  C   LIG    1       25.334 -20.537   6.897  0.00  0.00    +0.010 C 
ATOM     10  C   LIG    1       24.764 -21.012   4.414  0.00  0.00    +0.028 C 
ENDROOT
BRANCH   1  12
ATOM     11  C   LIG    1       22.561 -19.605   5.178  0.00  0.00    +0.101 C 
ATOM     12  N   LIG    1       22.963 -20.705   6.041  0.00  0.00    -0.313 NA
ATOM     13  H   LIG    1       22.307 -21.475   5.916  0.00  0.00    +0.122 HD
ENDBRANCH   1  12
TORSDOF 1
ENDMDL
MODEL 3
REMARK VINA RESULT:      -6.0      1.393      3.332
REMARK  Name = *****
REMARK                            x       y       z     vdW  Elec       q    Type
REMARK                         _______ _______ _______ _____ _____    ______ ____
ROOT
ATOM      1  C   LIG    1       25.079 -21.386   5.759  0.00  0.00    +0.024 C 
ATOM      2  C   LIG    1       23.542 -21.309   6.233  0.00  0.00    -0.014 C 
ATOM      3  C   LIG    1       23.276 -20.375   7.429  0.00  0.00    +0.013 C 
ATOM      4  C   LIG    1       22.927 -22.677   6.640  0.00  0.00    +0.013 C 
ATOM      5  C   LIG    1       22.821 -20.837   4.919  0.00  0.00    -0.003 C 
ATOM      6  C   LIG    1       23.647 -21.510   3.816  0.00  0.00    +0.009 C 
ATOM      7  C   LIG    1       23.103 -19.358   4.607  0.00  0.00    +0.004 C 
ATOM      8  C   LIG    1       24.580 -19.371   4.208  0.00  0.00    +0.005 C 
ATOM      9  C   LIG    1       24.956 -20.866   4.282  0.00  0.00    +0.010 C 
ATOM     10  C   LIG    1       26.054 -20.548   6.607  0.00  0.00    +0.028 C 
ENDROOT
BRANCH   1  12
ATOM     11  C   LIG    1       26.254 -23.228   6.992  0.00  0.00    +0.101 C 
ATOM     12  N   LIG    1       25.536 -22.799   5.802  0.00  0.00    -0.313 NA
ATOM     13  H   LIG    1       24.732 -23.411   5.667  0.00  0.00    +0.122 HD
ENDBRANCH   1  12
TORSDOF 1
ENDMDL
MODEL 4
REMARK VINA RESULT:      -5.9      1.373      2.797
REMARK  Name = *****
REMARK                            x       y       z     vdW  Elec       q    Type
REMARK                         _______ _______ _______ _____ _____    ______ ____
ROOT
ATOM      1  C   LIG    1       24.706 -22.630   6.303  0.00  0.00    +0.024 C 
ATOM      2  C   LIG    1       25.211 -21.114   6.510  0.00  0.00    -0.014 C 
ATOM      3  C   LIG    1       25.796 -20.446   5.251  0.00  0.00    +0.013 C 
ATOM      4  C   LIG    1       26.300 -20.945   7.606  0.00  0.00    +0.013 C 
ATOM      5  C   LIG    1       23.905 -20.406   7.025  0.00  0.00    -0.003 C 
ATOM      6  C   LIG    1       23.221 -21.507   7.844  0.00  0.00    +0.009 C 
ATOM      7  C   LIG    1       22.871 -20.217   5.903  0.00  0.00    +0.004 C 
ATOM      8  C   LIG    1       22.405 -21.648   5.627  0.00  0.00    +0.005 C 
ATOM      9  C   LIG    1       23.184 -22.483   6.665  0.00  0.00    +0.010 C 
ATOM     10  C   LIG    1       24.931 -23.193   4.887  0.00  0.00    +0.028 C 
ENDROOT
BRANCH   1  12
ATOM     11  C   LIG    1       25.814 -24.829   6.782  0.00  0.00    +0.101 C 
ATOM     12  N   LIG    1       25.411 -23.517   7.264  0.00  0.00    -0.313 NA
ATOM     13  H   LIG    1       26.234 -23.033   7.620  0.00  0.00    +0.122 HD
ENDBRANCH   1  12
TORSDOF 1
ENDMDL
MODEL 5
REMARK VINA RESULT:      -5.8      1.975      3.120
REMARK  Name = *****
REMARK                            x       y       z     vdW  Elec       q    Type
REMARK                         _______ _______ _______ _____ _____    ______ ____
ROOT
ATOM      1  C   LIG    1       23.485 -21.292   5.970  0.00  0.00    +0.024 C 
ATOM      2  C   LIG    1       22.728 -20.359   4.897  0.00  0.00    -0.014 C 
ATOM      3  C   LIG    1       22.399 -18.937   5.390  0.00  0.00    +0.013 C 
ATOM      4  C   LIG    1       21.379 -20.935   4.384  0.00  0.00    +0.013 C 
ATOM      5  C   LIG    1       23.737 -20.368   3.692  0.00  0.00    -0.003 C 
ATOM      6  C   LIG    1       24.338 -21.777   3.761  0.00  0.00    +0.009 C 
ATOM      7  C   LIG    1       24.989 -19.523   3.981  0.00  0.00    +0.004 C 
ATOM      8  C   LIG    1       25.714 -20.345   5.048  0.00  0.00    +0.005 C 
ATOM      9  C   LIG    1       24.822 -21.595   5.202  0.00  0.00    +0.010 C 
ATOM     10  C   LIG    1       23.721 -20.631   7.341  0.00  0.00    +0.028 C 
ENDROOT
BRANCH   1  12
ATOM     11  C   LIG    1       23.392 -23.674   6.751  0.00  0.00    +0.101 C 
ATOM     12  N   LIG    1       22.693 -22.529   6.190  0.00  0.00    -0.313 NA
ATOM     13  H   LIG    1       21.895 -22.310   6.785  0.00  0.00    +0.122 HD
ENDBRANCH   1  12
TORSDOF 1
ENDMDL
MODEL 6
REMARK VINA RESULT:      -5.8      1.401      3.508
REMARK  Name = *****
REMARK                            x       y       z     vdW  Elec       q    Type
REMARK                         _______ _______ _______ _____ _____    ______ ____
ROOT
ATOM      1  C   LIG    1       24.966 -21.177   6.339  0.00  0.00    +0.024 C 
ATOM      2  C   LIG    1       24.112 -22.465   5.884  0.00  0.00    -0.014 C 
ATOM      3  C   LIG    1       23.173 -23.037   6.963  0.00  0.00    +0.013 C 
ATOM      4  C   LIG    1       24.972 -23.669   5.410  0.00  0.00    +0.013 C 
ATOM      5  C   LIG    1       23.337 -21.913   4.632  0.00  0.00    -0.003 C 
ATOM      6  C   LIG    1       24.339 -20.928   4.018  0.00  0.00    +0.009 C 
ATOM      7  C   LIG    1       22.212 -20.945   5.032  0.00  0.00    +0.004 C 
ATOM      8  C   LIG    1       22.980 -19.720   5.532  0.00  0.00    +0.005 C 
ATOM      9  C   LIG    1       24.456 -20.108   5.305  0.00  0.00    +0.010 C 
ATOM     10  C   LIG    1       24.745 -20.745   7.801  0.00  0.00    +0.028 C 
ENDROOT
BRANCH   1  12
ATOM     11  C   LIG    1       27.336 -20.354   6.369  0.00  0.00    +0.101 C 
ATOM     12  N   LIG    1       26.413 -21.459   6.159  0.00  0.00    -0.313 NA
ATOM     13  H   LIG    1       26.679 -22.228   6.773  0.00  0.00    +0.122 HD
ENDBRANCH   1  12
TORSDOF 1
ENDMDL
MODEL 7
REMARK VINA RESULT:      -5.7      1.322      3.364
REMARK  Name = *****
REMARK                            x       y       z     vdW  Elec       q    Type
REMARK                         _______ _______ _______ _____ _____    ______ ____
ROOT
ATOM      1  C   LIG    1       25.066 -21.151   5.655  0.00  0.00    +0.024 C 
ATOM      2  C   LIG    1       24.762 -22.678   6.067  0.00  0.00    -0.014 C 
ATOM      3  C   LIG    1       25.696 -23.259   7.146  0.00  0.00    +0.013 C 
ATOM      4  C   LIG    1       24.827 -23.687   4.887  0.00  0.00    +0.013 C 
ATOM      5  C   LIG    1       23.265 -22.594   6.538  0.00  0.00    -0.003 C 
ATOM      6  C   LIG    1       22.678 -21.519   5.617  0.00  0.00    +0.009 C 
ATOM      7  C   LIG    1       23.128 -21.893   7.900  0.00  0.00    +0.004 C 
ATOM      8  C   LIG    1       23.470 -20.439   7.568  0.00  0.00    +0.005 C 
ATOM      9  C   LIG    1       23.706 -20.467   6.043  0.00  0.00    +0.010 C 
ATOM     10  C   LIG    1       26.276 -20.522   6.372  0.00  0.00    +0.028 C 
ENDROOT
BRANCH   1  12
ATOM     11  C   LIG    1       25.110 -19.790   3.548  0.00  0.00    +0.101 C 
ATOM     12  N   LIG    1       25.314 -21.078   4.192  0.00  0.00    -0.313 NA
ATOM     13  H   LIG    1       26.264 -21.392   4.000  0.00  0.00    +0.122 HD
ENDBRANCH   1  12
TORSDOF 1
ENDMDL
MODEL 8
REMARK VINA RESULT:      -5.7      1.442      2.850
REMARK  Name = *****
REMARK                            x       y       z     vdW  Elec       q    Type
REMARK                         _______ _______ _______ _____ _____    ______ ____
ROOT
ATOM      1  C   LIG    1       25.017 -22.276   5.977  0.00  0.00    +0.024 C 
ATOM      2  C   LIG    1       24.622 -21.093   4.958  0.00  0.00    -0.014 C 
ATOM      3  C   LIG    1       24.284 -21.553   3.527  0.00  0.00    +0.013 C 
ATOM      4  C   LIG    1       25.714 -20.001   4.788  0.00  0.00    +0.013 C 
ATOM      5  C   LIG    1       23.398 -20.430   5.690  0.00  0.00    -0.003 C 
ATOM      6  C   LIG    1       23.759 -20.592   7.171  0.00  0.00    +0.009 C 
ATOM      7  C   LIG    1       22.139 -21.309   5.618  0.00  0.00    +0.004 C 
ATOM      8  C   LIG    1       22.493 -22.487   6.529  0.00  0.00    +0.005 C 
ATOM      9  C   LIG    1       23.893 -22.114   7.063  0.00  0.00    +0.010 C 
ATOM     10  C   LIG    1       25.041 -23.682   5.349  0.00  0.00    +0.028 C 
ENDROOT
BRANCH   1  12
ATOM     11  C   LIG    1       26.576 -22.351   7.941  0.00  0.00    +0.101 C 
ATOM     12  N   LIG    1       26.363 -22.005   6.544  0.00  0.00    -0.313 NA
ATOM     13  H   LIG    1       27.063 -22.484   5.979  0.00  0.00    +0.122 HD
ENDBRANCH   1  12
TORSDOF 1
ENDMDL
MODEL 9
REMARK VINA RESULT:      -5.6      1.151      2.076
REMARK  Name = *****
REMARK                            x       y       z     vdW  Elec       q    Type
REMARK                         _______ _______ _______ _____ _____    ______ ____
ROOT
ATOM      1  C   LIG    1       25.096 -21.865   5.676  0.00  0.00    +0.024 C 
ATOM      2  C   LIG    1       24.015 -21.362   6.759  0.00  0.00    -0.014 C 
ATOM      3  C   LIG    1       22.992 -22.426   7.199  0.00  0.00    +0.013 C 
ATOM      4  C   LIG    1       23.165 -20.145   6.299  0.00  0.00    +0.013 C 
ATOM      5  C   LIG    1       24.936 -20.878   7.937  0.00  0.00    -0.003 C 
ATOM      6  C   LIG    1       26.165 -20.326   7.204  0.00  0.00    +0.009 C 
ATOM      7  C   LIG    1       25.575 -22.057   8.690  0.00  0.00    +0.004 C 
ATOM      8  C   LIG    1       26.574 -22.610   7.671  0.00  0.00    +0.005 C 
ATOM      9  C   LIG    1       26.432 -21.646   6.474  0.00  0.00    +0.010 C 
ATOM     10  C   LIG    1       24.910 -23.322   5.214  0.00  0.00    +0.028 C 
ENDROOT
BRANCH   1  12
ATOM     11  C   LIG    1       24.121 -21.393   3.414  0.00  0.00    +0.101 C 
ATOM     12  N   LIG    1       25.031 -20.993   4.476  0.00  0.00    -0.313 NA
ATOM     13  H   LIG    1       24.796 -20.045   4.767  0.00  0.00    +0.122 HD
ENDBRANCH   1  12
TORSDOF 1
ENDMDL
