MODEL 1
REMARK VINA RESULT:      -8.2      0.000      0.000
REMARK  Name = *****
REMARK                            x       y       z     vdW  Elec       q    Type
REMARK                         _______ _______ _______ _____ _____    ______ ____
ROOT
ATOM      1  C   LIG    1       25.628 -21.304   6.571  0.00  0.00    +0.066 A 
ATOM      2  C   LIG    1       25.298 -20.547   5.396  0.00  0.00    +0.077 A 
ATOM      3  N   LIG    1       26.331 -19.822   4.959  0.00  0.00    -0.170 NA
ATOM      4  N   LIG    1       27.348 -20.089   5.796  0.00  0.00    -0.239 N 
ATOM      5  C   LIG    1       28.615 -19.505   5.748  0.00  0.00    +0.113 A 
ATOM      6  C   LIG    1       29.553 -19.844   6.643  0.00  0.00    +0.020 A 
ATOM      7  C   LIG    1       29.229 -20.856   7.626  0.00  0.00    +0.004 A 
ATOM      8  C   LIG    1       28.015 -21.434   7.675  0.00  0.00    +0.028 A 
ATOM      9  C   LIG    1       26.980 -21.034   6.765  0.00  0.00    +0.078 A 
ENDROOT
BRANCH   2  10
ATOM     10  C   LIG    1       23.987 -20.464   4.645  0.00  0.00    +0.034 C 
ATOM     11  C   LIG    1       24.083 -19.544   3.419  0.00  0.00    +0.014 C 
ATOM     12  C   LIG    1       22.845 -20.008   5.556  0.00  0.00    +0.014 C 
ENDBRANCH   2  10
BRANCH   1  13
ATOM     13  C   LIG    1       24.701 -22.141   7.349  0.00  0.00    +0.170 C 
ATOM     14  O   LIG    1       24.179 -21.698   8.368  0.00  0.00    -0.292 OA
BRANCH  13  16
ATOM     15  C   LIG    1       22.871 -23.744   6.693  0.00  0.00    +0.015 C 
ATOM     16  C   LIG    1       24.374 -23.570   6.916  0.00  0.00    +0.054 C 
ATOM     17  C   LIG    1       25.138 -23.917   5.641  0.00  0.00    +0.015 C 
ENDBRANCH  13  16
ENDBRANCH   1  13
TORSDOF 3
ENDMDL
MODEL 2
REMARK VINA RESULT:      -8.0      1.711      4.040
REMARK  Name = *****
REMARK                            x       y       z     vdW  Elec       q    Type
REMARK                         _______ _______ _______ _____ _____    ______ ____
ROOT
ATOM      1  C   LIG    1       25.398 -21.735   6.529  0.00  0.00    +0.066 A 
ATOM      2  C   LIG    1       24.637 -21.314   5.386  0.00  0.00    +0.077 A 
ATOM      3  N   LIG    1       24.325 -22.338   4.586  0.00  0.00    -0.170 NA
ATOM      4  N   LIG    1       24.839 -23.432   5.172  0.00  0.00    -0.239 N 
ATOM      5  C   LIG    1       24.798 -24.727   4.652  0.00  0.00    +0.113 A 
ATOM      6  C   LIG    1       25.352 -25.745   5.324  0.00  0.00    +0.020 A 
ATOM      7  C   LIG    1       25.951 -25.472   6.613  0.00  0.00    +0.004 A 
ATOM      8  C   LIG    1       25.987 -24.230   7.129  0.00  0.00    +0.028 A 
ATOM      9  C   LIG    1       25.456 -23.120   6.392  0.00  0.00    +0.078 A 
ENDROOT
BRANCH   2  10
ATOM     10  C   LIG    1       24.184 -19.925   4.993  0.00  0.00    +0.034 C 
ATOM     11  C   LIG    1       22.667 -19.745   5.156  0.00  0.00    +0.014 C 
ATOM     12  C   LIG    1       24.603 -19.582   3.562  0.00  0.00    +0.014 C 
ENDBRANCH   2  10
BRANCH   1  13
ATOM     13  C   LIG    1       25.967 -20.854   7.560  0.00  0.00    +0.170 C 
ATOM     14  O   LIG    1       25.282 -20.499   8.516  0.00  0.00    -0.292 OA
BRANCH  13  16
ATOM     15  C   LIG    1       28.388 -21.418   7.972  0.00  0.00    +0.015 C 
ATOM     16  C   LIG    1       27.410 -20.357   7.466  0.00  0.00    +0.054 C 
ATOM     17  C   LIG    1       27.740 -19.983   6.024  0.00  0.00    +0.015 C 
ENDBRANCH  13  16
ENDBRANCH   1  13
TORSDOF 3
ENDMDL
MODEL 3
REMARK VINA RESULT:      -7.8      2.021      4.676
REMARK  Name = *****
REMARK                            x       y       z     vdW  Elec       q    Type
REMARK                         _______ _______ _______ _____ _____    ______ ____
ROOT
ATOM      1  C   LIG    1       24.624 -22.496   6.650  0.00  0.00    +0.066 A 
ATOM      2  C   LIG    1       25.994 -22.202   6.965  0.00  0.00    +0.077 A 
ATOM      3  N   LIG    1       26.748 -23.305   7.003  0.00  0.00    -0.170 NA
ATOM      4  N   LIG    1       25.925 -24.323   6.702  0.00  0.00    -0.239 N 
ATOM      5  C   LIG    1       26.280 -25.674   6.680  0.00  0.00    +0.113 A 
ATOM      6  C   LIG    1       25.370 -26.608   6.371  0.00  0.00    +0.020 A 
ATOM      7  C   LIG    1       24.033 -26.176   6.025  0.00  0.00    +0.004 A 
ATOM      8  C   LIG    1       23.683 -24.877   6.033  0.00  0.00    +0.028 A 
ATOM      9  C   LIG    1       24.628 -23.871   6.424  0.00  0.00    +0.078 A 
ENDROOT
BRANCH   2  10
ATOM     10  C   LIG    1       26.646 -20.870   7.259  0.00  0.00    +0.034 C 
ATOM     11  C   LIG    1       28.162 -20.903   7.013  0.00  0.00    +0.014 C 
ATOM     12  C   LIG    1       26.356 -20.405   8.687  0.00  0.00    +0.014 C 
ENDBRANCH   2  10
BRANCH   1  13
ATOM     13  C   LIG    1       23.519 -21.526   6.608  0.00  0.00    +0.170 C 
ATOM     14  O   LIG    1       23.018 -21.116   7.651  0.00  0.00    -0.292 OA
BRANCH  13  16
ATOM     15  C   LIG    1       22.532 -19.553   5.390  0.00  0.00    +0.015 C 
ATOM     16  C   LIG    1       22.967 -21.015   5.277  0.00  0.00    +0.054 C 
ATOM     17  C   LIG    1       24.021 -21.167   4.183  0.00  0.00    +0.015 C 
ENDBRANCH  13  16
ENDBRANCH   1  13
TORSDOF 3
ENDMDL
MODEL 4
REMARK VINA RESULT:      -7.5      1.591      3.482
REMARK  Name = *****
REMARK                            x       y       z     vdW  Elec       q    Type
REMARK                         _______ _______ _______ _____ _____    ______ ____
ROOT
ATOM      1  C   LIG    1       25.561 -21.403   5.857  0.00  0.00    +0.066 A 
ATOM      2  C   LIG    1       25.461 -22.458   6.826  0.00  0.00    +0.077 A 
ATOM      3  N   LIG    1       26.559 -22.552   7.581  0.00  0.00    -0.170 NA
ATOM      4  N   LIG    1       27.381 -21.578   7.158  0.00  0.00    -0.239 N 
ATOM      5  C   LIG    1       28.672 -21.341   7.633  0.00  0.00    +0.113 A 
ATOM      6  C   LIG    1       29.407 -20.339   7.130  0.00  0.00    +0.020 A 
ATOM      7  C   LIG    1       28.812 -19.493   6.118  0.00  0.00    +0.004 A 
ATOM      8  C   LIG    1       27.565 -19.705   5.659  0.00  0.00    +0.028 A 
ATOM      9  C   LIG    1       26.791 -20.813   6.142  0.00  0.00    +0.078 A 
ENDROOT
BRANCH   2  10
ATOM     10  C   LIG    1       24.330 -23.432   7.070  0.00  0.00    +0.034 C 
ATOM     11  C   LIG    1       24.348 -24.599   6.071  0.00  0.00    +0.014 C 
ATOM     12  C   LIG    1       22.969 -22.732   7.035  0.00  0.00    +0.014 C 
ENDBRANCH   2  10
BRANCH   1  13
ATOM     13  C   LIG    1       24.567 -21.081   4.822  0.00  0.00    +0.170 C 
ATOM     14  O   LIG    1       24.340 -21.879   3.916  0.00  0.00    -0.292 OA
BRANCH  13  16
ATOM     15  C   LIG    1       24.153 -18.903   3.625  0.00  0.00    +0.015 C 
ATOM     16  C   LIG    1       23.803 -19.757   4.844  0.00  0.00    +0.054 C 
ATOM     17  C   LIG    1       22.300 -20.024   4.886  0.00  0.00    +0.015 C 
ENDBRANCH  13  16
ENDBRANCH   1  13
TORSDOF 3
ENDMDL
MODEL 5
REMARK VINA RESULT:      -7.3      0.902      4.056
REMARK  Name = *****
REMARK                            x       y       z     vdW  Elec       q    Type
REMARK                         _______ _______ _______ _____ _____    ______ ____
ROOT
ATOM      1  C   LIG    1       25.159 -21.043   6.572  0.00  0.00    +0.066 A 
ATOM      2  C   LIG    1       26.429 -20.551   6.117  0.00  0.00    +0.077 A 
ATOM      3  N   LIG    1       26.306 -19.750   5.055  0.00  0.00    -0.170 NA
ATOM      4  N   LIG    1       24.988 -19.677   4.801  0.00  0.00    -0.239 N 
ATOM      5  C   LIG    1       24.403 -18.987   3.738  0.00  0.00    +0.113 A 
ATOM      6  C   LIG    1       23.073 -18.988   3.578  0.00  0.00    +0.020 A 
ATOM      7  C   LIG    1       22.265 -19.686   4.556  0.00  0.00    +0.004 A 
ATOM      8  C   LIG    1       22.817 -20.346   5.591  0.00  0.00    +0.028 A 
ATOM      9  C   LIG    1       24.243 -20.407   5.737  0.00  0.00    +0.078 A 
ENDROOT
BRANCH   2  10
ATOM     10  C   LIG    1       27.815 -20.829   6.656  0.00  0.00    +0.034 C 
ATOM     11  C   LIG    1       27.973 -20.358   8.109  0.00  0.00    +0.014 C 
ATOM     12  C   LIG    1       28.896 -20.195   5.777  0.00  0.00    +0.014 C 
ENDBRANCH   2  10
BRANCH   1  13
ATOM     13  C   LIG    1       24.946 -22.006   7.664  0.00  0.00    +0.170 C 
ATOM     14  O   LIG    1       24.952 -21.625   8.831  0.00  0.00    -0.292 OA
BRANCH  13  16
ATOM     15  C   LIG    1       23.336 -23.726   6.770  0.00  0.00    +0.015 C 
ATOM     16  C   LIG    1       24.720 -23.490   7.376  0.00  0.00    +0.054 C 
ATOM     17  C   LIG    1       25.802 -24.008   6.431  0.00  0.00    +0.015 C 
ENDBRANCH  13  16
ENDBRANCH   1  13
TORSDOF 3
ENDMDL
MODEL 6
REMARK VINA RESULT:      -6.9      1.312      1.681
REMARK  Name = *****
REMARK                            x       y       z     vdW  Elec       q    Type
REMARK                         _______ _______ _______ _____ _____    ______ ____
ROOT
ATOM      1  C   LIG    1       26.001 -21.203   5.795  0.00  0.00    +0.066 A 
ATOM      2  C   LIG    1       26.043 -20.086   4.894  0.00  0.00    +0.077 A 
ATOM      3  N   LIG    1       27.120 -19.320   5.092  0.00  0.00    -0.170 NA
ATOM      4  N   LIG    1       27.808 -19.905   6.088  0.00  0.00    -0.239 N 
ATOM      5  C   LIG    1       28.980 -19.412   6.663  0.00  0.00    +0.113 A 
ATOM      6  C   LIG    1       29.579 -20.079   7.659  0.00  0.00    +0.020 A 
ATOM      7  C   LIG    1       29.003 -21.335   8.087  0.00  0.00    +0.004 A 
ATOM      8  C   LIG    1       27.879 -21.825   7.533  0.00  0.00    +0.028 A 
ATOM      9  C   LIG    1       27.191 -21.090   6.511  0.00  0.00    +0.078 A 
ENDROOT
BRANCH   2  10
ATOM     10  C   LIG    1       25.061 -19.686   3.815  0.00  0.00    +0.034 C 
ATOM     11  C   LIG    1       25.399 -18.317   3.206  0.00  0.00    +0.014 C 
ATOM     12  C   LIG    1       23.622 -19.687   4.338  0.00  0.00    +0.014 C 
ENDBRANCH   2  10
BRANCH   1  13
ATOM     13  C   LIG    1       24.917 -22.191   5.897  0.00  0.00    +0.170 C 
ATOM     14  O   LIG    1       24.705 -22.973   4.973  0.00  0.00    -0.292 OA
BRANCH  13  16
ATOM     15  C   LIG    1       23.553 -20.874   7.557  0.00  0.00    +0.015 C 
ATOM     16  C   LIG    1       24.030 -22.266   7.140  0.00  0.00    +0.054 C 
ATOM     17  C   LIG    1       22.832 -23.174   6.872  0.00  0.00    +0.015 C 
ENDBRANCH  13  16
ENDBRANCH   1  13
TORSDOF 3
ENDMDL
MODEL 7
REMARK VINA RESULT:      -6.8      2.741      4.877
REMARK  Name = *****
REMARK                            x       y       z     vdW  Elec       q    Type
REMARK                         _______ _______ _______ _____ _____    ______ ____
ROOT
ATOM      1  C   LIG    1       25.113 -23.058   6.492  0.00  0.00    +0.066 A 
ATOM      2  C   LIG    1       23.679 -22.997   6.534  0.00  0.00    +0.077 A 
ATOM      3  N   LIG    1       23.121 -24.206   6.425  0.00  0.00    -0.170 NA
ATOM      4  N   LIG    1       24.142 -25.075   6.333  0.00  0.00    -0.239 N 
ATOM      5  C   LIG    1       24.021 -26.453   6.148  0.00  0.00    +0.113 A 
ATOM      6  C   LIG    1       25.114 -27.224   6.063  0.00  0.00    +0.020 A 
ATOM      7  C   LIG    1       26.409 -26.597   6.209  0.00  0.00    +0.004 A 
ATOM      8  C   LIG    1       26.538 -25.270   6.397  0.00  0.00    +0.028 A 
ATOM      9  C   LIG    1       25.380 -24.424   6.425  0.00  0.00    +0.078 A 
ENDROOT
BRANCH   2  10
ATOM     10  C   LIG    1       22.773 -21.792   6.662  0.00  0.00    +0.034 C 
ATOM     11  C   LIG    1       22.566 -21.080   5.317  0.00  0.00    +0.014 C 
ATOM     12  C   LIG    1       23.299 -20.803   7.705  0.00  0.00    +0.014 C 
ENDBRANCH   2  10
BRANCH   1  13
ATOM     13  C   LIG    1       26.028 -21.907   6.506  0.00  0.00    +0.170 C 
ATOM     14  O   LIG    1       26.031 -21.110   5.572  0.00  0.00    -0.292 OA
BRANCH  13  16
ATOM     15  C   LIG    1       28.399 -21.359   7.158  0.00  0.00    +0.015 C 
ATOM     16  C   LIG    1       26.994 -21.680   7.669  0.00  0.00    +0.054 C 
ATOM     17  C   LIG    1       26.486 -20.546   8.555  0.00  0.00    +0.015 C 
ENDBRANCH  13  16
ENDBRANCH   1  13
TORSDOF 3
ENDMDL
MODEL 8
REMARK VINA RESULT:      -6.6      1.482      4.524
REMARK  Name = *****
REMARK                            x       y       z     vdW  Elec       q    Type
REMARK                         _______ _______ _______ _____ _____    ______ ____
ROOT
ATOM      1  C   LIG    1       25.988 -21.216   6.247  0.00  0.00    +0.066 A 
ATOM      2  C   LIG    1       25.041 -22.291   6.154  0.00  0.00    +0.077 A 
ATOM      3  N   LIG    1       24.178 -22.115   5.149  0.00  0.00    -0.170 NA
ATOM      4  N   LIG    1       24.535 -20.963   4.556  0.00  0.00    -0.239 N 
ATOM      5  C   LIG    1       23.870 -20.360   3.487  0.00  0.00    +0.113 A 
ATOM      6  C   LIG    1       24.314 -19.203   2.978  0.00  0.00    +0.020 A 
ATOM      7  C   LIG    1       25.516 -18.624   3.537  0.00  0.00    +0.004 A 
ATOM      8  C   LIG    1       26.172 -19.201   4.561  0.00  0.00    +0.028 A 
ATOM      9  C   LIG    1       25.671 -20.406   5.158  0.00  0.00    +0.078 A 
ENDROOT
BRANCH   2  10
ATOM     10  C   LIG    1       24.901 -23.523   7.020  0.00  0.00    +0.034 C 
ATOM     11  C   LIG    1       26.049 -24.519   6.796  0.00  0.00    +0.014 C 
ATOM     12  C   LIG    1       23.554 -24.216   6.797  0.00  0.00    +0.014 C 
ENDBRANCH   2  10
BRANCH   1  13
ATOM     13  C   LIG    1       27.019 -21.059   7.284  0.00  0.00    +0.170 C 
ATOM     14  O   LIG    1       26.697 -20.966   8.465  0.00  0.00    -0.292 OA
BRANCH  13  16
ATOM     15  C   LIG    1       28.932 -19.570   6.596  0.00  0.00    +0.015 C 
ATOM     16  C   LIG    1       28.503 -21.001   6.920  0.00  0.00    +0.054 C 
ATOM     17  C   LIG    1       29.343 -21.554   8.069  0.00  0.00    +0.015 C 
ENDBRANCH  13  16
ENDBRANCH   1  13
TORSDOF 3
ENDMDL
MODEL 9
REMARK VINA RESULT:      -6.3      1.504      3.319
REMARK  Name = *****
REMARK                            x       y       z     vdW  Elec       q    Type
REMARK                         _______ _______ _______ _____ _____    ______ ____
ROOT
ATOM      1  C   LIG    1       25.027 -21.527   6.876  0.00  0.00    +0.066 A 
ATOM      2  C   LIG    1       25.166 -22.927   6.589  0.00  0.00    +0.077 A 
ATOM      3  N   LIG    1       26.426 -23.347   6.734  0.00  0.00    -0.170 NA
ATOM      4  N   LIG    1       27.128 -22.272   7.130  0.00  0.00    -0.239 N 
ATOM      5  C   LIG    1       28.506 -22.239   7.350  0.00  0.00    +0.113 A 
ATOM      6  C   LIG    1       29.104 -21.103   7.738  0.00  0.00    +0.020 A 
ATOM      7  C   LIG    1       28.279 -19.936   7.961  0.00  0.00    +0.004 A 
ATOM      8  C   LIG    1       26.948 -19.959   7.762  0.00  0.00    +0.028 A 
ATOM      9  C   LIG    1       26.304 -21.149   7.284  0.00  0.00    +0.078 A 
ENDROOT
BRANCH   2  10
ATOM     10  C   LIG    1       24.117 -23.925   6.150  0.00  0.00    +0.034 C 
ATOM     11  C   LIG    1       22.788 -23.729   6.894  0.00  0.00    +0.014 C 
ATOM     12  C   LIG    1       24.607 -25.365   6.320  0.00  0.00    +0.014 C 
ENDBRANCH   2  10
BRANCH   1  13
ATOM     13  C   LIG    1       23.797 -20.733   6.737  0.00  0.00    +0.170 C 
ATOM     14  O   LIG    1       23.073 -20.542   7.710  0.00  0.00    -0.292 OA
BRANCH  13  16
ATOM     15  C   LIG    1       24.487 -20.344   4.345  0.00  0.00    +0.015 C 
ATOM     16  C   LIG    1       23.388 -20.139   5.389  0.00  0.00    +0.054 C 
ATOM     17  C   LIG    1       22.085 -20.776   4.912  0.00  0.00    +0.015 C 
ENDBRANCH  13  16
ENDBRANCH   1  13
TORSDOF 3
ENDMDL
