MODEL 1
REMARK VINA RESULT:      -4.3      0.000      0.000
REMARK  Name = *****
REMARK                            x       y       z     vdW  Elec       q    Type
REMARK                         _______ _______ _______ _____ _____    ______ ____
ROOT
ATOM      1  C   LIG    1       25.250 -13.792   3.697  0.00  0.00    +0.072 C 
ATOM      2  C   LIG    1       26.094 -13.344   4.916  0.00  0.00    +0.230 C 
ATOM      3  O   LIG    1       25.610 -13.041   6.007  0.00  0.00    -0.274 OA
ATOM      4  N   LIG    1       27.461 -13.349   4.766  0.00  0.00    -0.256 N 
ATOM      5  H   LIG    1       27.990 -13.094   5.588  0.00  0.00    +0.158 HD
ATOM      6  C   LIG    1       28.190 -13.505   3.617  0.00  0.00    +0.219 C 
ATOM      7  O   LIG    1       29.413 -13.413   3.627  0.00  0.00    -0.275 OA
ATOM      8  C   LIG    1       27.417 -13.827   2.365  0.00  0.00    +0.097 C 
ATOM      9  C   LIG    1       25.999 -13.272   2.443  0.00  0.00    +0.030 C 
ENDROOT
BRANCH   1  10
ATOM     10  C   LIG    1       25.050 -15.329   3.705  0.00  0.00    -0.032 A 
ATOM     11  C   LIG    1       26.066 -16.212   3.291  0.00  0.00    +0.005 A 
ATOM     12  C   LIG    1       25.875 -17.598   3.305  0.00  0.00    +0.000 A 
ATOM     13  C   LIG    1       24.658 -18.133   3.709  0.00  0.00    +0.000 A 
ATOM     14  C   LIG    1       23.625 -17.282   4.085  0.00  0.00    +0.000 A 
ATOM     15  C   LIG    1       23.816 -15.897   4.074  0.00  0.00    +0.005 A 
ENDBRANCH   1  10
BRANCH   1  17
ATOM     16  C   LIG    1       23.726 -11.703   3.326  0.00  0.00    +0.005 C 
ATOM     17  C   LIG    1       23.829 -13.157   3.788  0.00  0.00    +0.017 C 
ENDBRANCH   1  17
TORSDOF 2
ENDMDL
MODEL 2
REMARK VINA RESULT:      -4.1      1.923      3.450
REMARK  Name = *****
REMARK                            x       y       z     vdW  Elec       q    Type
REMARK                         _______ _______ _______ _____ _____    ______ ____
ROOT
ATOM      1  C   LIG    1       25.779 -14.184   3.973  0.00  0.00    +0.072 C 
ATOM      2  C   LIG    1       26.088 -13.760   2.517  0.00  0.00    +0.230 C 
ATOM      3  O   LIG    1       27.051 -14.177   1.873  0.00  0.00    -0.274 OA
ATOM      4  N   LIG    1       25.189 -12.915   1.907  0.00  0.00    -0.256 N 
ATOM      5  H   LIG    1       25.389 -12.687   0.944  0.00  0.00    +0.158 HD
ATOM      6  C   LIG    1       24.149 -12.227   2.475  0.00  0.00    +0.219 C 
ATOM      7  O   LIG    1       23.472 -11.447   1.813  0.00  0.00    -0.275 OA
ATOM      8  C   LIG    1       23.868 -12.505   3.928  0.00  0.00    +0.097 C 
ATOM      9  C   LIG    1       25.135 -12.948   4.652  0.00  0.00    +0.030 C 
ENDROOT
BRANCH   1  10
ATOM     10  C   LIG    1       24.876 -15.443   3.997  0.00  0.00    -0.032 A 
ATOM     11  C   LIG    1       23.534 -15.386   4.420  0.00  0.00    +0.005 A 
ATOM     12  C   LIG    1       22.727 -16.529   4.435  0.00  0.00    +0.000 A 
ATOM     13  C   LIG    1       23.248 -17.759   4.051  0.00  0.00    +0.000 A 
ATOM     14  C   LIG    1       24.581 -17.850   3.667  0.00  0.00    +0.000 A 
ATOM     15  C   LIG    1       25.387 -16.708   3.649  0.00  0.00    +0.005 A 
ENDBRANCH   1  10
BRANCH   1  17
ATOM     16  C   LIG    1       28.015 -13.406   5.078  0.00  0.00    +0.005 C 
ATOM     17  C   LIG    1       27.106 -14.573   4.693  0.00  0.00    +0.017 C 
ENDBRANCH   1  17
TORSDOF 2
ENDMDL
MODEL 3
REMARK VINA RESULT:      -4.0      1.261      1.351
REMARK  Name = *****
REMARK                            x       y       z     vdW  Elec       q    Type
REMARK                         _______ _______ _______ _____ _____    ______ ____
ROOT
ATOM      1  C   LIG    1       25.050 -13.573   3.411  0.00  0.00    +0.072 C 
ATOM      2  C   LIG    1       25.026 -12.767   4.733  0.00  0.00    +0.230 C 
ATOM      3  O   LIG    1       24.036 -12.161   5.145  0.00  0.00    -0.274 OA
ATOM      4  N   LIG    1       26.165 -12.794   5.503  0.00  0.00    -0.256 N 
ATOM      5  H   LIG    1       26.110 -12.296   6.380  0.00  0.00    +0.158 HD
ATOM      6  C   LIG    1       27.405 -13.274   5.171  0.00  0.00    +0.219 C 
ATOM      7  O   LIG    1       28.353 -13.163   5.942  0.00  0.00    -0.275 OA
ATOM      8  C   LIG    1       27.527 -13.968   3.840  0.00  0.00    +0.097 C 
ATOM      9  C   LIG    1       26.491 -13.439   2.854  0.00  0.00    +0.030 C 
ENDROOT
BRANCH   1  10
ATOM     10  C   LIG    1       24.617 -15.041   3.656  0.00  0.00    -0.032 A 
ATOM     11  C   LIG    1       25.446 -16.127   3.316  0.00  0.00    +0.005 A 
ATOM     12  C   LIG    1       25.045 -17.448   3.545  0.00  0.00    +0.000 A 
ATOM     13  C   LIG    1       23.797 -17.715   4.096  0.00  0.00    +0.000 A 
ATOM     14  C   LIG    1       22.943 -16.663   4.405  0.00  0.00    +0.000 A 
ATOM     15  C   LIG    1       23.344 -15.343   4.179  0.00  0.00    +0.005 A 
ENDBRANCH   1  10
BRANCH   1  17
ATOM     16  C   LIG    1       24.403 -11.612   1.812  0.00  0.00    +0.005 C 
ATOM     17  C   LIG    1       24.019 -12.964   2.413  0.00  0.00    +0.017 C 
ENDBRANCH   1  17
TORSDOF 2
ENDMDL
MODEL 4
REMARK VINA RESULT:      -3.4      4.562      7.022
REMARK  Name = *****
REMARK                            x       y       z     vdW  Elec       q    Type
REMARK                         _______ _______ _______ _____ _____    ______ ____
ROOT
ATOM      1  C   LIG    1       23.100 -20.237   4.717  0.00  0.00    +0.072 C 
ATOM      2  C   LIG    1       24.219 -21.078   4.055  0.00  0.00    +0.230 C 
ATOM      3  O   LIG    1       24.161 -21.503   2.901  0.00  0.00    -0.274 OA
ATOM      4  N   LIG    1       25.357 -21.299   4.795  0.00  0.00    -0.256 N 
ATOM      5  H   LIG    1       26.089 -21.812   4.326  0.00  0.00    +0.158 HD
ATOM      6  C   LIG    1       25.568 -21.047   6.126  0.00  0.00    +0.219 C 
ATOM      7  O   LIG    1       26.620 -21.368   6.670  0.00  0.00    -0.275 OA
ATOM      8  C   LIG    1       24.465 -20.335   6.863  0.00  0.00    +0.097 C 
ATOM      9  C   LIG    1       23.111 -20.617   6.221  0.00  0.00    +0.030 C 
ENDROOT
BRANCH   1  10
ATOM     10  C   LIG    1       23.326 -18.725   4.461  0.00  0.00    -0.032 A 
ATOM     11  C   LIG    1       22.354 -17.762   4.794  0.00  0.00    +0.005 A 
ATOM     12  C   LIG    1       22.571 -16.400   4.560  0.00  0.00    +0.000 A 
ATOM     13  C   LIG    1       23.752 -15.970   3.967  0.00  0.00    +0.000 A 
ATOM     14  C   LIG    1       24.711 -16.904   3.593  0.00  0.00    +0.000 A 
ATOM     15  C   LIG    1       24.497 -18.265   3.829  0.00  0.00    +0.005 A 
ENDBRANCH   1  10
BRANCH   1  17
ATOM     16  C   LIG    1       20.857 -21.567   4.873  0.00  0.00    +0.005 C 
ATOM     17  C   LIG    1       21.727 -20.599   4.072  0.00  0.00    +0.017 C 
ENDBRANCH   1  17
TORSDOF 2
ENDMDL
MODEL 5
REMARK VINA RESULT:      -3.4      4.566      6.925
REMARK  Name = *****
REMARK                            x       y       z     vdW  Elec       q    Type
REMARK                         _______ _______ _______ _____ _____    ______ ____
ROOT
ATOM      1  C   LIG    1       23.090 -20.240   4.705  0.00  0.00    +0.072 C 
ATOM      2  C   LIG    1       24.210 -21.084   4.049  0.00  0.00    +0.230 C 
ATOM      3  O   LIG    1       24.156 -21.513   2.896  0.00  0.00    -0.274 OA
ATOM      4  N   LIG    1       25.345 -21.305   4.794  0.00  0.00    -0.256 N 
ATOM      5  H   LIG    1       26.078 -21.821   4.329  0.00  0.00    +0.158 HD
ATOM      6  C   LIG    1       25.552 -21.050   6.124  0.00  0.00    +0.219 C 
ATOM      7  O   LIG    1       26.601 -21.370   6.673  0.00  0.00    -0.275 OA
ATOM      8  C   LIG    1       24.447 -20.333   6.855  0.00  0.00    +0.097 C 
ATOM      9  C   LIG    1       23.095 -20.615   6.209  0.00  0.00    +0.030 C 
ENDROOT
BRANCH   1  10
ATOM     10  C   LIG    1       23.320 -18.729   4.444  0.00  0.00    -0.032 A 
ATOM     11  C   LIG    1       24.505 -18.249   3.855  0.00  0.00    +0.005 A 
ATOM     12  C   LIG    1       24.700 -16.883   3.622  0.00  0.00    +0.000 A 
ATOM     13  C   LIG    1       23.727 -15.963   3.994  0.00  0.00    +0.000 A 
ATOM     14  C   LIG    1       22.564 -16.407   4.614  0.00  0.00    +0.000 A 
ATOM     15  C   LIG    1       22.367 -17.772   4.844  0.00  0.00    +0.005 A 
ENDBRANCH   1  10
BRANCH   1  17
ATOM     16  C   LIG    1       20.846 -21.569   4.853  0.00  0.00    +0.005 C 
ATOM     17  C   LIG    1       21.719 -20.601   4.055  0.00  0.00    +0.017 C 
ENDBRANCH   1  17
TORSDOF 2
ENDMDL
MODEL 6
REMARK VINA RESULT:      -3.2      1.813      3.470
REMARK  Name = *****
REMARK                            x       y       z     vdW  Elec       q    Type
REMARK                         _______ _______ _______ _____ _____    ______ ____
ROOT
ATOM      1  C   LIG    1       26.060 -13.822   3.698  0.00  0.00    +0.072 C 
ATOM      2  C   LIG    1       25.140 -12.775   3.024  0.00  0.00    +0.230 C 
ATOM      3  O   LIG    1       25.149 -12.534   1.816  0.00  0.00    -0.274 OA
ATOM      4  N   LIG    1       24.229 -12.132   3.829  0.00  0.00    -0.256 N 
ATOM      5  H   LIG    1       23.612 -11.485   3.360  0.00  0.00    +0.158 HD
ATOM      6  C   LIG    1       24.149 -12.139   5.198  0.00  0.00    +0.219 C 
ATOM      7  O   LIG    1       23.320 -11.452   5.785  0.00  0.00    -0.275 OA
ATOM      8  C   LIG    1       25.101 -13.052   5.925  0.00  0.00    +0.097 C 
ATOM      9  C   LIG    1       26.373 -13.271   5.113  0.00  0.00    +0.030 C 
ENDROOT
BRANCH   1  10
ATOM     10  C   LIG    1       25.382 -15.216   3.714  0.00  0.00    -0.032 A 
ATOM     11  C   LIG    1       24.049 -15.389   4.133  0.00  0.00    +0.005 A 
ATOM     12  C   LIG    1       23.447 -16.652   4.140  0.00  0.00    +0.000 A 
ATOM     13  C   LIG    1       24.169 -17.775   3.753  0.00  0.00    +0.000 A 
ATOM     14  C   LIG    1       25.499 -17.637   3.372  0.00  0.00    +0.000 A 
ATOM     15  C   LIG    1       26.101 -16.375   3.361  0.00  0.00    +0.005 A 
ENDBRANCH   1  10
BRANCH   1  17
ATOM     16  C   LIG    1       28.614 -13.324   3.475  0.00  0.00    +0.005 C 
ATOM     17  C   LIG    1       27.371 -13.973   2.868  0.00  0.00    +0.017 C 
ENDBRANCH   1  17
TORSDOF 2
ENDMDL
MODEL 7
REMARK VINA RESULT:      -2.2      1.747      3.549
REMARK  Name = *****
REMARK                            x       y       z     vdW  Elec       q    Type
REMARK                         _______ _______ _______ _____ _____    ______ ____
ROOT
ATOM      1  C   LIG    1       26.893 -13.846   3.838  0.00  0.00    +0.072 C 
ATOM      2  C   LIG    1       25.893 -13.014   2.998  0.00  0.00    +0.230 C 
ATOM      3  O   LIG    1       26.068 -12.729   1.813  0.00  0.00    -0.274 OA
ATOM      4  N   LIG    1       24.723 -12.635   3.613  0.00  0.00    -0.256 N 
ATOM      5  H   LIG    1       24.068 -12.131   3.033  0.00  0.00    +0.158 HD
ATOM      6  C   LIG    1       24.394 -12.718   4.942  0.00  0.00    +0.219 C 
ATOM      7  O   LIG    1       23.332 -12.268   5.359  0.00  0.00    -0.275 OA
ATOM      8  C   LIG    1       25.383 -13.413   5.840  0.00  0.00    +0.097 C 
ATOM      9  C   LIG    1       26.798 -13.296   5.285  0.00  0.00    +0.030 C 
ENDROOT
BRANCH   1  10
ATOM     10  C   LIG    1       26.573 -15.359   3.730  0.00  0.00    -0.032 A 
ATOM     11  C   LIG    1       25.293 -15.824   3.373  0.00  0.00    +0.005 A 
ATOM     12  C   LIG    1       25.017 -17.192   3.276  0.00  0.00    +0.000 A 
ATOM     13  C   LIG    1       26.005 -18.128   3.557  0.00  0.00    +0.000 A 
ATOM     14  C   LIG    1       27.266 -17.696   3.951  0.00  0.00    +0.000 A 
ATOM     15  C   LIG    1       27.544 -16.329   4.045  0.00  0.00    +0.005 A 
ENDBRANCH   1  10
BRANCH   1  17
ATOM     16  C   LIG    1       29.148 -12.531   3.914  0.00  0.00    +0.005 C 
ATOM     17  C   LIG    1       28.332 -13.653   3.272  0.00  0.00    +0.017 C 
ENDBRANCH   1  17
TORSDOF 2
ENDMDL
MODEL 8
REMARK VINA RESULT:      -1.9      4.700      6.651
REMARK  Name = *****
REMARK                            x       y       z     vdW  Elec       q    Type
REMARK                         _______ _______ _______ _____ _____    ______ ____
ROOT
ATOM      1  C   LIG    1       23.939 -20.188   4.120  0.00  0.00    +0.072 C 
ATOM      2  C   LIG    1       22.679 -20.009   5.002  0.00  0.00    +0.230 C 
ATOM      3  O   LIG    1       22.054 -20.947   5.500  0.00  0.00    -0.274 OA
ATOM      4  N   LIG    1       22.289 -18.720   5.281  0.00  0.00    -0.256 N 
ATOM      5  H   LIG    1       21.490 -18.629   5.893  0.00  0.00    +0.158 HD
ATOM      6  C   LIG    1       22.743 -17.554   4.722  0.00  0.00    +0.219 C 
ATOM      7  O   LIG    1       22.244 -16.474   5.022  0.00  0.00    -0.275 OA
ATOM      8  C   LIG    1       23.895 -17.670   3.759  0.00  0.00    +0.097 C 
ATOM      9  C   LIG    1       23.903 -19.036   3.083  0.00  0.00    +0.030 C 
ENDROOT
BRANCH   1  10
ATOM     10  C   LIG    1       25.221 -20.195   4.992  0.00  0.00    -0.032 A 
ATOM     11  C   LIG    1       26.438 -19.662   4.526  0.00  0.00    +0.005 A 
ATOM     12  C   LIG    1       27.588 -19.672   5.323  0.00  0.00    +0.000 A 
ATOM     13  C   LIG    1       27.556 -20.235   6.593  0.00  0.00    +0.000 A 
ATOM     14  C   LIG    1       26.377 -20.804   7.062  0.00  0.00    +0.000 A 
ATOM     15  C   LIG    1       25.226 -20.792   6.268  0.00  0.00    +0.005 A 
ENDBRANCH   1  10
BRANCH   1  17
ATOM     16  C   LIG    1       23.780 -21.521   1.880  0.00  0.00    +0.005 C 
ATOM     17  C   LIG    1       23.879 -21.572   3.404  0.00  0.00    +0.017 C 
ENDBRANCH   1  17
TORSDOF 2
ENDMDL
MODEL 9
REMARK VINA RESULT:      -1.9      3.518      5.667
REMARK  Name = *****
REMARK                            x       y       z     vdW  Elec       q    Type
REMARK                         _______ _______ _______ _____ _____    ______ ____
ROOT
ATOM      1  C   LIG    1       24.771 -19.456   3.637  0.00  0.00    +0.072 C 
ATOM      2  C   LIG    1       23.631 -18.509   4.083  0.00  0.00    +0.230 C 
ATOM      3  O   LIG    1       22.524 -18.901   4.456  0.00  0.00    -0.274 OA
ATOM      4  N   LIG    1       23.911 -17.163   4.113  0.00  0.00    -0.256 N 
ATOM      5  H   LIG    1       23.165 -16.570   4.448  0.00  0.00    +0.158 HD
ATOM      6  C   LIG    1       25.006 -16.510   3.609  0.00  0.00    +0.219 C 
ATOM      7  O   LIG    1       25.084 -15.287   3.646  0.00  0.00    -0.275 OA
ATOM      8  C   LIG    1       26.107 -17.371   3.048  0.00  0.00    +0.097 C 
ATOM      9  C   LIG    1       25.553 -18.696   2.534  0.00  0.00    +0.030 C 
ENDROOT
BRANCH   1  10
ATOM     10  C   LIG    1       25.650 -19.863   4.847  0.00  0.00    -0.032 A 
ATOM     11  C   LIG    1       27.042 -19.656   4.858  0.00  0.00    +0.005 A 
ATOM     12  C   LIG    1       27.824 -20.025   5.958  0.00  0.00    +0.000 A 
ATOM     13  C   LIG    1       27.238 -20.632   7.062  0.00  0.00    +0.000 A 
ATOM     14  C   LIG    1       25.871 -20.885   7.061  0.00  0.00    +0.000 A 
ATOM     15  C   LIG    1       25.088 -20.513   5.964  0.00  0.00    +0.005 A 
ENDBRANCH   1  10
BRANCH   1  17
ATOM     16  C   LIG    1       23.293 -21.572   4.038  0.00  0.00    +0.005 C 
ATOM     17  C   LIG    1       24.160 -20.772   3.066  0.00  0.00    +0.017 C 
ENDBRANCH   1  17
TORSDOF 2
ENDMDL
