MODEL 1
REMARK VINA RESULT:      -7.8      0.000      0.000
REMARK  Name = *****
REMARK                            x       y       z     vdW  Elec       q    Type
REMARK                         _______ _______ _______ _____ _____    ______ ____
ROOT
ATOM      1  C   LIG    1       29.341 -20.528   7.657  0.00  0.00    +0.341 C 
ATOM      2  O   LIG    1       29.862 -21.168   8.564  0.00  0.00    -0.247 OA
ENDROOT
BRANCH   1   3
ATOM      3  O   LIG    1       28.329 -20.988   6.857  0.00  0.00    -0.459 OA
BRANCH   3   8
ATOM      4  C   LIG    1       23.577 -20.460   7.234  0.00  0.00    +0.105 C 
ATOM      5  N   LIG    1       24.425 -21.639   7.237  0.00  0.00    -0.299 NA
ATOM      6  C   LIG    1       25.388 -21.742   8.336  0.00  0.00    +0.060 C 
ATOM      7  C   LIG    1       26.379 -20.569   8.364  0.00  0.00    +0.063 C 
ATOM      8  C   LIG    1       27.070 -20.299   7.016  0.00  0.00    +0.179 C 
ATOM      9  C   LIG    1       26.207 -20.670   5.793  0.00  0.00    +0.063 C 
ATOM     10  C   LIG    1       26.088 -23.054   7.968  0.00  0.00    +0.020 C 
ATOM     11  C   LIG    1       25.986 -23.126   6.441  0.00  0.00    +0.020 C 
ATOM     12  C   LIG    1       25.245 -21.845   6.042  0.00  0.00    +0.060 C 
ENDBRANCH   3   8
ENDBRANCH   1   3
BRANCH   1  13
ATOM     13  C   LIG    1       29.640 -19.053   7.339  0.00  0.00    +0.253 C 
BRANCH  13  14
ATOM     14  C   LIG    1       30.358 -18.342   8.463  0.00  0.00    -0.008 A 
ATOM     15  C   LIG    1       29.694 -17.980   9.646  0.00  0.00    +0.007 A 
ATOM     16  C   LIG    1       30.365 -17.292  10.657  0.00  0.00    +0.000 A 
ATOM     17  C   LIG    1       31.707 -16.954  10.498  0.00  0.00    +0.000 A 
ATOM     18  C   LIG    1       32.381 -17.311   9.334  0.00  0.00    +0.000 A 
ATOM     19  C   LIG    1       31.713 -18.001   8.321  0.00  0.00    +0.007 A 
ENDBRANCH  13  14
BRANCH  13  20
ATOM     20  O   LIG    1       30.358 -18.915   6.107  0.00  0.00    -0.376 OA
ATOM     21  H   LIG    1       31.176 -18.436   6.330  0.00  0.00    +0.211 HD
ENDBRANCH  13  20
ENDBRANCH   1  13
TORSDOF 5
ENDMDL
MODEL 2
REMARK VINA RESULT:      -7.7      0.083      1.082
REMARK  Name = *****
REMARK                            x       y       z     vdW  Elec       q    Type
REMARK                         _______ _______ _______ _____ _____    ______ ____
ROOT
ATOM      1  C   LIG    1       29.263 -20.527   7.692  0.00  0.00    +0.341 C 
ATOM      2  O   LIG    1       29.772 -21.141   8.624  0.00  0.00    -0.247 OA
ENDROOT
BRANCH   1   3
ATOM      3  O   LIG    1       28.252 -21.005   6.901  0.00  0.00    -0.459 OA
BRANCH   3   8
ATOM      4  C   LIG    1       23.497 -20.449   7.192  0.00  0.00    +0.105 C 
ATOM      5  N   LIG    1       24.338 -21.633   7.210  0.00  0.00    -0.299 NA
ATOM      6  C   LIG    1       25.280 -21.742   8.327  0.00  0.00    +0.060 C 
ATOM      7  C   LIG    1       26.278 -20.575   8.373  0.00  0.00    +0.063 C 
ATOM      8  C   LIG    1       26.994 -20.309   7.038  0.00  0.00    +0.179 C 
ATOM      9  C   LIG    1       26.152 -20.674   5.799  0.00  0.00    +0.063 C 
ATOM     10  C   LIG    1       25.979 -23.058   7.970  0.00  0.00    +0.020 C 
ATOM     11  C   LIG    1       25.904 -23.129   6.442  0.00  0.00    +0.020 C 
ATOM     12  C   LIG    1       25.178 -21.842   6.030  0.00  0.00    +0.060 C 
ENDBRANCH   3   8
ENDBRANCH   1   3
BRANCH   1  13
ATOM     13  C   LIG    1       29.577 -19.067   7.327  0.00  0.00    +0.253 C 
BRANCH  13  14
ATOM     14  C   LIG    1       30.325 -18.334   8.418  0.00  0.00    -0.008 A 
ATOM     15  C   LIG    1       31.689 -18.028   8.294  0.00  0.00    +0.007 A 
ATOM     16  C   LIG    1       32.371 -17.383   9.326  0.00  0.00    +0.000 A 
ATOM     17  C   LIG    1       31.700 -17.038  10.496  0.00  0.00    +0.000 A 
ATOM     18  C   LIG    1       30.345 -17.329  10.632  0.00  0.00    +0.000 A 
ATOM     19  C   LIG    1       29.660 -17.973   9.600  0.00  0.00    +0.007 A 
ENDBRANCH  13  14
BRANCH  13  20
ATOM     20  O   LIG    1       30.274 -18.974   6.080  0.00  0.00    -0.376 OA
ATOM     21  H   LIG    1       29.658 -19.313   5.406  0.00  0.00    +0.211 HD
ENDBRANCH  13  20
ENDBRANCH   1  13
TORSDOF 5
ENDMDL
MODEL 3
REMARK VINA RESULT:      -7.7      0.594      1.638
REMARK  Name = *****
REMARK                            x       y       z     vdW  Elec       q    Type
REMARK                         _______ _______ _______ _____ _____    ______ ____
ROOT
ATOM      1  C   LIG    1       29.097 -20.024   6.698  0.00  0.00    +0.341 C 
ATOM      2  O   LIG    1       29.161 -19.233   5.763  0.00  0.00    -0.247 OA
ENDROOT
BRANCH   1   3
ATOM      3  O   LIG    1       28.070 -20.907   6.903  0.00  0.00    -0.459 OA
BRANCH   3   8
ATOM      4  C   LIG    1       23.283 -20.683   7.110  0.00  0.00    +0.105 C 
ATOM      5  N   LIG    1       24.203 -21.807   7.121  0.00  0.00    -0.299 NA
ATOM      6  C   LIG    1       25.130 -21.876   8.254  0.00  0.00    +0.060 C 
ATOM      7  C   LIG    1       26.044 -20.644   8.343  0.00  0.00    +0.063 C 
ATOM      8  C   LIG    1       26.765 -20.301   7.028  0.00  0.00    +0.179 C 
ATOM      9  C   LIG    1       25.973 -20.697   5.767  0.00  0.00    +0.063 C 
ATOM     10  C   LIG    1       25.924 -23.132   7.886  0.00  0.00    +0.020 C 
ATOM     11  C   LIG    1       25.882 -23.176   6.355  0.00  0.00    +0.020 C 
ATOM     12  C   LIG    1       25.077 -21.934   5.954  0.00  0.00    +0.060 C 
ENDBRANCH   3   8
ENDBRANCH   1   3
BRANCH   1  13
ATOM     13  C   LIG    1       30.213 -20.258   7.729  0.00  0.00    +0.253 C 
BRANCH  13  14
ATOM     14  C   LIG    1       30.618 -18.996   8.456  0.00  0.00    -0.008 A 
ATOM     15  C   LIG    1       31.891 -18.429   8.289  0.00  0.00    +0.007 A 
ATOM     16  C   LIG    1       32.258 -17.284   8.996  0.00  0.00    +0.000 A 
ATOM     17  C   LIG    1       31.361 -16.693   9.881  0.00  0.00    +0.000 A 
ATOM     18  C   LIG    1       30.092 -17.240  10.053  0.00  0.00    +0.000 A 
ATOM     19  C   LIG    1       29.721 -18.384   9.346  0.00  0.00    +0.007 A 
ENDBRANCH  13  14
BRANCH  13  20
ATOM     20  O   LIG    1       29.863 -21.291   8.658  0.00  0.00    -0.376 OA
ATOM     21  H   LIG    1       30.672 -21.819   8.783  0.00  0.00    +0.211 HD
ENDBRANCH  13  20
ENDBRANCH   1  13
TORSDOF 5
ENDMDL
MODEL 4
REMARK VINA RESULT:      -7.5      1.471      1.750
REMARK  Name = *****
REMARK                            x       y       z     vdW  Elec       q    Type
REMARK                         _______ _______ _______ _____ _____    ______ ____
ROOT
ATOM      1  C   LIG    1       27.981 -21.172   7.605  0.00  0.00    +0.341 C 
ATOM      2  O   LIG    1       28.416 -21.598   8.670  0.00  0.00    -0.247 OA
ENDROOT
BRANCH   1   3
ATOM      3  O   LIG    1       26.863 -21.647   6.972  0.00  0.00    -0.459 OA
BRANCH   3   8
ATOM      4  C   LIG    1       22.630 -19.907   5.536  0.00  0.00    +0.105 C 
ATOM      5  N   LIG    1       23.131 -21.265   5.654  0.00  0.00    -0.299 NA
ATOM      6  C   LIG    1       23.486 -21.710   7.004  0.00  0.00    +0.060 C 
ATOM      7  C   LIG    1       24.589 -20.849   7.638  0.00  0.00    +0.063 C 
ATOM      8  C   LIG    1       25.830 -20.663   6.746  0.00  0.00    +0.179 C 
ATOM      9  C   LIG    1       25.518 -20.690   5.237  0.00  0.00    +0.063 C 
ATOM     10  C   LIG    1       23.988 -23.126   6.706  0.00  0.00    +0.020 C 
ATOM     11  C   LIG    1       24.536 -23.043   5.277  0.00  0.00    +0.020 C 
ATOM     12  C   LIG    1       24.321 -21.583   4.864  0.00  0.00    +0.060 C 
ENDBRANCH   3   8
ENDBRANCH   1   3
BRANCH   1  13
ATOM     13  C   LIG    1       28.534 -19.948   6.857  0.00  0.00    +0.253 C 
BRANCH  13  14
ATOM     14  C   LIG    1       29.624 -19.232   7.623  0.00  0.00    -0.008 A 
ATOM     15  C   LIG    1       29.333 -18.437   8.742  0.00  0.00    +0.007 A 
ATOM     16  C   LIG    1       30.348 -17.755   9.414  0.00  0.00    +0.000 A 
ATOM     17  C   LIG    1       31.666 -17.858   8.975  0.00  0.00    +0.000 A 
ATOM     18  C   LIG    1       31.971 -18.648   7.871  0.00  0.00    +0.000 A 
ATOM     19  C   LIG    1       30.958 -19.333   7.197  0.00  0.00    +0.007 A 
ENDBRANCH  13  14
BRANCH  13  20
ATOM     20  O   LIG    1       28.980 -20.293   5.540  0.00  0.00    -0.376 OA
ATOM     21  H   LIG    1       28.941 -21.265   5.493  0.00  0.00    +0.211 HD
ENDBRANCH  13  20
ENDBRANCH   1  13
TORSDOF 5
ENDMDL
MODEL 5
REMARK VINA RESULT:      -7.3      4.668      8.175
REMARK  Name = *****
REMARK                            x       y       z     vdW  Elec       q    Type
REMARK                         _______ _______ _______ _____ _____    ______ ____
ROOT
ATOM      1  C   LIG    1       25.514 -25.323   5.476  0.00  0.00    +0.341 C 
ATOM      2  O   LIG    1       25.087 -25.462   4.335  0.00  0.00    -0.247 OA
ENDROOT
BRANCH   1   3
ATOM      3  O   LIG    1       25.146 -24.319   6.331  0.00  0.00    -0.459 OA
BRANCH   3   8
ATOM      4  C   LIG    1       22.783 -20.177   5.817  0.00  0.00    +0.105 C 
ATOM      5  N   LIG    1       23.983 -20.523   6.558  0.00  0.00    -0.299 NA
ATOM      6  C   LIG    1       25.123 -20.989   5.764  0.00  0.00    +0.060 C 
ATOM      7  C   LIG    1       24.801 -22.257   4.959  0.00  0.00    +0.063 C 
ATOM      8  C   LIG    1       24.179 -23.389   5.794  0.00  0.00    +0.179 C 
ATOM      9  C   LIG    1       23.340 -22.890   6.986  0.00  0.00    +0.063 C 
ATOM     10  C   LIG    1       26.135 -21.277   6.876  0.00  0.00    +0.020 C 
ATOM     11  C   LIG    1       25.275 -21.648   8.088  0.00  0.00    +0.020 C 
ATOM     12  C   LIG    1       23.831 -21.558   7.581  0.00  0.00    +0.060 C 
ENDBRANCH   3   8
ENDBRANCH   1   3
BRANCH   1  13
ATOM     13  C   LIG    1       26.437 -26.321   6.196  0.00  0.00    +0.253 C 
BRANCH  13  14
ATOM     14  C   LIG    1       25.695 -27.516   6.750  0.00  0.00    -0.008 A 
ATOM     15  C   LIG    1       25.995 -28.045   8.015  0.00  0.00    +0.007 A 
ATOM     16  C   LIG    1       25.324 -29.170   8.494  0.00  0.00    +0.000 A 
ATOM     17  C   LIG    1       24.345 -29.783   7.715  0.00  0.00    +0.000 A 
ATOM     18  C   LIG    1       24.031 -29.265   6.461  0.00  0.00    +0.000 A 
ATOM     19  C   LIG    1       24.700 -28.139   5.980  0.00  0.00    +0.007 A 
ENDBRANCH  13  14
BRANCH  13  20
ATOM     20  O   LIG    1       27.519 -26.738   5.356  0.00  0.00    -0.376 OA
ATOM     21  H   LIG    1       27.905 -25.920   4.995  0.00  0.00    +0.211 HD
ENDBRANCH  13  20
ENDBRANCH   1  13
TORSDOF 5
ENDMDL
MODEL 6
REMARK VINA RESULT:      -7.2      1.403      2.480
REMARK  Name = *****
REMARK                            x       y       z     vdW  Elec       q    Type
REMARK                         _______ _______ _______ _____ _____    ______ ____
ROOT
ATOM      1  C   LIG    1       27.785 -20.564   7.668  0.00  0.00    +0.341 C 
ATOM      2  O   LIG    1       28.187 -21.311   8.553  0.00  0.00    -0.247 OA
ENDROOT
BRANCH   1   3
ATOM      3  O   LIG    1       26.469 -20.374   7.344  0.00  0.00    -0.459 OA
BRANCH   3   8
ATOM      4  C   LIG    1       22.764 -23.375   6.825  0.00  0.00    +0.105 C 
ATOM      5  N   LIG    1       23.291 -22.329   5.968  0.00  0.00    -0.299 NA
ATOM      6  C   LIG    1       24.657 -22.523   5.472  0.00  0.00    +0.060 C 
ATOM      7  C   LIG    1       25.686 -22.631   6.607  0.00  0.00    +0.063 C 
ATOM      8  C   LIG    1       25.603 -21.492   7.638  0.00  0.00    +0.179 C 
ATOM      9  C   LIG    1       24.184 -20.917   7.814  0.00  0.00    +0.063 C 
ATOM     10  C   LIG    1       24.846 -21.233   4.669  0.00  0.00    +0.020 C 
ATOM     11  C   LIG    1       23.952 -20.209   5.375  0.00  0.00    +0.020 C 
ATOM     12  C   LIG    1       23.323 -20.982   6.540  0.00  0.00    +0.060 C 
ENDBRANCH   3   8
ENDBRANCH   1   3
BRANCH   1  13
ATOM     13  C   LIG    1       28.675 -19.611   6.852  0.00  0.00    +0.253 C 
BRANCH  13  14
ATOM     14  C   LIG    1       29.766 -18.970   7.680  0.00  0.00    -0.008 A 
ATOM     15  C   LIG    1       31.122 -19.123   7.352  0.00  0.00    +0.007 A 
ATOM     16  C   LIG    1       32.116 -18.554   8.149  0.00  0.00    +0.000 A 
ATOM     17  C   LIG    1       31.768 -17.826   9.284  0.00  0.00    +0.000 A 
ATOM     18  C   LIG    1       30.427 -17.659   9.618  0.00  0.00    +0.000 A 
ATOM     19  C   LIG    1       29.430 -18.226   8.823  0.00  0.00    +0.007 A 
ENDBRANCH  13  14
BRANCH  13  20
ATOM     20  O   LIG    1       29.225 -20.261   5.700  0.00  0.00    -0.376 OA
ATOM     21  H   LIG    1       29.739 -19.579   5.232  0.00  0.00    +0.211 HD
ENDBRANCH  13  20
ENDBRANCH   1  13
TORSDOF 5
ENDMDL
MODEL 7
REMARK VINA RESULT:      -7.2      4.655      8.265
REMARK  Name = *****
REMARK                            x       y       z     vdW  Elec       q    Type
REMARK                         _______ _______ _______ _____ _____    ______ ____
ROOT
ATOM      1  C   LIG    1       24.496 -25.025   6.497  0.00  0.00    +0.341 C 
ATOM      2  O   LIG    1       23.280 -25.166   6.437  0.00  0.00    -0.247 OA
ENDROOT
BRANCH   1   3
ATOM      3  O   LIG    1       25.132 -23.978   7.109  0.00  0.00    -0.459 OA
BRANCH   3   8
ATOM      4  C   LIG    1       25.865 -19.914   4.668  0.00  0.00    +0.105 C 
ATOM      5  N   LIG    1       24.931 -20.255   5.726  0.00  0.00    -0.299 NA
ATOM      6  C   LIG    1       25.518 -20.623   7.017  0.00  0.00    +0.060 C 
ATOM      7  C   LIG    1       26.434 -21.853   6.918  0.00  0.00    +0.063 C 
ATOM      8  C   LIG    1       25.792 -23.059   6.211  0.00  0.00    +0.179 C 
ATOM      9  C   LIG    1       24.755 -22.668   5.140  0.00  0.00    +0.063 C 
ATOM     10  C   LIG    1       24.251 -20.937   7.818  0.00  0.00    +0.020 C 
ATOM     11  C   LIG    1       23.244 -21.417   6.768  0.00  0.00    +0.020 C 
ATOM     12  C   LIG    1       24.010 -21.356   5.441  0.00  0.00    +0.060 C 
ENDBRANCH   3   8
ENDBRANCH   1   3
BRANCH   1  13
ATOM     13  C   LIG    1       25.526 -26.058   6.010  0.00  0.00    +0.253 C 
BRANCH  13  14
ATOM     14  C   LIG    1       25.205 -27.466   6.458  0.00  0.00    -0.008 A 
ATOM     15  C   LIG    1       24.397 -28.316   5.687  0.00  0.00    +0.007 A 
ATOM     16  C   LIG    1       24.083 -29.599   6.134  0.00  0.00    +0.000 A 
ATOM     17  C   LIG    1       24.570 -30.049   7.359  0.00  0.00    +0.000 A 
ATOM     18  C   LIG    1       25.378 -29.220   8.133  0.00  0.00    +0.000 A 
ATOM     19  C   LIG    1       25.695 -27.936   7.687  0.00  0.00    +0.007 A 
ENDBRANCH  13  14
BRANCH  13  20
ATOM     20  O   LIG    1       25.696 -26.002   4.588  0.00  0.00    -0.376 OA
ATOM     21  H   LIG    1       26.206 -25.191   4.415  0.00  0.00    +0.211 HD
ENDBRANCH  13  20
ENDBRANCH   1  13
TORSDOF 5
ENDMDL
MODEL 8
REMARK VINA RESULT:      -7.0      2.546      6.385
REMARK  Name = *****
REMARK                            x       y       z     vdW  Elec       q    Type
REMARK                         _______ _______ _______ _____ _____    ______ ____
ROOT
ATOM      1  C   LIG    1       25.940 -20.750   8.190  0.00  0.00    +0.341 C 
ATOM      2  O   LIG    1       25.650 -20.808   9.380  0.00  0.00    -0.247 OA
ENDROOT
BRANCH   1   3
ATOM      3  O   LIG    1       26.982 -20.026   7.674  0.00  0.00    -0.459 OA
BRANCH   3   8
ATOM      4  C   LIG    1       31.716 -20.003   8.446  0.00  0.00    +0.105 C 
ATOM      5  N   LIG    1       30.921 -19.629   7.291  0.00  0.00    -0.299 NA
ATOM      6  C   LIG    1       29.994 -18.509   7.477  0.00  0.00    +0.060 C 
ATOM      7  C   LIG    1       28.954 -18.781   8.575  0.00  0.00    +0.063 C 
ATOM      8  C   LIG    1       28.215 -20.121   8.421  0.00  0.00    +0.179 C 
ATOM      9  C   LIG    1       29.058 -21.219   7.742  0.00  0.00    +0.063 C 
ATOM     10  C   LIG    1       29.340 -18.458   6.093  0.00  0.00    +0.020 C 
ATOM     11  C   LIG    1       29.403 -19.902   5.586  0.00  0.00    +0.020 C 
ATOM     12  C   LIG    1       30.077 -20.681   6.722  0.00  0.00    +0.060 C 
ENDBRANCH   3   8
ENDBRANCH   1   3
BRANCH   1  13
ATOM     13  C   LIG    1       25.270 -21.578   7.081  0.00  0.00    +0.253 C 
BRANCH  13  14
ATOM     14  C   LIG    1       24.567 -20.725   6.050  0.00  0.00    -0.008 A 
ATOM     15  C   LIG    1       23.227 -20.338   6.208  0.00  0.00    +0.007 A 
ATOM     16  C   LIG    1       22.586 -19.580   5.228  0.00  0.00    +0.000 A 
ATOM     17  C   LIG    1       23.273 -19.201   4.078  0.00  0.00    +0.000 A 
ATOM     18  C   LIG    1       24.604 -19.571   3.910  0.00  0.00    +0.000 A 
ATOM     19  C   LIG    1       25.250 -20.328   4.889  0.00  0.00    +0.007 A 
ENDBRANCH  13  14
BRANCH  13  20
ATOM     20  O   LIG    1       26.200 -22.470   6.456  0.00  0.00    -0.376 OA
ATOM     21  H   LIG    1       25.841 -22.647   5.568  0.00  0.00    +0.211 HD
ENDBRANCH  13  20
ENDBRANCH   1  13
TORSDOF 5
ENDMDL
MODEL 9
REMARK VINA RESULT:      -7.0      5.655      7.241
REMARK  Name = *****
REMARK                            x       y       z     vdW  Elec       q    Type
REMARK                         _______ _______ _______ _____ _____    ______ ____
ROOT
ATOM      1  C   LIG    1       23.972 -23.365   6.581  0.00  0.00    +0.341 C 
ATOM      2  O   LIG    1       22.786 -23.604   6.782  0.00  0.00    -0.247 OA
ENDROOT
BRANCH   1   3
ATOM      3  O   LIG    1       24.867 -24.252   6.044  0.00  0.00    -0.459 OA
BRANCH   3   8
ATOM      4  C   LIG    1       24.562 -28.854   4.728  0.00  0.00    +0.105 C 
ATOM      5  N   LIG    1       25.535 -28.139   5.534  0.00  0.00    -0.299 NA
ATOM      6  C   LIG    1       25.035 -27.545   6.777  0.00  0.00    +0.060 C 
ATOM      7  C   LIG    1       23.922 -26.515   6.532  0.00  0.00    +0.063 C 
ATOM      8  C   LIG    1       24.277 -25.446   5.484  0.00  0.00    +0.179 C 
ATOM      9  C   LIG    1       25.243 -25.945   4.393  0.00  0.00    +0.063 C 
ATOM     10  C   LIG    1       26.311 -26.874   7.295  0.00  0.00    +0.020 C 
ATOM     11  C   LIG    1       27.106 -26.537   6.029  0.00  0.00    +0.020 C 
ATOM     12  C   LIG    1       26.224 -27.028   4.876  0.00  0.00    +0.060 C 
ENDBRANCH   3   8
ENDBRANCH   1   3
BRANCH   1  13
ATOM     13  C   LIG    1       24.637 -21.992   6.772  0.00  0.00    +0.253 C 
BRANCH  13  14
ATOM     14  C   LIG    1       24.184 -20.971   5.753  0.00  0.00    -0.008 A 
ATOM     15  C   LIG    1       24.980 -20.634   4.647  0.00  0.00    +0.007 A 
ATOM     16  C   LIG    1       24.560 -19.663   3.737  0.00  0.00    +0.000 A 
ATOM     17  C   LIG    1       23.342 -19.015   3.922  0.00  0.00    +0.000 A 
ATOM     18  C   LIG    1       22.538 -19.342   5.010  0.00  0.00    +0.000 A 
ATOM     19  C   LIG    1       22.954 -20.314   5.921  0.00  0.00    +0.007 A 
ENDBRANCH  13  14
BRANCH  13  20
ATOM     20  O   LIG    1       24.453 -21.499   8.104  0.00  0.00    -0.376 OA
ATOM     21  H   LIG    1       24.939 -20.656   8.144  0.00  0.00    +0.211 HD
ENDBRANCH  13  20
ENDBRANCH   1  13
TORSDOF 5
ENDMDL
