MODEL 1
REMARK VINA RESULT:      -7.4      0.000      0.000
REMARK  Name = *****
REMARK                            x       y       z     vdW  Elec       q    Type
REMARK                         _______ _______ _______ _____ _____    ______ ____
ROOT
ATOM      1  C   LIG    1       25.260 -21.529   6.421  0.00  0.00    +0.144 C 
ENDROOT
BRANCH   1   2
ATOM      2  C   LIG    1       24.516 -22.810   6.931  0.00  0.00    +0.072 C 
ATOM      3  N   LIG    1       23.712 -23.500   5.893  0.00  0.00    -0.312 NA
ATOM      4  H   LIG    1       23.155 -24.226   6.350  0.00  0.00    +0.122 HD
ATOM      5  C   LIG    1       24.537 -24.135   4.863  0.00  0.00    +0.081 C 
ATOM      6  C   LIG    1       25.494 -25.172   5.449  0.00  0.00    +0.015 C 
ATOM      7  C   LIG    1       26.335 -24.582   6.575  0.00  0.00    +0.003 C 
ATOM      8  C   LIG    1       25.446 -23.864   7.588  0.00  0.00    +0.020 C 
ENDBRANCH   1   2
BRANCH   1   9
ATOM      9  C   LIG    1       24.438 -20.586   5.533  0.00  0.00    -0.032 A 
ATOM     10  C   LIG    1       23.133 -20.196   5.876  0.00  0.00    +0.004 A 
ATOM     11  C   LIG    1       22.423 -19.284   5.088  0.00  0.00    +0.000 A 
ATOM     12  C   LIG    1       23.000 -18.747   3.940  0.00  0.00    +0.000 A 
ATOM     13  C   LIG    1       24.289 -19.126   3.578  0.00  0.00    +0.000 A 
ATOM     14  C   LIG    1       25.002 -20.038   4.366  0.00  0.00    +0.004 A 
ENDBRANCH   1   9
BRANCH   1  15
ATOM     15  C   LIG    1       25.792 -20.768   7.638  0.00  0.00    +0.316 C 
ATOM     16  O   LIG    1       25.214 -20.660   8.708  0.00  0.00    -0.250 OA
BRANCH  15  18
ATOM     17  C   LIG    1       28.066 -21.226   7.187  0.00  0.00    +0.280 C 
ATOM     18  O   LIG    1       27.030 -20.257   7.366  0.00  0.00    -0.468 OA
ENDBRANCH  15  18
ENDBRANCH   1  15
TORSDOF 4
ENDMDL
MODEL 2
REMARK VINA RESULT:      -6.9      2.083      3.981
REMARK  Name = *****
REMARK                            x       y       z     vdW  Elec       q    Type
REMARK                         _______ _______ _______ _____ _____    ______ ____
ROOT
ATOM      1  C   LIG    1       26.534 -20.643   7.112  0.00  0.00    +0.144 C 
ENDROOT
BRANCH   1   2
ATOM      2  C   LIG    1       27.895 -21.018   6.433  0.00  0.00    +0.072 C 
ATOM      3  N   LIG    1       28.275 -20.136   5.302  0.00  0.00    -0.312 NA
ATOM      4  H   LIG    1       29.088 -20.546   4.837  0.00  0.00    +0.122 HD
ATOM      5  C   LIG    1       28.624 -18.780   5.730  0.00  0.00    +0.081 C 
ATOM      6  C   LIG    1       29.791 -18.769   6.715  0.00  0.00    +0.015 C 
ATOM      7  C   LIG    1       29.532 -19.696   7.898  0.00  0.00    +0.003 C 
ATOM      8  C   LIG    1       29.098 -21.077   7.412  0.00  0.00    +0.020 C 
ENDBRANCH   1   2
BRANCH   1   9
ATOM      9  C   LIG    1       25.348 -20.431   6.163  0.00  0.00    -0.032 A 
ATOM     10  C   LIG    1       25.527 -20.268   4.780  0.00  0.00    +0.004 A 
ATOM     11  C   LIG    1       24.430 -20.142   3.920  0.00  0.00    +0.000 A 
ATOM     12  C   LIG    1       23.133 -20.174   4.426  0.00  0.00    +0.000 A 
ATOM     13  C   LIG    1       22.934 -20.329   5.795  0.00  0.00    +0.000 A 
ATOM     14  C   LIG    1       24.031 -20.455   6.657  0.00  0.00    +0.004 A 
ENDBRANCH   1   9
BRANCH   1  15
ATOM     15  C   LIG    1       26.196 -21.726   8.139  0.00  0.00    +0.316 C 
ATOM     16  O   LIG    1       25.709 -21.523   9.240  0.00  0.00    -0.250 OA
BRANCH  15  18
ATOM     17  C   LIG    1       25.352 -23.715   7.181  0.00  0.00    +0.280 C 
ATOM     18  O   LIG    1       26.481 -22.961   7.628  0.00  0.00    -0.468 OA
ENDBRANCH  15  18
ENDBRANCH   1  15
TORSDOF 4
ENDMDL
MODEL 3
REMARK VINA RESULT:      -6.8      2.263      3.428
REMARK  Name = *****
REMARK                            x       y       z     vdW  Elec       q    Type
REMARK                         _______ _______ _______ _____ _____    ______ ____
ROOT
ATOM      1  C   LIG    1       24.171 -22.293   6.702  0.00  0.00    +0.144 C 
ENDROOT
BRANCH   1   2
ATOM      2  C   LIG    1       25.706 -22.569   6.848  0.00  0.00    +0.072 C 
ATOM      3  N   LIG    1       26.568 -21.624   6.097  0.00  0.00    -0.312 NA
ATOM      4  H   LIG    1       27.529 -21.971   6.133  0.00  0.00    +0.122 HD
ATOM      5  C   LIG    1       26.547 -20.269   6.652  0.00  0.00    +0.081 C 
ATOM      6  C   LIG    1       27.011 -20.235   8.107  0.00  0.00    +0.015 C 
ATOM      7  C   LIG    1       26.226 -21.219   8.966  0.00  0.00    +0.003 C 
ATOM      8  C   LIG    1       26.207 -22.602   8.317  0.00  0.00    +0.020 C 
ENDBRANCH   1   2
BRANCH   1   9
ATOM      9  C   LIG    1       23.773 -21.269   5.631  0.00  0.00    -0.032 A 
ATOM     10  C   LIG    1       22.909 -20.200   5.915  0.00  0.00    +0.004 A 
ATOM     11  C   LIG    1       22.609 -19.238   4.944  0.00  0.00    +0.000 A 
ATOM     12  C   LIG    1       23.165 -19.327   3.670  0.00  0.00    +0.000 A 
ATOM     13  C   LIG    1       24.020 -20.383   3.367  0.00  0.00    +0.000 A 
ATOM     14  C   LIG    1       24.321 -21.347   4.337  0.00  0.00    +0.004 A 
ENDBRANCH   1   9
BRANCH   1  15
ATOM     15  C   LIG    1       23.467 -23.626   6.438  0.00  0.00    +0.316 C 
ATOM     16  O   LIG    1       22.310 -23.881   6.733  0.00  0.00    -0.250 OA
BRANCH  15  18
ATOM     17  C   LIG    1       24.128 -25.867   6.082  0.00  0.00    +0.280 C 
ATOM     18  O   LIG    1       24.312 -24.481   5.786  0.00  0.00    -0.468 OA
ENDBRANCH  15  18
ENDBRANCH   1  15
TORSDOF 4
ENDMDL
MODEL 4
REMARK VINA RESULT:      -6.6      1.974      4.376
REMARK  Name = *****
REMARK                            x       y       z     vdW  Elec       q    Type
REMARK                         _______ _______ _______ _____ _____    ______ ____
ROOT
ATOM      1  C   LIG    1       26.290 -21.295   6.886  0.00  0.00    +0.144 C 
ENDROOT
BRANCH   1   2
ATOM      2  C   LIG    1       25.124 -20.317   6.517  0.00  0.00    +0.072 C 
ATOM      3  N   LIG    1       24.882 -20.181   5.059  0.00  0.00    -0.312 NA
ATOM      4  H   LIG    1       24.213 -19.421   4.917  0.00  0.00    +0.122 HD
ATOM      5  C   LIG    1       24.330 -21.397   4.458  0.00  0.00    +0.081 C 
ATOM      6  C   LIG    1       23.003 -21.805   5.095  0.00  0.00    +0.015 C 
ATOM      7  C   LIG    1       23.122 -21.917   6.610  0.00  0.00    +0.003 C 
ATOM      8  C   LIG    1       23.770 -20.662   7.192  0.00  0.00    +0.020 C 
ENDBRANCH   1   2
BRANCH   1   9
ATOM      9  C   LIG    1       27.706 -20.708   6.811  0.00  0.00    -0.032 A 
ATOM     10  C   LIG    1       28.030 -19.670   5.923  0.00  0.00    +0.004 A 
ATOM     11  C   LIG    1       29.309 -19.101   5.915  0.00  0.00    +0.000 A 
ATOM     12  C   LIG    1       30.288 -19.560   6.791  0.00  0.00    +0.000 A 
ATOM     13  C   LIG    1       29.989 -20.592   7.675  0.00  0.00    +0.000 A 
ATOM     14  C   LIG    1       28.710 -21.163   7.685  0.00  0.00    +0.004 A 
ENDBRANCH   1   9
BRANCH   1  15
ATOM     15  C   LIG    1       26.027 -21.848   8.289  0.00  0.00    +0.316 C 
ATOM     16  O   LIG    1       25.888 -21.171   9.296  0.00  0.00    -0.250 OA
BRANCH  15  18
ATOM     17  C   LIG    1       26.000 -23.788   6.940  0.00  0.00    +0.280 C 
ATOM     18  O   LIG    1       25.931 -23.210   8.246  0.00  0.00    -0.468 OA
ENDBRANCH  15  18
ENDBRANCH   1  15
TORSDOF 4
ENDMDL
MODEL 5
REMARK VINA RESULT:      -6.6      1.499      4.195
REMARK  Name = *****
REMARK                            x       y       z     vdW  Elec       q    Type
REMARK                         _______ _______ _______ _____ _____    ______ ____
ROOT
ATOM      1  C   LIG    1       24.544 -21.369   7.369  0.00  0.00    +0.144 C 
ENDROOT
BRANCH   1   2
ATOM      2  C   LIG    1       24.586 -20.340   6.188  0.00  0.00    +0.072 C 
ATOM      3  N   LIG    1       25.253 -20.845   4.963  0.00  0.00    -0.312 NA
ATOM      4  H   LIG    1       25.361 -20.064   4.314  0.00  0.00    +0.122 HD
ATOM      5  C   LIG    1       24.488 -21.899   4.293  0.00  0.00    +0.081 C 
ATOM      6  C   LIG    1       23.096 -21.427   3.879  0.00  0.00    +0.015 C 
ATOM      7  C   LIG    1       22.336 -20.829   5.058  0.00  0.00    +0.003 C 
ATOM      8  C   LIG    1       23.195 -19.789   5.777  0.00  0.00    +0.020 C 
ENDBRANCH   1   2
BRANCH   1   9
ATOM      9  C   LIG    1       24.657 -22.847   6.973  0.00  0.00    -0.032 A 
ATOM     10  C   LIG    1       25.899 -23.495   6.879  0.00  0.00    +0.004 A 
ATOM     11  C   LIG    1       25.980 -24.860   6.581  0.00  0.00    +0.000 A 
ATOM     12  C   LIG    1       24.822 -25.603   6.368  0.00  0.00    +0.000 A 
ATOM     13  C   LIG    1       23.581 -24.978   6.449  0.00  0.00    +0.000 A 
ATOM     14  C   LIG    1       23.498 -23.612   6.748  0.00  0.00    +0.004 A 
ENDBRANCH   1   9
BRANCH   1  15
ATOM     15  C   LIG    1       25.652 -21.007   8.361  0.00  0.00    +0.316 C 
ATOM     16  O   LIG    1       25.729 -21.418   9.508  0.00  0.00    -0.250 OA
BRANCH  15  18
ATOM     17  C   LIG    1       27.919 -20.647   7.802  0.00  0.00    +0.280 C 
ATOM     18  O   LIG    1       26.566 -20.186   7.763  0.00  0.00    -0.468 OA
ENDBRANCH  15  18
ENDBRANCH   1  15
TORSDOF 4
ENDMDL
MODEL 6
REMARK VINA RESULT:      -6.5      2.382      4.262
REMARK  Name = *****
REMARK                            x       y       z     vdW  Elec       q    Type
REMARK                         _______ _______ _______ _____ _____    ______ ____
ROOT
ATOM      1  C   LIG    1       24.904 -23.857   6.920  0.00  0.00    +0.144 C 
ENDROOT
BRANCH   1   2
ATOM      2  C   LIG    1       25.542 -24.715   5.775  0.00  0.00    +0.072 C 
ATOM      3  N   LIG    1       26.676 -25.566   6.212  0.00  0.00    -0.312 NA
ATOM      4  H   LIG    1       27.113 -25.967   5.379  0.00  0.00    +0.122 HD
ATOM      5  C   LIG    1       26.259 -26.664   7.086  0.00  0.00    +0.081 C 
ATOM      6  C   LIG    1       25.244 -27.585   6.412  0.00  0.00    +0.015 C 
ATOM      7  C   LIG    1       24.055 -26.802   5.869  0.00  0.00    +0.003 C 
ATOM      8  C   LIG    1       24.531 -25.621   5.024  0.00  0.00    +0.020 C 
ENDBRANCH   1   2
BRANCH   1   9
ATOM      9  C   LIG    1       25.739 -22.665   7.407  0.00  0.00    -0.032 A 
ATOM     10  C   LIG    1       27.017 -22.397   6.892  0.00  0.00    +0.004 A 
ATOM     11  C   LIG    1       27.737 -21.268   7.300  0.00  0.00    +0.000 A 
ATOM     12  C   LIG    1       27.195 -20.387   8.232  0.00  0.00    +0.000 A 
ATOM     13  C   LIG    1       25.932 -20.638   8.760  0.00  0.00    +0.000 A 
ATOM     14  C   LIG    1       25.210 -21.767   8.353  0.00  0.00    +0.004 A 
ENDBRANCH   1   9
BRANCH   1  15
ATOM     15  C   LIG    1       23.530 -23.375   6.450  0.00  0.00    +0.316 C 
ATOM     16  O   LIG    1       22.460 -23.822   6.834  0.00  0.00    -0.250 OA
BRANCH  15  18
ATOM     17  C   LIG    1       22.688 -21.311   5.666  0.00  0.00    +0.280 C 
ATOM     18  O   LIG    1       23.672 -22.343   5.566  0.00  0.00    -0.468 OA
ENDBRANCH  15  18
ENDBRANCH   1  15
TORSDOF 4
ENDMDL
MODEL 7
REMARK VINA RESULT:      -6.3      1.707      3.843
REMARK  Name = *****
REMARK                            x       y       z     vdW  Elec       q    Type
REMARK                         _______ _______ _______ _____ _____    ______ ____
ROOT
ATOM      1  C   LIG    1       25.203 -21.881   6.792  0.00  0.00    +0.144 C 
ENDROOT
BRANCH   1   2
ATOM      2  C   LIG    1       24.789 -22.775   5.574  0.00  0.00    +0.072 C 
ATOM      3  N   LIG    1       25.707 -23.912   5.314  0.00  0.00    -0.312 NA
ATOM      4  H   LIG    1       25.439 -24.340   4.424  0.00  0.00    +0.122 HD
ATOM      5  C   LIG    1       25.649 -24.940   6.355  0.00  0.00    +0.081 C 
ATOM      6  C   LIG    1       24.247 -25.525   6.510  0.00  0.00    +0.015 C 
ATOM      7  C   LIG    1       23.206 -24.432   6.725  0.00  0.00    +0.003 C 
ATOM      8  C   LIG    1       23.347 -23.342   5.665  0.00  0.00    +0.020 C 
ENDBRANCH   1   2
BRANCH   1   9
ATOM      9  C   LIG    1       26.617 -21.289   6.737  0.00  0.00    -0.032 A 
ATOM     10  C   LIG    1       26.974 -20.312   5.794  0.00  0.00    +0.004 A 
ATOM     11  C   LIG    1       28.249 -19.735   5.801  0.00  0.00    +0.000 A 
ATOM     12  C   LIG    1       29.193 -20.125   6.748  0.00  0.00    +0.000 A 
ATOM     13  C   LIG    1       28.861 -21.096   7.688  0.00  0.00    +0.000 A 
ATOM     14  C   LIG    1       27.585 -21.675   7.683  0.00  0.00    +0.004 A 
ENDBRANCH   1   9
BRANCH   1  15
ATOM     15  C   LIG    1       24.172 -20.760   6.936  0.00  0.00    +0.316 C 
ATOM     16  O   LIG    1       23.631 -20.432   7.981  0.00  0.00    -0.250 OA
BRANCH  15  18
ATOM     17  C   LIG    1       22.628 -19.737   5.469  0.00  0.00    +0.280 C 
ATOM     18  O   LIG    1       23.971 -20.149   5.730  0.00  0.00    -0.468 OA
ENDBRANCH  15  18
ENDBRANCH   1  15
TORSDOF 4
ENDMDL
MODEL 8
REMARK VINA RESULT:      -6.2      1.528      4.730
REMARK  Name = *****
REMARK                            x       y       z     vdW  Elec       q    Type
REMARK                         _______ _______ _______ _____ _____    ______ ____
ROOT
ATOM      1  C   LIG    1       25.046 -22.960   6.701  0.00  0.00    +0.144 C 
ENDROOT
BRANCH   1   2
ATOM      2  C   LIG    1       25.022 -21.916   5.533  0.00  0.00    +0.072 C 
ATOM      3  N   LIG    1       23.944 -22.140   4.539  0.00  0.00    -0.312 NA
ATOM      4  H   LIG    1       24.102 -21.508   3.750  0.00  0.00    +0.122 HD
ATOM      5  C   LIG    1       22.609 -21.876   5.079  0.00  0.00    +0.081 C 
ATOM      6  C   LIG    1       22.463 -20.440   5.581  0.00  0.00    +0.015 C 
ATOM      7  C   LIG    1       23.564 -20.081   6.572  0.00  0.00    +0.003 C 
ATOM      8  C   LIG    1       24.936 -20.440   6.003  0.00  0.00    +0.020 C 
ENDBRANCH   1   2
BRANCH   1   9
ATOM      9  C   LIG    1       25.342 -24.410   6.297  0.00  0.00    -0.032 A 
ATOM     10  C   LIG    1       25.770 -25.366   7.233  0.00  0.00    +0.004 A 
ATOM     11  C   LIG    1       25.972 -26.700   6.860  0.00  0.00    +0.000 A 
ATOM     12  C   LIG    1       25.752 -27.104   5.545  0.00  0.00    +0.000 A 
ATOM     13  C   LIG    1       25.333 -26.170   4.602  0.00  0.00    +0.000 A 
ATOM     14  C   LIG    1       25.131 -24.835   4.973  0.00  0.00    +0.004 A 
ENDBRANCH   1   9
BRANCH   1  15
ATOM     15  C   LIG    1       26.063 -22.490   7.744  0.00  0.00    +0.316 C 
ATOM     16  O   LIG    1       25.813 -22.264   8.917  0.00  0.00    -0.250 OA
BRANCH  15  18
ATOM     17  C   LIG    1       28.148 -21.379   7.723  0.00  0.00    +0.280 C 
ATOM     18  O   LIG    1       27.304 -22.396   7.179  0.00  0.00    -0.468 OA
ENDBRANCH  15  18
ENDBRANCH   1  15
TORSDOF 4
ENDMDL
MODEL 9
REMARK VINA RESULT:      -6.0      2.218      4.535
REMARK  Name = *****
REMARK                            x       y       z     vdW  Elec       q    Type
REMARK                         _______ _______ _______ _____ _____    ______ ____
ROOT
ATOM      1  C   LIG    1       25.468 -21.276   5.260  0.00  0.00    +0.144 C 
ENDROOT
BRANCH   1   2
ATOM      2  C   LIG    1       25.998 -20.273   6.341  0.00  0.00    +0.072 C 
ATOM      3  N   LIG    1       26.045 -20.828   7.715  0.00  0.00    -0.312 NA
ATOM      4  H   LIG    1       26.258 -20.065   8.361  0.00  0.00    +0.122 HD
ATOM      5  C   LIG    1       27.067 -21.865   7.876  0.00  0.00    +0.081 C 
ATOM      6  C   LIG    1       28.468 -21.348   7.556  0.00  0.00    +0.015 C 
ATOM      7  C   LIG    1       28.522 -20.697   6.178  0.00  0.00    +0.003 C 
ATOM      8  C   LIG    1       27.395 -19.677   6.022  0.00  0.00    +0.020 C 
ENDBRANCH   1   2
BRANCH   1   9
ATOM      9  C   LIG    1       24.716 -22.501   5.795  0.00  0.00    -0.032 A 
ATOM     10  C   LIG    1       23.445 -22.390   6.382  0.00  0.00    +0.004 A 
ATOM     11  C   LIG    1       22.745 -23.526   6.805  0.00  0.00    +0.000 A 
ATOM     12  C   LIG    1       23.302 -24.793   6.652  0.00  0.00    +0.000 A 
ATOM     13  C   LIG    1       24.563 -24.924   6.078  0.00  0.00    +0.000 A 
ATOM     14  C   LIG    1       25.265 -23.788   5.654  0.00  0.00    +0.004 A 
ENDBRANCH   1   9
BRANCH   1  15
ATOM     15  C   LIG    1       24.580 -20.502   4.282  0.00  0.00    +0.316 C 
ATOM     16  O   LIG    1       24.394 -20.802   3.113  0.00  0.00    -0.250 OA
BRANCH  15  18
ATOM     17  C   LIG    1       22.621 -19.216   4.584  0.00  0.00    +0.280 C 
ATOM     18  O   LIG    1       23.992 -19.446   4.919  0.00  0.00    -0.468 OA
ENDBRANCH  15  18
ENDBRANCH   1  15
TORSDOF 4
ENDMDL
