MODEL 1
REMARK VINA RESULT:      -2.9      0.000      0.000
REMARK  Name = *****
REMARK                            x       y       z     vdW  Elec       q    Type
REMARK                         _______ _______ _______ _____ _____    ______ ____
ROOT
ATOM      1  O   LIG    1       25.471 -16.137   4.002  0.00  0.00    -0.340 OA
ENDROOT
BRANCH   1   6
ATOM      2  C   LIG    1       24.857 -19.653   3.304  0.00  0.00    +0.178 C 
ATOM      3  C   LIG    1       25.797 -20.244   4.358  0.00  0.00    +0.177 C 
ATOM      4  C   LIG    1       27.136 -19.505   4.297  0.00  0.00    +0.179 C 
ATOM      5  C   LIG    1       26.947 -17.992   4.459  0.00  0.00    +0.201 C 
ATOM      6  C   LIG    1       25.795 -17.468   3.569  0.00  0.00    +0.282 C 
ATOM      7  O   LIG    1       24.621 -18.273   3.654  0.00  0.00    -0.341 OA
BRANCH   3   8
ATOM      8  O   LIG    1       25.261 -20.070   5.686  0.00  0.00    -0.387 OA
ATOM      9  H   LIG    1       24.685 -19.279   5.661  0.00  0.00    +0.210 HD
ENDBRANCH   3   8
BRANCH   4  10
ATOM     10  O   LIG    1       28.009 -19.964   5.342  0.00  0.00    -0.386 OA
ATOM     11  H   LIG    1       27.896 -19.330   6.080  0.00  0.00    +0.210 HD
ENDBRANCH   4  10
BRANCH   5  12
ATOM     12  O   LIG    1       28.181 -17.336   4.117  0.00  0.00    -0.384 OA
ATOM     13  H   LIG    1       28.831 -17.622   4.789  0.00  0.00    +0.210 HD
ENDBRANCH   5  12
BRANCH   2  14
ATOM     14  C   LIG    1       23.509 -20.366   3.252  0.00  0.00    +0.190 C 
BRANCH  14  15
ATOM     15  O   LIG    1       23.545 -21.572   4.001  0.00  0.00    -0.392 OA
ATOM     16  H   LIG    1       22.644 -21.942   3.986  0.00  0.00    +0.209 HD
ENDBRANCH  14  15
ENDBRANCH   2  14
ENDBRANCH   1   6
BRANCH   1  17
ATOM     17  C   LIG    1       26.373 -15.106   3.534  0.00  0.00    +0.183 C 
ATOM     18  C   LIG    1       25.583 -14.254   2.506  0.00  0.00    +0.179 C 
ATOM     19  C   LIG    1       24.468 -13.463   3.201  0.00  0.00    +0.201 C 
ATOM     20  C   LIG    1       25.021 -12.691   4.415  0.00  0.00    +0.279 C 
ATOM     21  O   LIG    1       25.740 -13.528   5.309  0.00  0.00    -0.341 OA
ATOM     22  C   LIG    1       26.847 -14.227   4.707  0.00  0.00    +0.178 C 
BRANCH  18  23
ATOM     23  O   LIG    1       26.472 -13.377   1.812  0.00  0.00    -0.386 OA
ATOM     24  H   LIG    1       26.060 -12.493   1.789  0.00  0.00    +0.210 HD
ENDBRANCH  18  23
BRANCH  19  25
ATOM     25  O   LIG    1       23.410 -14.335   3.635  0.00  0.00    -0.384 OA
ATOM     26  H   LIG    1       22.615 -13.773   3.764  0.00  0.00    +0.210 HD
ENDBRANCH  19  25
BRANCH  20  27
ATOM     27  O   LIG    1       23.942 -12.113   5.138  0.00  0.00    -0.365 OA
ATOM     28  H   LIG    1       24.147 -11.159   5.163  0.00  0.00    +0.213 HD
ENDBRANCH  20  27
BRANCH  22  29
ATOM     29  C   LIG    1       28.006 -13.275   4.390  0.00  0.00    +0.190 C 
BRANCH  29  30
ATOM     30  O   LIG    1       28.789 -13.850   3.341  0.00  0.00    -0.392 OA
ATOM     31  H   LIG    1       28.153 -14.248   2.711  0.00  0.00    +0.209 HD
ENDBRANCH  29  30
ENDBRANCH  22  29
ENDBRANCH   1  17
TORSDOF 12
ENDMDL
MODEL 2
REMARK VINA RESULT:      -2.6      1.490      3.687
REMARK  Name = *****
REMARK                            x       y       z     vdW  Elec       q    Type
REMARK                         _______ _______ _______ _____ _____    ______ ____
ROOT
ATOM      1  O   LIG    1       25.530 -16.141   3.095  0.00  0.00    -0.340 OA
ENDROOT
BRANCH   1   6
ATOM      2  C   LIG    1       25.129 -19.384   4.690  0.00  0.00    +0.178 C 
ATOM      3  C   LIG    1       23.691 -19.661   4.246  0.00  0.00    +0.177 C 
ATOM      4  C   LIG    1       22.850 -18.402   4.477  0.00  0.00    +0.179 C 
ATOM      5  C   LIG    1       23.461 -17.186   3.771  0.00  0.00    +0.201 C 
ATOM      6  C   LIG    1       24.984 -17.091   4.025  0.00  0.00    +0.282 C 
ATOM      7  O   LIG    1       25.653 -18.338   3.846  0.00  0.00    -0.341 OA
BRANCH   3   8
ATOM      8  O   LIG    1       23.633 -19.973   2.839  0.00  0.00    -0.387 OA
ATOM      9  H   LIG    1       24.244 -19.358   2.384  0.00  0.00    +0.210 HD
ENDBRANCH   3   8
BRANCH   4  10
ATOM     10  O   LIG    1       21.517 -18.592   3.977  0.00  0.00    -0.386 OA
ATOM     11  H   LIG    1       21.136 -17.693   3.891  0.00  0.00    +0.210 HD
ENDBRANCH   4  10
BRANCH   5  12
ATOM     12  O   LIG    1       22.800 -15.999   4.247  0.00  0.00    -0.384 OA
ATOM     13  H   LIG    1       22.918 -15.328   3.545  0.00  0.00    +0.210 HD
ENDBRANCH   5  12
BRANCH   2  14
ATOM     14  C   LIG    1       26.033 -20.606   4.548  0.00  0.00    +0.190 C 
BRANCH  14  15
ATOM     15  O   LIG    1       27.362 -20.302   4.944  0.00  0.00    -0.392 OA
ATOM     16  H   LIG    1       27.505 -19.356   4.757  0.00  0.00    +0.209 HD
ENDBRANCH  14  15
ENDBRANCH   2  14
ENDBRANCH   1   6
BRANCH   1  17
ATOM     17  C   LIG    1       25.138 -14.766   3.327  0.00  0.00    +0.183 C 
ATOM     18  C   LIG    1       25.826 -14.322   4.645  0.00  0.00    +0.179 C 
ATOM     19  C   LIG    1       27.346 -14.233   4.459  0.00  0.00    +0.201 C 
ATOM     20  C   LIG    1       27.696 -13.395   3.214  0.00  0.00    +0.279 C 
ATOM     21  O   LIG    1       27.025 -13.850   2.048  0.00  0.00    -0.341 OA
ATOM     22  C   LIG    1       25.589 -13.870   2.158  0.00  0.00    +0.178 C 
BRANCH  18  23
ATOM     23  O   LIG    1       25.292 -13.069   5.076  0.00  0.00    -0.386 OA
ATOM     24  H   LIG    1       25.760 -12.364   4.590  0.00  0.00    +0.210 HD
ENDBRANCH  18  23
BRANCH  19  25
ATOM     25  O   LIG    1       27.927 -15.542   4.329  0.00  0.00    -0.384 OA
ATOM     26  H   LIG    1       28.269 -15.609   3.410  0.00  0.00    +0.210 HD
ENDBRANCH  19  25
BRANCH  20  27
ATOM     27  O   LIG    1       29.094 -13.476   2.968  0.00  0.00    -0.365 OA
ATOM     28  H   LIG    1       29.162 -13.749   2.033  0.00  0.00    +0.213 HD
ENDBRANCH  20  27
BRANCH  22  29
ATOM     29  C   LIG    1       25.006 -12.453   2.153  0.00  0.00    +0.190 C 
BRANCH  29  30
ATOM     30  O   LIG    1       23.660 -12.516   2.633  0.00  0.00    -0.392 OA
ATOM     31  H   LIG    1       23.700 -12.292   3.586  0.00  0.00    +0.209 HD
ENDBRANCH  29  30
ENDBRANCH  22  29
ENDBRANCH   1  17
TORSDOF 12
ENDMDL
MODEL 3
REMARK VINA RESULT:      -2.3      1.539      6.824
REMARK  Name = *****
REMARK                            x       y       z     vdW  Elec       q    Type
REMARK                         _______ _______ _______ _____ _____    ______ ____
ROOT
ATOM      1  O   LIG    1       24.915 -17.745   4.139  0.00  0.00    -0.340 OA
ENDROOT
BRANCH   1   6
ATOM      2  C   LIG    1       26.121 -14.601   2.765  0.00  0.00    +0.178 C 
ATOM      3  C   LIG    1       25.480 -13.663   3.791  0.00  0.00    +0.177 C 
ATOM      4  C   LIG    1       24.024 -14.085   4.006  0.00  0.00    +0.179 C 
ATOM      5  C   LIG    1       23.925 -15.560   4.413  0.00  0.00    +0.201 C 
ATOM      6  C   LIG    1       24.808 -16.455   3.513  0.00  0.00    +0.282 C 
ATOM      7  O   LIG    1       26.121 -15.929   3.328  0.00  0.00    -0.341 OA
BRANCH   3   8
ATOM      8  O   LIG    1       26.152 -13.750   5.064  0.00  0.00    -0.387 OA
ATOM      9  H   LIG    1       25.475 -13.603   5.756  0.00  0.00    +0.210 HD
ENDBRANCH   3   8
BRANCH   4  10
ATOM     10  O   LIG    1       23.420 -13.290   5.038  0.00  0.00    -0.386 OA
ATOM     11  H   LIG    1       22.527 -13.058   4.707  0.00  0.00    +0.210 HD
ENDBRANCH   4  10
BRANCH   5  12
ATOM     12  O   LIG    1       22.547 -15.968   4.326  0.00  0.00    -0.384 OA
ATOM     13  H   LIG    1       22.027 -15.142   4.276  0.00  0.00    +0.210 HD
ENDBRANCH   5  12
BRANCH   2  14
ATOM     14  C   LIG    1       27.564 -14.222   2.444  0.00  0.00    +0.190 C 
BRANCH  14  15
ATOM     15  O   LIG    1       27.881 -12.941   2.968  0.00  0.00    -0.392 OA
ATOM     16  H   LIG    1       27.669 -12.963   3.919  0.00  0.00    +0.209 HD
ENDBRANCH  14  15
ENDBRANCH   2  14
ENDBRANCH   1   6
BRANCH   1  17
ATOM     17  C   LIG    1       23.972 -18.735   3.662  0.00  0.00    +0.183 C 
ATOM     18  C   LIG    1       24.810 -19.928   3.130  0.00  0.00    +0.179 C 
ATOM     19  C   LIG    1       25.526 -20.644   4.282  0.00  0.00    +0.201 C 
ATOM     20  C   LIG    1       24.536 -20.982   5.414  0.00  0.00    +0.279 C 
ATOM     21  O   LIG    1       23.797 -19.847   5.846  0.00  0.00    -0.341 OA
ATOM     22  C   LIG    1       23.047 -19.196   4.803  0.00  0.00    +0.178 C 
BRANCH  18  23
ATOM     23  O   LIG    1       23.968 -20.833   2.413  0.00  0.00    -0.386 OA
ATOM     24  H   LIG    1       23.764 -21.582   3.005  0.00  0.00    +0.210 HD
ENDBRANCH  18  23
BRANCH  19  25
ATOM     25  O   LIG    1       26.591 -19.835   4.809  0.00  0.00    -0.384 OA
ATOM     26  H   LIG    1       27.172 -19.603   4.051  0.00  0.00    +0.210 HD
ENDBRANCH  19  25
BRANCH  20  27
ATOM     27  O   LIG    1       25.254 -21.481   6.535  0.00  0.00    -0.365 OA
ATOM     28  H   LIG    1       24.746 -21.170   7.309  0.00  0.00    +0.213 HD
ENDBRANCH  20  27
BRANCH  22  29
ATOM     29  C   LIG    1       21.840 -20.036   4.372  0.00  0.00    +0.190 C 
BRANCH  29  30
ATOM     30  O   LIG    1       21.978 -21.346   4.929  0.00  0.00    -0.392 OA
ATOM     31  H   LIG    1       21.337 -21.914   4.454  0.00  0.00    +0.209 HD
ENDBRANCH  29  30
ENDBRANCH  22  29
ENDBRANCH   1  17
TORSDOF 12
ENDMDL
MODEL 4
REMARK VINA RESULT:      -2.2      1.371      1.526
REMARK  Name = *****
REMARK                            x       y       z     vdW  Elec       q    Type
REMARK                         _______ _______ _______ _____ _____    ______ ____
ROOT
ATOM      1  O   LIG    1       24.541 -16.087   4.062  0.00  0.00    -0.340 OA
ENDROOT
BRANCH   1   6
ATOM      2  C   LIG    1       22.989 -19.370   3.855  0.00  0.00    +0.178 C 
ATOM      3  C   LIG    1       24.172 -20.195   4.367  0.00  0.00    +0.177 C 
ATOM      4  C   LIG    1       25.447 -19.724   3.661  0.00  0.00    +0.179 C 
ATOM      5  C   LIG    1       25.659 -18.215   3.841  0.00  0.00    +0.201 C 
ATOM      6  C   LIG    1       24.355 -17.426   3.575  0.00  0.00    +0.282 C 
ATOM      7  O   LIG    1       23.222 -17.995   4.226  0.00  0.00    -0.341 OA
BRANCH   3   8
ATOM      8  O   LIG    1       24.362 -20.005   5.784  0.00  0.00    -0.387 OA
ATOM      9  H   LIG    1       23.480 -19.822   6.169  0.00  0.00    +0.210 HD
ENDBRANCH   3   8
BRANCH   4  10
ATOM     10  O   LIG    1       26.594 -20.406   4.191  0.00  0.00    -0.386 OA
ATOM     11  H   LIG    1       27.111 -20.700   3.413  0.00  0.00    +0.210 HD
ENDBRANCH   4  10
BRANCH   5  12
ATOM     12  O   LIG    1       26.695 -17.788   2.938  0.00  0.00    -0.384 OA
ATOM     13  H   LIG    1       26.466 -18.170   2.068  0.00  0.00    +0.210 HD
ENDBRANCH   5  12
BRANCH   2  14
ATOM     14  C   LIG    1       21.660 -19.807   4.464  0.00  0.00    +0.190 C 
BRANCH  14  15
ATOM     15  O   LIG    1       21.694 -21.181   4.820  0.00  0.00    -0.392 OA
ATOM     16  H   LIG    1       20.942 -21.609   4.372  0.00  0.00    +0.209 HD
ENDBRANCH  14  15
ENDBRANCH   2  14
ENDBRANCH   1   6
BRANCH   1  17
ATOM     17  C   LIG    1       25.214 -15.191   3.145  0.00  0.00    +0.183 C 
ATOM     18  C   LIG    1       24.249 -14.002   2.896  0.00  0.00    +0.179 C 
ATOM     19  C   LIG    1       24.090 -13.157   4.166  0.00  0.00    +0.201 C 
ATOM     20  C   LIG    1       25.466 -12.783   4.749  0.00  0.00    +0.279 C 
ATOM     21  O   LIG    1       26.300 -13.916   4.944  0.00  0.00    -0.341 OA
ATOM     22  C   LIG    1       26.538 -14.689   3.752  0.00  0.00    +0.178 C 
BRANCH  18  23
ATOM     23  O   LIG    1       24.729 -13.204   1.812  0.00  0.00    -0.386 OA
ATOM     24  H   LIG    1       25.382 -12.575   2.172  0.00  0.00    +0.210 HD
ENDBRANCH  18  23
BRANCH  19  25
ATOM     25  O   LIG    1       23.329 -13.863   5.162  0.00  0.00    -0.384 OA
ATOM     26  H   LIG    1       23.723 -14.759   5.237  0.00  0.00    +0.210 HD
ENDBRANCH  19  25
BRANCH  20  27
ATOM     27  O   LIG    1       25.289 -12.156   6.013  0.00  0.00    -0.365 OA
ATOM     28  H   LIG    1       24.531 -12.623   6.414  0.00  0.00    +0.213 HD
ENDBRANCH  20  27
BRANCH  22  29
ATOM     29  C   LIG    1       27.468 -13.953   2.781  0.00  0.00    +0.190 C 
BRANCH  29  30
ATOM     30  O   LIG    1       28.495 -13.309   3.540  0.00  0.00    -0.392 OA
ATOM     31  H   LIG    1       28.133 -12.439   3.807  0.00  0.00    +0.209 HD
ENDBRANCH  29  30
ENDBRANCH  22  29
ENDBRANCH   1  17
TORSDOF 12
ENDMDL
MODEL 5
REMARK VINA RESULT:      -2.0      1.576      2.889
REMARK  Name = *****
REMARK                            x       y       z     vdW  Elec       q    Type
REMARK                         _______ _______ _______ _____ _____    ______ ____
ROOT
ATOM      1  O   LIG    1       25.416 -15.830   2.858  0.00  0.00    -0.340 OA
ENDROOT
BRANCH   1   6
ATOM      2  C   LIG    1       25.053 -19.083   4.444  0.00  0.00    +0.178 C 
ATOM      3  C   LIG    1       23.562 -19.287   4.168  0.00  0.00    +0.177 C 
ATOM      4  C   LIG    1       22.813 -17.997   4.513  0.00  0.00    +0.179 C 
ATOM      5  C   LIG    1       23.394 -16.795   3.757  0.00  0.00    +0.201 C 
ATOM      6  C   LIG    1       24.939 -16.773   3.832  0.00  0.00    +0.282 C 
ATOM      7  O   LIG    1       25.524 -18.045   3.559  0.00  0.00    -0.341 OA
BRANCH   3   8
ATOM      8  O   LIG    1       23.327 -19.569   2.773  0.00  0.00    -0.387 OA
ATOM      9  H   LIG    1       24.000 -20.223   2.496  0.00  0.00    +0.210 HD
ENDBRANCH   3   8
BRANCH   4  10
ATOM     10  O   LIG    1       21.424 -18.117   4.169  0.00  0.00    -0.386 OA
ATOM     11  H   LIG    1       21.037 -18.721   4.837  0.00  0.00    +0.210 HD
ENDBRANCH   4  10
BRANCH   5  12
ATOM     12  O   LIG    1       22.848 -15.590   4.323  0.00  0.00    -0.384 OA
ATOM     13  H   LIG    1       23.307 -14.852   3.874  0.00  0.00    +0.210 HD
ENDBRANCH   5  12
BRANCH   2  14
ATOM     14  C   LIG    1       25.877 -20.340   4.181  0.00  0.00    +0.190 C 
BRANCH  14  15
ATOM     15  O   LIG    1       27.193 -20.201   4.693  0.00  0.00    -0.392 OA
ATOM     16  H   LIG    1       27.125 -20.238   5.665  0.00  0.00    +0.209 HD
ENDBRANCH  14  15
ENDBRANCH   2  14
ENDBRANCH   1   6
BRANCH   1  17
ATOM     17  C   LIG    1       26.437 -14.922   3.337  0.00  0.00    +0.183 C 
ATOM     18  C   LIG    1       26.500 -13.748   2.325  0.00  0.00    +0.179 C 
ATOM     19  C   LIG    1       25.218 -12.908   2.388  0.00  0.00    +0.201 C 
ATOM     20  C   LIG    1       24.895 -12.512   3.842  0.00  0.00    +0.279 C 
ATOM     21  O   LIG    1       24.862 -13.633   4.715  0.00  0.00    -0.341 OA
ATOM     22  C   LIG    1       26.081 -14.400   4.742  0.00  0.00    +0.178 C 
BRANCH  18  23
ATOM     23  O   LIG    1       27.649 -12.940   2.585  0.00  0.00    -0.386 OA
ATOM     24  H   LIG    1       28.223 -13.430   3.204  0.00  0.00    +0.210 HD
ENDBRANCH  18  23
BRANCH  19  25
ATOM     25  O   LIG    1       24.102 -13.627   1.834  0.00  0.00    -0.384 OA
ATOM     26  H   LIG    1       23.331 -13.019   1.863  0.00  0.00    +0.210 HD
ENDBRANCH  19  25
BRANCH  20  27
ATOM     27  O   LIG    1       23.617 -11.891   3.890  0.00  0.00    -0.365 OA
ATOM     28  H   LIG    1       23.475 -11.697   4.836  0.00  0.00    +0.213 HD
ENDBRANCH  20  27
BRANCH  22  29
ATOM     29  C   LIG    1       27.202 -13.647   5.467  0.00  0.00    +0.190 C 
BRANCH  29  30
ATOM     30  O   LIG    1       26.890 -13.604   6.862  0.00  0.00    -0.392 OA
ATOM     31  H   LIG    1       26.307 -12.828   6.988  0.00  0.00    +0.209 HD
ENDBRANCH  29  30
ENDBRANCH  22  29
ENDBRANCH   1  17
TORSDOF 12
ENDMDL
MODEL 6
REMARK VINA RESULT:      -2.0      1.513      6.179
REMARK  Name = *****
REMARK                            x       y       z     vdW  Elec       q    Type
REMARK                         _______ _______ _______ _____ _____    ______ ____
ROOT
ATOM      1  O   LIG    1       25.660 -18.342   3.072  0.00  0.00    -0.340 OA
ENDROOT
BRANCH   1   6
ATOM      2  C   LIG    1       24.692 -14.940   3.919  0.00  0.00    +0.178 C 
ATOM      3  C   LIG    1       25.991 -14.243   3.506  0.00  0.00    +0.177 C 
ATOM      4  C   LIG    1       27.176 -15.036   4.061  0.00  0.00    +0.179 C 
ATOM      5  C   LIG    1       27.126 -16.502   3.612  0.00  0.00    +0.201 C 
ATOM      6  C   LIG    1       25.711 -17.100   3.794  0.00  0.00    +0.282 C 
ATOM      7  O   LIG    1       24.682 -16.244   3.303  0.00  0.00    -0.341 OA
BRANCH   3   8
ATOM      8  O   LIG    1       26.124 -14.203   2.071  0.00  0.00    -0.387 OA
ATOM      9  H   LIG    1       26.178 -13.260   1.814  0.00  0.00    +0.210 HD
ENDBRANCH   3   8
BRANCH   4  10
ATOM     10  O   LIG    1       28.415 -14.468   3.607  0.00  0.00    -0.386 OA
ATOM     11  H   LIG    1       28.726 -13.892   4.336  0.00  0.00    +0.210 HD
ENDBRANCH   4  10
BRANCH   5  12
ATOM     12  O   LIG    1       28.088 -17.250   4.379  0.00  0.00    -0.384 OA
ATOM     13  H   LIG    1       28.921 -17.217   3.867  0.00  0.00    +0.210 HD
ENDBRANCH   5  12
BRANCH   2  14
ATOM     14  C   LIG    1       23.448 -14.187   3.456  0.00  0.00    +0.190 C 
BRANCH  14  15
ATOM     15  O   LIG    1       23.802 -12.998   2.766  0.00  0.00    -0.392 OA
ATOM     16  H   LIG    1       23.295 -12.990   1.935  0.00  0.00    +0.209 HD
ENDBRANCH  14  15
ENDBRANCH   2  14
ENDBRANCH   1   6
BRANCH   1  17
ATOM     17  C   LIG    1       24.400 -19.050   3.164  0.00  0.00    +0.183 C 
ATOM     18  C   LIG    1       24.736 -20.564   3.128  0.00  0.00    +0.179 C 
ATOM     19  C   LIG    1       25.475 -20.986   4.404  0.00  0.00    +0.201 C 
ATOM     20  C   LIG    1       24.719 -20.504   5.658  0.00  0.00    +0.279 C 
ATOM     21  O   LIG    1       24.437 -19.112   5.620  0.00  0.00    -0.341 OA
ATOM     22  C   LIG    1       23.672 -18.693   4.474  0.00  0.00    +0.178 C 
BRANCH  18  23
ATOM     23  O   LIG    1       23.538 -21.325   2.959  0.00  0.00    -0.386 OA
ATOM     24  H   LIG    1       22.836 -20.894   3.481  0.00  0.00    +0.210 HD
ENDBRANCH  18  23
BRANCH  19  25
ATOM     25  O   LIG    1       26.812 -20.457   4.424  0.00  0.00    -0.384 OA
ATOM     26  H   LIG    1       27.407 -21.182   4.132  0.00  0.00    +0.210 HD
ENDBRANCH  19  25
BRANCH  20  27
ATOM     27  O   LIG    1       25.511 -20.753   6.812  0.00  0.00    -0.365 OA
ATOM     28  H   LIG    1       25.114 -20.193   7.506  0.00  0.00    +0.213 HD
ENDBRANCH  20  27
BRANCH  22  29
ATOM     29  C   LIG    1       22.217 -19.163   4.566  0.00  0.00    +0.190 C 
BRANCH  29  30
ATOM     30  O   LIG    1       21.401 -18.261   3.814  0.00  0.00    -0.392 OA
ATOM     31  H   LIG    1       20.511 -18.293   4.220  0.00  0.00    +0.209 HD
ENDBRANCH  29  30
ENDBRANCH  22  29
ENDBRANCH   1  17
TORSDOF 12
ENDMDL
MODEL 7
REMARK VINA RESULT:      -1.3      1.207      2.543
REMARK  Name = *****
REMARK                            x       y       z     vdW  Elec       q    Type
REMARK                         _______ _______ _______ _____ _____    ______ ____
ROOT
ATOM      1  O   LIG    1       25.939 -16.523   2.866  0.00  0.00    -0.340 OA
ENDROOT
BRANCH   1   6
ATOM      2  C   LIG    1       25.016 -19.999   3.408  0.00  0.00    +0.178 C 
ATOM      3  C   LIG    1       25.592 -20.152   4.818  0.00  0.00    +0.177 C 
ATOM      4  C   LIG    1       27.000 -19.550   4.845  0.00  0.00    +0.179 C 
ATOM      5  C   LIG    1       26.992 -18.093   4.367  0.00  0.00    +0.201 C 
ATOM      6  C   LIG    1       26.164 -17.928   3.071  0.00  0.00    +0.282 C 
ATOM      7  O   LIG    1       24.901 -18.587   3.135  0.00  0.00    -0.341 OA
BRANCH   3   8
ATOM      8  O   LIG    1       24.793 -19.441   5.785  0.00  0.00    -0.387 OA
ATOM      9  H   LIG    1       24.952 -19.863   6.654  0.00  0.00    +0.210 HD
ENDBRANCH   3   8
BRANCH   4  10
ATOM     10  O   LIG    1       27.532 -19.584   6.179  0.00  0.00    -0.386 OA
ATOM     11  H   LIG    1       28.054 -18.761   6.277  0.00  0.00    +0.210 HD
ENDBRANCH   4  10
BRANCH   5  12
ATOM     12  O   LIG    1       28.352 -17.676   4.148  0.00  0.00    -0.384 OA
ATOM     13  H   LIG    1       28.330 -16.699   4.118  0.00  0.00    +0.210 HD
ENDBRANCH   5  12
BRANCH   2  14
ATOM     14  C   LIG    1       23.630 -20.623   3.269  0.00  0.00    +0.190 C 
BRANCH  14  15
ATOM     15  O   LIG    1       23.371 -21.525   4.333  0.00  0.00    -0.392 OA
ATOM     16  H   LIG    1       24.120 -21.457   4.953  0.00  0.00    +0.209 HD
ENDBRANCH  14  15
ENDBRANCH   2  14
ENDBRANCH   1   6
BRANCH   1  17
ATOM     17  C   LIG    1       25.554 -15.787   4.051  0.00  0.00    +0.183 C 
ATOM     18  C   LIG    1       26.613 -14.669   4.245  0.00  0.00    +0.179 C 
ATOM     19  C   LIG    1       26.509 -13.624   3.128  0.00  0.00    +0.201 C 
ATOM     20  C   LIG    1       25.055 -13.139   2.967  0.00  0.00    +0.279 C 
ATOM     21  O   LIG    1       24.140 -14.213   2.802  0.00  0.00    -0.341 OA
ATOM     22  C   LIG    1       24.152 -15.173   3.876  0.00  0.00    +0.178 C 
BRANCH  18  23
ATOM     23  O   LIG    1       26.449 -14.060   5.528  0.00  0.00    -0.386 OA
ATOM     24  H   LIG    1       25.967 -13.221   5.399  0.00  0.00    +0.210 HD
ENDBRANCH  18  23
BRANCH  19  25
ATOM     25  O   LIG    1       26.971 -14.161   1.876  0.00  0.00    -0.384 OA
ATOM     26  H   LIG    1       27.847 -14.571   2.050  0.00  0.00    +0.210 HD
ENDBRANCH  19  25
BRANCH  20  27
ATOM     27  O   LIG    1       24.959 -12.310   1.816  0.00  0.00    -0.365 OA
ATOM     28  H   LIG    1       25.764 -12.511   1.301  0.00  0.00    +0.213 HD
ENDBRANCH  20  27
BRANCH  22  29
ATOM     29  C   LIG    1       23.522 -14.599   5.150  0.00  0.00    +0.190 C 
BRANCH  29  30
ATOM     30  O   LIG    1       22.342 -15.350   5.448  0.00  0.00    -0.392 OA
ATOM     31  H   LIG    1       22.559 -16.286   5.260  0.00  0.00    +0.209 HD
ENDBRANCH  29  30
ENDBRANCH  22  29
ENDBRANCH   1  17
TORSDOF 12
ENDMDL
MODEL 8
REMARK VINA RESULT:      -0.9      1.191      2.645
REMARK  Name = *****
REMARK                            x       y       z     vdW  Elec       q    Type
REMARK                         _______ _______ _______ _____ _____    ______ ____
ROOT
ATOM      1  O   LIG    1       25.213 -15.968   2.999  0.00  0.00    -0.340 OA
ENDROOT
BRANCH   1   6
ATOM      2  C   LIG    1       26.572 -18.820   4.801  0.00  0.00    +0.178 C 
ATOM      3  C   LIG    1       25.550 -19.864   4.344  0.00  0.00    +0.177 C 
ATOM      4  C   LIG    1       24.145 -19.270   4.470  0.00  0.00    +0.179 C 
ATOM      5  C   LIG    1       24.026 -17.951   3.696  0.00  0.00    +0.201 C 
ATOM      6  C   LIG    1       25.229 -17.020   3.978  0.00  0.00    +0.282 C 
ATOM      7  O   LIG    1       26.482 -17.697   3.900  0.00  0.00    -0.341 OA
BRANCH   3   8
ATOM      8  O   LIG    1       25.753 -20.218   2.961  0.00  0.00    -0.387 OA
ATOM      9  H   LIG    1       25.809 -21.194   2.919  0.00  0.00    +0.210 HD
ENDBRANCH   3   8
BRANCH   4  10
ATOM     10  O   LIG    1       23.166 -20.185   3.953  0.00  0.00    -0.386 OA
ATOM     11  H   LIG    1       23.125 -20.922   4.599  0.00  0.00    +0.210 HD
ENDBRANCH   4  10
BRANCH   5  12
ATOM     12  O   LIG    1       22.796 -17.307   4.076  0.00  0.00    -0.384 OA
ATOM     13  H   LIG    1       22.991 -16.349   4.096  0.00  0.00    +0.210 HD
ENDBRANCH   5  12
BRANCH   2  14
ATOM     14  C   LIG    1       28.005 -19.344   4.763  0.00  0.00    +0.190 C 
BRANCH  14  15
ATOM     15  O   LIG    1       28.937 -18.275   4.812  0.00  0.00    -0.392 OA
ATOM     16  H   LIG    1       28.436 -17.454   4.662  0.00  0.00    +0.209 HD
ENDBRANCH  14  15
ENDBRANCH   2  14
ENDBRANCH   1   6
BRANCH   1  17
ATOM     17  C   LIG    1       26.275 -14.993   3.133  0.00  0.00    +0.183 C 
ATOM     18  C   LIG    1       25.891 -13.789   2.233  0.00  0.00    +0.179 C 
ATOM     19  C   LIG    1       24.665 -13.060   2.797  0.00  0.00    +0.201 C 
ATOM     20  C   LIG    1       24.861 -12.735   4.290  0.00  0.00    +0.279 C 
ATOM     21  O   LIG    1       25.219 -13.879   5.052  0.00  0.00    -0.341 OA
ATOM     22  C   LIG    1       26.414 -14.543   4.600  0.00  0.00    +0.178 C 
BRANCH  18  23
ATOM     23  O   LIG    1       27.001 -12.897   2.112  0.00  0.00    -0.386 OA
ATOM     24  H   LIG    1       26.659 -12.038   1.800  0.00  0.00    +0.210 HD
ENDBRANCH  18  23
BRANCH  19  25
ATOM     25  O   LIG    1       23.475 -13.853   2.636  0.00  0.00    -0.384 OA
ATOM     26  H   LIG    1       22.944 -13.734   3.453  0.00  0.00    +0.210 HD
ENDBRANCH  19  25
BRANCH  20  27
ATOM     27  O   LIG    1       23.647 -12.223   4.825  0.00  0.00    -0.365 OA
ATOM     28  H   LIG    1       22.946 -12.669   4.312  0.00  0.00    +0.213 HD
ENDBRANCH  20  27
BRANCH  22  29
ATOM     29  C   LIG    1       27.668 -13.722   4.919  0.00  0.00    +0.190 C 
BRANCH  29  30
ATOM     30  O   LIG    1       28.661 -14.009   3.931  0.00  0.00    -0.392 OA
ATOM     31  H   LIG    1       28.910 -13.149   3.536  0.00  0.00    +0.209 HD
ENDBRANCH  29  30
ENDBRANCH  22  29
ENDBRANCH   1  17
TORSDOF 12
ENDMDL
