MODEL 1
REMARK VINA RESULT:      33.0      0.000      0.000
REMARK  Name = *****
REMARK                            x       y       z     vdW  Elec       q    Type
REMARK                         _______ _______ _______ _____ _____    ______ ____
ROOT
ATOM      1  C   LIG    1       24.995 -12.343   3.668  0.00  0.00    +0.109 C 
ATOM      2  C   LIG    1       24.900 -12.670   5.201  0.00  0.00    +0.230 C 
ATOM      3  C   LIG    1       24.430 -14.173   5.325  0.00  0.00    +0.014 C 
ATOM      4  C   LIG    1       25.641 -15.082   5.673  0.00  0.00    +0.015 C 
ATOM      5  C   LIG    1       23.791 -14.492   3.936  0.00  0.00    +0.007 C 
ATOM      6  C   LIG    1       22.379 -15.123   3.962  0.00  0.00    -0.003 C 
ATOM      7  C   LIG    1       22.251 -16.266   4.992  0.00  0.00    -0.001 C 
ATOM      8  C   LIG    1       22.736 -15.801   6.383  0.00  0.00    +0.005 C 
ATOM      9  C   LIG    1       22.761 -17.712   4.540  0.00  0.00    -0.025 C 
ATOM     10  C   LIG    1       24.300 -17.834   4.535  0.00  0.00    +0.012 C 
ATOM     11  C   LIG    1       22.291 -18.021   3.091  0.00  0.00    -0.002 C 
ATOM     12  C   LIG    1       20.843 -18.504   3.085  0.00  0.00    +0.037 C 
ATOM     13  C   LIG    1       20.798 -19.899   3.683  0.00  0.00    +0.132 C 
ATOM     14  C   LIG    1       21.440 -20.026   5.086  0.00  0.00    +0.086 C 
ATOM     15  C   LIG    1       22.511 -16.861   2.111  0.00  0.00    +0.004 C 
ATOM     16  C   LIG    1       22.211 -18.764   5.575  0.00  0.00    +0.028 C 
ATOM     17  C   LIG    1       21.879 -15.563   2.580  0.00  0.00    +0.004 C 
ATOM     18  C   LIG    1       23.337 -14.385   6.409  0.00  0.00    +0.011 C 
ATOM     19  C   LIG    1       23.821 -13.177   3.132  0.00  0.00    +0.062 C 
ENDROOT
BRANCH  14  20
ATOM     20  N   LIG    1       22.197 -21.271   5.381  0.00  0.00    -0.293 NA
ATOM     21  C   LIG    1       23.283 -21.572   4.424  0.00  0.00    +0.113 C 
ATOM     22  C   LIG    1       24.616 -20.879   4.747  0.00  0.00    +0.175 C 
ATOM     23  O   LIG    1       25.067 -21.217   6.065  0.00  0.00    -0.377 OA
ATOM     24  C   LIG    1       24.093 -20.898   7.061  0.00  0.00    +0.175 C 
ATOM     25  C   LIG    1       22.702 -21.477   6.743  0.00  0.00    +0.113 C 
ENDBRANCH  14  20
BRANCH   1  26
ATOM     26  N   LIG    1       26.325 -12.566   2.843  0.00  0.00    +0.251 N 
ATOM     27  C   LIG    1       27.560 -12.640   3.817  0.00  0.00    +0.134 C 
ATOM     28  C   LIG    1       28.594 -11.660   3.281  0.00  0.00    +0.056 C 
ATOM     29  C   LIG    1       28.232 -11.452   1.829  0.00  0.00    +0.056 C 
ATOM     30  C   LIG    1       26.719 -11.447   1.869  0.00  0.00    +0.134 C 
BRANCH  26  31
ATOM     31  C   LIG    1       26.310 -13.900   2.037  0.00  0.00    +0.161 C 
BRANCH  31  33
ATOM     32  C   LIG    1       26.916 -16.164   3.018  0.00  0.00    +0.009 C 
ATOM     33  C   LIG    1       27.250 -14.972   2.497  0.00  0.00    +0.015 C 
ENDBRANCH  31  33
ENDBRANCH  26  31
ENDBRANCH   1  26
BRANCH  13  34
ATOM     34  O   LIG    1       19.441 -20.342   3.716  0.00  0.00    -0.390 OA
ATOM     35  H   LIG    1       18.940 -19.787   3.092  0.00  0.00    +0.210 HD
ENDBRANCH  13  34
BRANCH   2  36
ATOM     36  O   LIG    1       26.085 -12.375   5.952  0.00  0.00    -0.455 OA
BRANCH  36  37
ATOM     37  C   LIG    1       27.118 -13.255   5.772  0.00  0.00    +0.304 C 
ATOM     38  O   LIG    1       26.991 -14.448   5.454  0.00  0.00    -0.251 OA
ATOM     39  C   LIG    1       28.434 -12.539   5.879  0.00  0.00    +0.136 C 
ENDBRANCH  36  37
ENDBRANCH   2  36
TORSDOF 7
ENDMDL
