MODEL 1
REMARK VINA RESULT:      -8.8      0.000      0.000
REMARK  Name = *****
REMARK                            x       y       z     vdW  Elec       q    Type
REMARK                         _______ _______ _______ _____ _____    ______ ____
ROOT
ATOM      1  C   LIG    1       25.249 -27.567   6.401  0.00  0.00    +0.134 A 
ATOM      2  C   LIG    1       25.231 -28.521   7.435  0.00  0.00    +0.044 A 
ATOM      3  C   LIG    1       24.499 -29.686   7.163  0.00  0.00    +0.080 A 
ATOM      4  C   LIG    1       24.348 -30.627   8.170  0.00  0.00    +0.077 A 
ATOM      5  C   LIG    1       24.934 -30.452   9.426  0.00  0.00    +0.164 A 
ATOM      6  O   LIG    1       24.573 -31.325  10.416  0.00  0.00    -0.486 OA
ATOM      7  C   LIG    1       25.598 -32.278  10.731  0.00  0.00    +0.257 C 
ATOM      8  C   LIG    1       25.250 -32.908  12.088  0.00  0.00    +0.201 C 
ATOM      9  O   LIG    1       26.055 -32.390  13.151  0.00  0.00    -0.374 OA
ATOM     10  C   LIG    1       25.725 -31.052  13.528  0.00  0.00    +0.188 C 
ATOM     11  C   LIG    1       27.017 -30.252  13.670  0.00  0.00    +0.188 C 
ATOM     12  O   LIG    1       26.741 -28.866  13.867  0.00  0.00    -0.374 OA
ATOM     13  C   LIG    1       27.200 -28.032  12.798  0.00  0.00    +0.201 C 
ATOM     14  C   LIG    1       26.239 -28.005  11.604  0.00  0.00    +0.257 C 
ATOM     15  O   LIG    1       26.345 -29.246  10.900  0.00  0.00    -0.486 OA
ATOM     16  C   LIG    1       25.696 -29.316   9.700  0.00  0.00    +0.163 A 
ATOM     17  N   LIG    1       23.918 -29.915   5.981  0.00  0.00    -0.235 NA
ATOM     18  C   LIG    1       24.037 -28.957   5.056  0.00  0.00    +0.224 A 
ATOM     19  C   LIG    1       25.847 -28.355   8.702  0.00  0.00    +0.062 A 
ATOM     20  N   LIG    1       24.663 -27.790   5.211  0.00  0.00    -0.220 NA
ENDROOT
BRANCH   1  21
ATOM     21  N   LIG    1       25.893 -26.320   6.615  0.00  0.00    -0.299 N 
ATOM     22  H   LIG    1       26.717 -26.255   6.028  0.00  0.00    +0.154 HD
BRANCH  21  25
ATOM     23  C   LIG    1       25.338 -22.697   7.339  0.00  0.00    +0.026 A 
ATOM     24  C   LIG    1       25.969 -23.934   7.192  0.00  0.00    +0.040 A 
ATOM     25  C   LIG    1       25.250 -25.079   6.816  0.00  0.00    +0.034 A 
ATOM     26  C   LIG    1       23.888 -24.935   6.522  0.00  0.00    +0.023 A 
ATOM     27  C   LIG    1       23.250 -23.698   6.665  0.00  0.00    +0.003 A 
ATOM     28  C   LIG    1       23.974 -22.580   7.080  0.00  0.00    +0.017 A 
BRANCH  23  30
ATOM     29  C   LIG    1       26.713 -20.592   8.121  0.00  0.00    +0.009 C 
ATOM     30  C   LIG    1       26.100 -21.562   7.759  0.00  0.00    -0.070 C 
ENDBRANCH  23  30
ENDBRANCH  21  25
ENDBRANCH   1  21
TORSDOF 3
ENDMDL
MODEL 2
REMARK VINA RESULT:      -7.5      2.534      3.203
REMARK  Name = *****
REMARK                            x       y       z     vdW  Elec       q    Type
REMARK                         _______ _______ _______ _____ _____    ______ ____
ROOT
ATOM      1  C   LIG    1       24.682 -29.849   6.098  0.00  0.00    +0.134 A 
ATOM      2  C   LIG    1       24.659 -30.576   7.302  0.00  0.00    +0.044 A 
ATOM      3  C   LIG    1       25.288 -31.829   7.259  0.00  0.00    +0.080 A 
ATOM      4  C   LIG    1       25.217 -32.648   8.376  0.00  0.00    +0.077 A 
ATOM      5  C   LIG    1       24.567 -32.237   9.541  0.00  0.00    +0.164 A 
ATOM      6  O   LIG    1       24.375 -33.176  10.519  0.00  0.00    -0.486 OA
ATOM      7  C   LIG    1       25.240 -33.001  11.649  0.00  0.00    +0.257 C 
ATOM      8  C   LIG    1       24.663 -33.825  12.810  0.00  0.00    +0.201 C 
ATOM      9  O   LIG    1       24.000 -33.009  13.781  0.00  0.00    -0.374 OA
ATOM     10  C   LIG    1       22.745 -32.489  13.339  0.00  0.00    +0.188 C 
ATOM     11  C   LIG    1       22.675 -31.008  13.701  0.00  0.00    +0.188 C 
ATOM     12  O   LIG    1       21.522 -30.395  13.124  0.00  0.00    -0.374 OA
ATOM     13  C   LIG    1       21.832 -29.395  12.148  0.00  0.00    +0.201 C 
ATOM     14  C   LIG    1       22.151 -29.982  10.769  0.00  0.00    +0.257 C 
ATOM     15  O   LIG    1       23.452 -30.576  10.811  0.00  0.00    -0.486 OA
ATOM     16  C   LIG    1       23.970 -30.978   9.613  0.00  0.00    +0.163 A 
ATOM     17  N   LIG    1       25.928 -32.279   6.175  0.00  0.00    -0.235 NA
ATOM     18  C   LIG    1       25.922 -31.485   5.100  0.00  0.00    +0.224 A 
ATOM     19  C   LIG    1       24.022 -30.148   8.496  0.00  0.00    +0.062 A 
ATOM     20  N   LIG    1       25.322 -30.298   5.003  0.00  0.00    -0.220 NA
ENDROOT
BRANCH   1  21
ATOM     21  N   LIG    1       23.999 -28.607   6.021  0.00  0.00    -0.299 N 
ATOM     22  H   LIG    1       23.118 -28.669   6.516  0.00  0.00    +0.154 HD
BRANCH  21  25
ATOM     23  C   LIG    1       24.424 -24.918   6.440  0.00  0.00    +0.026 A 
ATOM     24  C   LIG    1       23.827 -26.175   6.314  0.00  0.00    +0.040 A 
ATOM     25  C   LIG    1       24.595 -27.328   6.096  0.00  0.00    +0.034 A 
ATOM     26  C   LIG    1       25.990 -27.199   6.078  0.00  0.00    +0.023 A 
ATOM     27  C   LIG    1       26.595 -25.943   6.207  0.00  0.00    +0.003 A 
ATOM     28  C   LIG    1       25.811 -24.802   6.381  0.00  0.00    +0.017 A 
BRANCH  23  30
ATOM     29  C   LIG    1       22.920 -22.789   6.812  0.00  0.00    +0.009 C 
ATOM     30  C   LIG    1       23.603 -23.762   6.625  0.00  0.00    -0.070 C 
ENDBRANCH  23  30
ENDBRANCH  21  25
ENDBRANCH   1  21
TORSDOF 3
ENDMDL
MODEL 3
REMARK VINA RESULT:      -7.4      1.725      2.769
REMARK  Name = *****
REMARK                            x       y       z     vdW  Elec       q    Type
REMARK                         _______ _______ _______ _____ _____    ______ ____
ROOT
ATOM      1  C   LIG    1       25.613 -25.796   6.324  0.00  0.00    +0.134 A 
ATOM      2  C   LIG    1       25.543 -27.179   6.568  0.00  0.00    +0.044 A 
ATOM      3  C   LIG    1       25.325 -27.978   5.435  0.00  0.00    +0.080 A 
ATOM      4  C   LIG    1       25.142 -29.342   5.608  0.00  0.00    +0.077 A 
ATOM      5  C   LIG    1       25.204 -29.931   6.873  0.00  0.00    +0.164 A 
ATOM      6  O   LIG    1       24.818 -31.241   6.976  0.00  0.00    -0.486 OA
ATOM      7  C   LIG    1       25.919 -32.142   7.156  0.00  0.00    +0.257 C 
ATOM      8  C   LIG    1       25.351 -33.478   7.660  0.00  0.00    +0.201 C 
ATOM      9  O   LIG    1       25.571 -33.668   9.061  0.00  0.00    -0.374 OA
ATOM     10  C   LIG    1       24.752 -32.845   9.892  0.00  0.00    +0.188 C 
ATOM     11  C   LIG    1       25.625 -32.234  10.985  0.00  0.00    +0.188 C 
ATOM     12  O   LIG    1       24.899 -31.261  11.735  0.00  0.00    -0.374 OA
ATOM     13  C   LIG    1       25.410 -29.931  11.597  0.00  0.00    +0.201 C 
ATOM     14  C   LIG    1       24.931 -29.234  10.318  0.00  0.00    +0.257 C 
ATOM     15  O   LIG    1       25.627 -29.794   9.200  0.00  0.00    -0.486 OA
ATOM     16  C   LIG    1       25.458 -29.156   8.004  0.00  0.00    +0.163 A 
ATOM     17  N   LIG    1       25.258 -27.475   4.199  0.00  0.00    -0.235 NA
ATOM     18  C   LIG    1       25.381 -26.149   4.081  0.00  0.00    +0.224 A 
ATOM     19  C   LIG    1       25.633 -27.783   7.849  0.00  0.00    +0.062 A 
ATOM     20  N   LIG    1       25.543 -25.283   5.082  0.00  0.00    -0.220 NA
ENDROOT
BRANCH   1  21
ATOM     21  N   LIG    1       25.748 -24.902   7.418  0.00  0.00    -0.299 N 
ATOM     22  H   LIG    1       26.514 -25.199   8.010  0.00  0.00    +0.154 HD
BRANCH  21  25
ATOM     23  C   LIG    1       26.537 -21.258   7.156  0.00  0.00    +0.026 A 
ATOM     24  C   LIG    1       26.697 -22.642   7.261  0.00  0.00    +0.040 A 
ATOM     25  C   LIG    1       25.591 -23.498   7.366  0.00  0.00    +0.034 A 
ATOM     26  C   LIG    1       24.311 -22.935   7.293  0.00  0.00    +0.023 A 
ATOM     27  C   LIG    1       24.143 -21.549   7.186  0.00  0.00    +0.003 A 
ATOM     28  C   LIG    1       25.256 -20.711   7.124  0.00  0.00    +0.017 A 
BRANCH  23  30
ATOM     29  C   LIG    1       28.681 -19.736   7.025  0.00  0.00    +0.009 C 
ATOM     30  C   LIG    1       27.691 -20.417   7.088  0.00  0.00    -0.070 C 
ENDBRANCH  23  30
ENDBRANCH  21  25
ENDBRANCH   1  21
TORSDOF 3
ENDMDL
MODEL 4
REMARK VINA RESULT:      -7.4      3.603      5.430
REMARK  Name = *****
REMARK                            x       y       z     vdW  Elec       q    Type
REMARK                         _______ _______ _______ _____ _____    ______ ____
ROOT
ATOM      1  C   LIG    1       26.245 -29.606   9.708  0.00  0.00    +0.134 A 
ATOM      2  C   LIG    1       25.284 -29.704  10.731  0.00  0.00    +0.044 A 
ATOM      3  C   LIG    1       25.772 -29.514  12.033  0.00  0.00    +0.080 A 
ATOM      4  C   LIG    1       24.906 -29.698  13.101  0.00  0.00    +0.077 A 
ATOM      5  C   LIG    1       23.565 -30.031  12.903  0.00  0.00    +0.164 A 
ATOM      6  O   LIG    1       22.835 -30.385  14.007  0.00  0.00    -0.486 OA
ATOM      7  C   LIG    1       21.906 -29.373  14.419  0.00  0.00    +0.257 C 
ATOM      8  C   LIG    1       20.894 -30.029  15.370  0.00  0.00    +0.201 C 
ATOM      9  O   LIG    1       19.633 -30.271  14.739  0.00  0.00    -0.374 OA
ATOM     10  C   LIG    1       19.654 -31.344  13.795  0.00  0.00    +0.188 C 
ATOM     11  C   LIG    1       18.928 -30.896  12.531  0.00  0.00    +0.188 C 
ATOM     12  O   LIG    1       19.075 -31.859  11.488  0.00  0.00    -0.374 OA
ATOM     13  C   LIG    1       19.812 -31.376  10.360  0.00  0.00    +0.201 C 
ATOM     14  C   LIG    1       21.330 -31.435  10.566  0.00  0.00    +0.257 C 
ATOM     15  O   LIG    1       21.713 -30.395  11.469  0.00  0.00    -0.486 OA
ATOM     16  C   LIG    1       23.056 -30.186  11.614  0.00  0.00    +0.163 A 
ATOM     17  N   LIG    1       27.044 -29.192  12.288  0.00  0.00    -0.235 NA
ATOM     18  C   LIG    1       27.860 -29.082  11.235  0.00  0.00    +0.224 A 
ATOM     19  C   LIG    1       23.915 -30.017  10.531  0.00  0.00    +0.062 A 
ATOM     20  N   LIG    1       27.527 -29.285   9.959  0.00  0.00    -0.220 NA
ENDROOT
BRANCH   1  21
ATOM     21  N   LIG    1       25.863 -29.865   8.367  0.00  0.00    -0.299 N 
ATOM     22  H   LIG    1       25.390 -30.759   8.312  0.00  0.00    +0.154 HD
BRANCH  21  25
ATOM     23  C   LIG    1       25.286 -26.632   6.583  0.00  0.00    +0.026 A 
ATOM     24  C   LIG    1       25.734 -27.561   7.525  0.00  0.00    +0.040 A 
ATOM     25  C   LIG    1       25.368 -28.913   7.447  0.00  0.00    +0.034 A 
ATOM     26  C   LIG    1       24.594 -29.325   6.355  0.00  0.00    +0.023 A 
ATOM     27  C   LIG    1       24.143 -28.400   5.406  0.00  0.00    +0.003 A 
ATOM     28  C   LIG    1       24.484 -27.052   5.524  0.00  0.00    +0.017 A 
BRANCH  23  30
ATOM     29  C   LIG    1       25.929 -24.092   6.845  0.00  0.00    +0.009 C 
ATOM     30  C   LIG    1       25.652 -25.256   6.719  0.00  0.00    -0.070 C 
ENDBRANCH  23  30
ENDBRANCH  21  25
ENDBRANCH   1  21
TORSDOF 3
ENDMDL
MODEL 5
REMARK VINA RESULT:      -7.4      1.725      2.997
REMARK  Name = *****
REMARK                            x       y       z     vdW  Elec       q    Type
REMARK                         _______ _______ _______ _____ _____    ______ ____
ROOT
ATOM      1  C   LIG    1       25.698 -25.761   6.367  0.00  0.00    +0.134 A 
ATOM      2  C   LIG    1       25.596 -27.139   6.632  0.00  0.00    +0.044 A 
ATOM      3  C   LIG    1       25.324 -27.945   5.517  0.00  0.00    +0.080 A 
ATOM      4  C   LIG    1       25.106 -29.301   5.714  0.00  0.00    +0.077 A 
ATOM      5  C   LIG    1       25.187 -29.876   6.984  0.00  0.00    +0.164 A 
ATOM      6  O   LIG    1       24.767 -31.172   7.116  0.00  0.00    -0.486 OA
ATOM      7  C   LIG    1       25.846 -32.102   7.279  0.00  0.00    +0.257 C 
ATOM      8  C   LIG    1       25.255 -33.414   7.816  0.00  0.00    +0.201 C 
ATOM      9  O   LIG    1       25.507 -33.593   9.213  0.00  0.00    -0.374 OA
ATOM     10  C   LIG    1       24.736 -32.735  10.055  0.00  0.00    +0.188 C 
ATOM     11  C   LIG    1       25.656 -32.135  11.115  0.00  0.00    +0.188 C 
ATOM     12  O   LIG    1       24.979 -31.131  11.871  0.00  0.00    -0.374 OA
ATOM     13  C   LIG    1       25.524 -29.819  11.700  0.00  0.00    +0.201 C 
ATOM     14  C   LIG    1       25.029 -29.126  10.425  0.00  0.00    +0.257 C 
ATOM     15  O   LIG    1       25.678 -29.720   9.297  0.00  0.00    -0.486 OA
ATOM     16  C   LIG    1       25.494 -29.093   8.097  0.00  0.00    +0.163 A 
ATOM     17  N   LIG    1       25.237 -27.457   4.276  0.00  0.00    -0.235 NA
ATOM     18  C   LIG    1       25.394 -26.137   4.136  0.00  0.00    +0.224 A 
ATOM     19  C   LIG    1       25.704 -27.728   7.918  0.00  0.00    +0.062 A 
ATOM     20  N   LIG    1       25.608 -25.263   5.120  0.00  0.00    -0.220 NA
ENDROOT
BRANCH   1  21
ATOM     21  N   LIG    1       25.889 -24.857   7.444  0.00  0.00    -0.299 N 
ATOM     22  H   LIG    1       26.761 -25.065   7.915  0.00  0.00    +0.154 HD
BRANCH  21  25
ATOM     23  C   LIG    1       24.183 -21.621   6.680  0.00  0.00    +0.026 A 
ATOM     24  C   LIG    1       24.530 -22.974   6.644  0.00  0.00    +0.040 A 
ATOM     25  C   LIG    1       25.570 -23.481   7.438  0.00  0.00    +0.034 A 
ATOM     26  C   LIG    1       26.210 -22.605   8.324  0.00  0.00    +0.023 A 
ATOM     27  C   LIG    1       25.865 -21.249   8.367  0.00  0.00    +0.003 A 
ATOM     28  C   LIG    1       24.856 -20.756   7.539  0.00  0.00    +0.017 A 
BRANCH  23  30
ATOM     29  C   LIG    1       22.286 -20.714   5.094  0.00  0.00    +0.009 C 
ATOM     30  C   LIG    1       23.141 -21.138   5.828  0.00  0.00    -0.070 C 
ENDBRANCH  23  30
ENDBRANCH  21  25
ENDBRANCH   1  21
TORSDOF 3
ENDMDL
MODEL 6
REMARK VINA RESULT:      -7.1      3.781      5.927
REMARK  Name = *****
REMARK                            x       y       z     vdW  Elec       q    Type
REMARK                         _______ _______ _______ _____ _____    ______ ____
ROOT
ATOM      1  C   LIG    1       26.151 -29.512   9.944  0.00  0.00    +0.134 A 
ATOM      2  C   LIG    1       25.049 -29.500  10.818  0.00  0.00    +0.044 A 
ATOM      3  C   LIG    1       25.274 -28.888  12.060  0.00  0.00    +0.080 A 
ATOM      4  C   LIG    1       24.268 -28.928  13.014  0.00  0.00    +0.077 A 
ATOM      5  C   LIG    1       23.036 -29.531  12.749  0.00  0.00    +0.164 A 
ATOM      6  O   LIG    1       22.179 -29.699  13.804  0.00  0.00    -0.486 OA
ATOM      7  C   LIG    1       21.069 -28.793  13.780  0.00  0.00    +0.257 C 
ATOM      8  C   LIG    1       20.001 -29.337  14.741  0.00  0.00    +0.201 C 
ATOM      9  O   LIG    1       18.912 -29.956  14.050  0.00  0.00    -0.374 OA
ATOM     10  C   LIG    1       19.237 -31.220  13.471  0.00  0.00    +0.188 C 
ATOM     11  C   LIG    1       18.688 -31.260  12.048  0.00  0.00    +0.188 C 
ATOM     12  O   LIG    1       19.140 -32.425  11.358  0.00  0.00    -0.374 OA
ATOM     13  C   LIG    1       19.991 -32.140  10.244  0.00  0.00    +0.201 C 
ATOM     14  C   LIG    1       21.445 -31.876  10.653  0.00  0.00    +0.257 C 
ATOM     15  O   LIG    1       21.526 -30.582  11.256  0.00  0.00    -0.486 OA
ATOM     16  C   LIG    1       22.784 -30.111  11.507  0.00  0.00    +0.163 A 
ATOM     17  N   LIG    1       26.429 -28.292  12.372  0.00  0.00    -0.235 NA
ATOM     18  C   LIG    1       27.394 -28.327  11.448  0.00  0.00    +0.224 A 
ATOM     19  C   LIG    1       23.788 -30.090  10.541  0.00  0.00    +0.062 A 
ATOM     20  N   LIG    1       27.317 -28.917  10.254  0.00  0.00    -0.220 NA
ENDROOT
BRANCH   1  21
ATOM     21  N   LIG    1       26.045 -30.183   8.698  0.00  0.00    -0.299 N 
ATOM     22  H   LIG    1       25.796 -31.153   8.851  0.00  0.00    +0.154 HD
BRANCH  21  25
ATOM     23  C   LIG    1       24.684 -27.745   6.213  0.00  0.00    +0.026 A 
ATOM     24  C   LIG    1       25.175 -28.284   7.405  0.00  0.00    +0.040 A 
ATOM     25  C   LIG    1       25.498 -29.645   7.511  0.00  0.00    +0.034 A 
ATOM     26  C   LIG    1       25.382 -30.442   6.365  0.00  0.00    +0.023 A 
ATOM     27  C   LIG    1       24.893 -29.908   5.167  0.00  0.00    +0.003 A 
ATOM     28  C   LIG    1       24.538 -28.561   5.093  0.00  0.00    +0.017 A 
BRANCH  23  30
ATOM     29  C   LIG    1       24.009 -25.202   6.128  0.00  0.00    +0.009 C 
ATOM     30  C   LIG    1       24.332 -26.360   6.158  0.00  0.00    -0.070 C 
ENDBRANCH  23  30
ENDBRANCH  21  25
ENDBRANCH   1  21
TORSDOF 3
ENDMDL
MODEL 7
REMARK VINA RESULT:      -6.8      4.072      6.722
REMARK  Name = *****
REMARK                            x       y       z     vdW  Elec       q    Type
REMARK                         _______ _______ _______ _____ _____    ______ ____
ROOT
ATOM      1  C   LIG    1       26.469 -29.828  13.326  0.00  0.00    +0.134 A 
ATOM      2  C   LIG    1       25.930 -30.370  12.145  0.00  0.00    +0.044 A 
ATOM      3  C   LIG    1       25.638 -31.741  12.193  0.00  0.00    +0.080 A 
ATOM      4  C   LIG    1       25.201 -32.369  11.036  0.00  0.00    +0.077 A 
ATOM      5  C   LIG    1       25.016 -31.660   9.847  0.00  0.00    +0.164 A 
ATOM      6  O   LIG    1       24.775 -32.387   8.712  0.00  0.00    -0.486 OA
ATOM      7  C   LIG    1       23.413 -32.313   8.272  0.00  0.00    +0.257 C 
ATOM      8  C   LIG    1       23.364 -32.806   6.817  0.00  0.00    +0.201 C 
ATOM      9  O   LIG    1       23.236 -31.730   5.883  0.00  0.00    -0.374 OA
ATOM     10  C   LIG    1       24.425 -30.952   5.729  0.00  0.00    +0.188 C 
ATOM     11  C   LIG    1       24.047 -29.474   5.764  0.00  0.00    +0.188 C 
ATOM     12  O   LIG    1       25.213 -28.650   5.797  0.00  0.00    -0.374 OA
ATOM     13  C   LIG    1       25.348 -27.895   7.005  0.00  0.00    +0.201 C 
ATOM     14  C   LIG    1       25.949 -28.710   8.157  0.00  0.00    +0.257 C 
ATOM     15  O   LIG    1       24.957 -29.620   8.643  0.00  0.00    -0.486 OA
ATOM     16  C   LIG    1       25.266 -30.289   9.793  0.00  0.00    +0.163 A 
ATOM     17  N   LIG    1       25.790 -32.474  13.300  0.00  0.00    -0.235 NA
ATOM     18  C   LIG    1       26.270 -31.844  14.377  0.00  0.00    +0.224 A 
ATOM     19  C   LIG    1       25.717 -29.646  10.943  0.00  0.00    +0.062 A 
ATOM     20  N   LIG    1       26.628 -30.561  14.443  0.00  0.00    -0.220 NA
ENDROOT
BRANCH   1  21
ATOM     21  N   LIG    1       26.873 -28.468  13.347  0.00  0.00    -0.299 N 
ATOM     22  H   LIG    1       27.616 -28.321  12.674  0.00  0.00    +0.154 HD
BRANCH  21  25
ATOM     23  C   LIG    1       23.783 -26.376  13.555  0.00  0.00    +0.026 A 
ATOM     24  C   LIG    1       24.628 -27.472  13.360  0.00  0.00    +0.040 A 
ATOM     25  C   LIG    1       26.020 -27.351  13.491  0.00  0.00    +0.034 A 
ATOM     26  C   LIG    1       26.540 -26.114  13.893  0.00  0.00    +0.023 A 
ATOM     27  C   LIG    1       25.699 -25.013  14.092  0.00  0.00    +0.003 A 
ATOM     28  C   LIG    1       24.321 -25.143  13.917  0.00  0.00    +0.017 A 
BRANCH  23  30
ATOM     29  C   LIG    1       21.193 -26.686  13.203  0.00  0.00    +0.009 C 
ATOM     30  C   LIG    1       22.373 -26.533  13.377  0.00  0.00    -0.070 C 
ENDBRANCH  23  30
ENDBRANCH  21  25
ENDBRANCH   1  21
TORSDOF 3
ENDMDL
MODEL 8
REMARK VINA RESULT:      -6.7      5.671      8.097
REMARK  Name = *****
REMARK                            x       y       z     vdW  Elec       q    Type
REMARK                         _______ _______ _______ _____ _____    ______ ____
ROOT
ATOM      1  C   LIG    1       24.608 -28.693  12.602  0.00  0.00    +0.134 A 
ATOM      2  C   LIG    1       23.318 -28.275  12.978  0.00  0.00    +0.044 A 
ATOM      3  C   LIG    1       23.237 -26.977  13.504  0.00  0.00    +0.080 A 
ATOM      4  C   LIG    1       22.018 -26.532  13.992  0.00  0.00    +0.077 A 
ATOM      5  C   LIG    1       20.875 -27.333  13.939  0.00  0.00    +0.164 A 
ATOM      6  O   LIG    1       19.769 -26.895  14.617  0.00  0.00    -0.486 OA
ATOM      7  C   LIG    1       18.737 -26.398  13.754  0.00  0.00    +0.257 C 
ATOM      8  C   LIG    1       17.437 -26.332  14.571  0.00  0.00    +0.201 C 
ATOM      9  O   LIG    1       16.541 -27.402  14.255  0.00  0.00    -0.374 OA
ATOM     10  C   LIG    1       16.958 -28.673  14.756  0.00  0.00    +0.188 C 
ATOM     11  C   LIG    1       16.795 -29.711  13.649  0.00  0.00    +0.188 C 
ATOM     12  O   LIG    1       17.365 -30.962  14.033  0.00  0.00    -0.374 OA
ATOM     13  C   LIG    1       18.486 -31.351  13.232  0.00  0.00    +0.201 C 
ATOM     14  C   LIG    1       19.793 -30.677  13.664  0.00  0.00    +0.257 C 
ATOM     15  O   LIG    1       19.764 -29.308  13.248  0.00  0.00    -0.486 OA
ATOM     16  C   LIG    1       20.931 -28.611  13.385  0.00  0.00    +0.163 A 
ATOM     17  N   LIG    1       24.293 -26.162  13.579  0.00  0.00    -0.235 NA
ATOM     18  C   LIG    1       25.463 -26.650  13.153  0.00  0.00    +0.224 A 
ATOM     19  C   LIG    1       22.150 -29.078  12.901  0.00  0.00    +0.062 A 
ATOM     20  N   LIG    1       25.675 -27.878  12.679  0.00  0.00    -0.220 NA
ENDROOT
BRANCH   1  21
ATOM     21  N   LIG    1       24.802 -30.020  12.138  0.00  0.00    -0.299 N 
ATOM     22  H   LIG    1       24.591 -30.677  12.880  0.00  0.00    +0.154 HD
BRANCH  21  25
ATOM     23  C   LIG    1       24.325 -30.193   8.436  0.00  0.00    +0.026 A 
ATOM     24  C   LIG    1       24.598 -29.696   9.712  0.00  0.00    +0.040 A 
ATOM     25  C   LIG    1       24.476 -30.505  10.852  0.00  0.00    +0.034 A 
ATOM     26  C   LIG    1       24.140 -31.852  10.671  0.00  0.00    +0.023 A 
ATOM     27  C   LIG    1       23.868 -32.359   9.395  0.00  0.00    +0.003 A 
ATOM     28  C   LIG    1       23.954 -31.527   8.278  0.00  0.00    +0.017 A 
BRANCH  23  30
ATOM     29  C   LIG    1       24.482 -28.582   6.359  0.00  0.00    +0.009 C 
ATOM     30  C   LIG    1       24.426 -29.326   7.304  0.00  0.00    -0.070 C 
ENDBRANCH  23  30
ENDBRANCH  21  25
ENDBRANCH   1  21
TORSDOF 3
ENDMDL
MODEL 9
REMARK VINA RESULT:      -6.6      2.104      3.564
REMARK  Name = *****
REMARK                            x       y       z     vdW  Elec       q    Type
REMARK                         _______ _______ _______ _____ _____    ______ ____
ROOT
ATOM      1  C   LIG    1       25.409 -29.787   7.863  0.00  0.00    +0.134 A 
ATOM      2  C   LIG    1       26.155 -29.743   9.055  0.00  0.00    +0.044 A 
ATOM      3  C   LIG    1       26.905 -30.894   9.337  0.00  0.00    +0.080 A 
ATOM      4  C   LIG    1       27.584 -30.967  10.544  0.00  0.00    +0.077 A 
ATOM      5  C   LIG    1       27.561 -29.912  11.458  0.00  0.00    +0.164 A 
ATOM      6  O   LIG    1       28.090 -30.144  12.700  0.00  0.00    -0.486 OA
ATOM      7  C   LIG    1       29.359 -29.507  12.901  0.00  0.00    +0.257 C 
ATOM      8  C   LIG    1       29.640 -29.493  14.411  0.00  0.00    +0.201 C 
ATOM      9  O   LIG    1       29.425 -28.203  14.993  0.00  0.00    -0.374 OA
ATOM     10  C   LIG    1       28.047 -27.840  15.102  0.00  0.00    +0.188 C 
ATOM     11  C   LIG    1       27.882 -26.403  14.616  0.00  0.00    +0.188 C 
ATOM     12  O   LIG    1       26.502 -26.048  14.532  0.00  0.00    -0.374 OA
ATOM     13  C   LIG    1       26.059 -25.780  13.198  0.00  0.00    +0.201 C 
ATOM     14  C   LIG    1       25.731 -27.052  12.408  0.00  0.00    +0.257 C 
ATOM     15  O   LIG    1       26.956 -27.698  12.047  0.00  0.00    -0.486 OA
ATOM     16  C   LIG    1       26.850 -28.746  11.176  0.00  0.00    +0.163 A 
ATOM     17  N   LIG    1       26.970 -31.936   8.502  0.00  0.00    -0.235 NA
ATOM     18  C   LIG    1       26.254 -31.851   7.376  0.00  0.00    +0.224 A 
ATOM     19  C   LIG    1       26.153 -28.661   9.973  0.00  0.00    +0.062 A 
ATOM     20  N   LIG    1       25.467 -30.835   7.021  0.00  0.00    -0.220 NA
ENDROOT
BRANCH   1  21
ATOM     21  N   LIG    1       24.554 -28.703   7.536  0.00  0.00    -0.299 N 
ATOM     22  H   LIG    1       24.039 -28.412   8.359  0.00  0.00    +0.154 HD
BRANCH  21  25
ATOM     23  C   LIG    1       25.563 -25.327   6.291  0.00  0.00    +0.026 A 
ATOM     24  C   LIG    1       25.204 -26.366   7.153  0.00  0.00    +0.040 A 
ATOM     25  C   LIG    1       24.865 -27.636   6.664  0.00  0.00    +0.034 A 
ATOM     26  C   LIG    1       24.963 -27.859   5.285  0.00  0.00    +0.023 A 
ATOM     27  C   LIG    1       25.324 -26.824   4.414  0.00  0.00    +0.003 A 
ATOM     28  C   LIG    1       25.617 -25.556   4.917  0.00  0.00    +0.017 A 
BRANCH  23  30
ATOM     29  C   LIG    1       26.123 -22.940   7.248  0.00  0.00    +0.009 C 
ATOM     30  C   LIG    1       25.866 -24.037   6.827  0.00  0.00    -0.070 C 
ENDBRANCH  23  30
ENDBRANCH  21  25
ENDBRANCH   1  21
TORSDOF 3
ENDMDL
