MODEL 1
REMARK VINA RESULT:      -4.1      0.000      0.000
REMARK  Name = *****
REMARK                            x       y       z     vdW  Elec       q    Type
REMARK                         _______ _______ _______ _____ _____    ______ ____
ROOT
ATOM      1  O   LIG    1       26.185 -13.403   4.266  0.00  0.00    -0.186 OA
ENDROOT
BRANCH   1   3
ATOM      2  O   LIG    1       23.192 -14.728   4.174  0.00  0.00    -0.227 OA
ATOM      3  P   LIG    1       24.603 -14.103   4.217  0.00  0.00    +0.481 P 
BRANCH   3   4
ATOM      4  O   LIG    1       24.416 -13.378   2.761  0.00  0.00    -0.302 OA
ATOM      5  H   LIG    1       25.315 -13.147   2.451  0.00  0.00    +0.222 HD
ENDBRANCH   3   4
BRANCH   3   6
ATOM      6  O   LIG    1       25.322 -15.455   3.637  0.00  0.00    -0.302 OA
ATOM      7  H   LIG    1       24.877 -16.240   3.997  0.00  0.00    +0.222 HD
ENDBRANCH   3   6
ENDBRANCH   1   3
BRANCH   1   8
ATOM      8  P   LIG    1       27.270 -13.941   3.240  0.00  0.00    +0.481 P 
ATOM      9  O   LIG    1       26.819 -14.251   1.857  0.00  0.00    -0.227 OA
BRANCH   8  10
ATOM     10  O   LIG    1       27.970 -15.173   3.976  0.00  0.00    -0.302 OA
ATOM     11  H   LIG    1       28.410 -14.870   4.795  0.00  0.00    +0.222 HD
ENDBRANCH   8  10
BRANCH   8  12
ATOM     12  O   LIG    1       28.432 -12.847   3.286  0.00  0.00    -0.302 OA
ATOM     13  H   LIG    1       28.647 -12.545   2.384  0.00  0.00    +0.222 HD
ENDBRANCH   8  12
ENDBRANCH   1   8
TORSDOF 6
ENDMDL
MODEL 2
REMARK VINA RESULT:      -4.0      0.798      3.885
REMARK  Name = *****
REMARK                            x       y       z     vdW  Elec       q    Type
REMARK                         _______ _______ _______ _____ _____    ______ ____
ROOT
ATOM      1  O   LIG    1       25.618 -14.732   3.728  0.00  0.00    -0.186 OA
ENDROOT
BRANCH   1   3
ATOM      2  O   LIG    1       28.551 -13.289   3.545  0.00  0.00    -0.227 OA
ATOM      3  P   LIG    1       27.168 -13.970   3.631  0.00  0.00    +0.481 P 
BRANCH   3   4
ATOM      4  O   LIG    1       27.821 -15.450   3.881  0.00  0.00    -0.302 OA
ATOM      5  H   LIG    1       28.615 -15.500   3.312  0.00  0.00    +0.222 HD
ENDBRANCH   3   4
BRANCH   3   6
ATOM      6  O   LIG    1       27.037 -14.120   2.006  0.00  0.00    -0.302 OA
ATOM      7  H   LIG    1       26.444 -13.431   1.662  0.00  0.00    +0.222 HD
ENDBRANCH   3   6
ENDBRANCH   1   3
BRANCH   1   8
ATOM      8  P   LIG    1       24.342 -13.805   3.918  0.00  0.00    +0.481 P 
ATOM      9  O   LIG    1       24.475 -12.623   4.811  0.00  0.00    -0.227 OA
BRANCH   8  10
ATOM     10  O   LIG    1       23.163 -14.796   4.338  0.00  0.00    -0.302 OA
ATOM     11  H   LIG    1       22.379 -14.645   3.775  0.00  0.00    +0.222 HD
ENDBRANCH   8  10
BRANCH   8  12
ATOM     12  O   LIG    1       23.911 -13.419   2.430  0.00  0.00    -0.302 OA
ATOM     13  H   LIG    1       24.374 -12.609   2.145  0.00  0.00    +0.222 HD
ENDBRANCH   8  12
ENDBRANCH   1   8
TORSDOF 6
ENDMDL
MODEL 3
REMARK VINA RESULT:      -4.0      0.699      3.839
REMARK  Name = *****
REMARK                            x       y       z     vdW  Elec       q    Type
REMARK                         _______ _______ _______ _____ _____    ______ ____
ROOT
ATOM      1  O   LIG    1       25.600 -14.877   3.673  0.00  0.00    -0.186 OA
ENDROOT
BRANCH   1   3
ATOM      2  O   LIG    1       28.427 -13.229   3.587  0.00  0.00    -0.227 OA
ATOM      3  P   LIG    1       27.094 -14.006   3.627  0.00  0.00    +0.481 P 
BRANCH   3   4
ATOM      4  O   LIG    1       27.844 -15.442   3.866  0.00  0.00    -0.302 OA
ATOM      5  H   LIG    1       27.945 -15.850   2.983  0.00  0.00    +0.222 HD
ENDBRANCH   3   4
BRANCH   3   6
ATOM      6  O   LIG    1       27.010 -14.133   1.997  0.00  0.00    -0.302 OA
ATOM      7  H   LIG    1       26.241 -13.639   1.671  0.00  0.00    +0.222 HD
ENDBRANCH   3   6
ENDBRANCH   1   3
BRANCH   1   8
ATOM      8  P   LIG    1       24.271 -14.062   3.974  0.00  0.00    +0.481 P 
ATOM      9  O   LIG    1       23.155 -14.782   4.642  0.00  0.00    -0.227 OA
BRANCH   8  10
ATOM     10  O   LIG    1       23.861 -13.398   2.581  0.00  0.00    -0.302 OA
ATOM     11  H   LIG    1       23.992 -12.430   2.617  0.00  0.00    +0.222 HD
ENDBRANCH   8  10
BRANCH   8  12
ATOM     12  O   LIG    1       24.770 -12.786   4.793  0.00  0.00    -0.302 OA
ATOM     13  H   LIG    1       25.343 -12.228   4.234  0.00  0.00    +0.222 HD
ENDBRANCH   8  12
ENDBRANCH   1   8
TORSDOF 6
ENDMDL
MODEL 4
REMARK VINA RESULT:      -3.9      1.204      3.628
REMARK  Name = *****
REMARK                            x       y       z     vdW  Elec       q    Type
REMARK                         _______ _______ _______ _____ _____    ______ ____
ROOT
ATOM      1  O   LIG    1       25.874 -12.661   3.290  0.00  0.00    -0.186 OA
ENDROOT
BRANCH   1   3
ATOM      2  O   LIG    1       27.593 -15.419   3.687  0.00  0.00    -0.227 OA
ATOM      3  P   LIG    1       26.782 -14.119   3.500  0.00  0.00    +0.481 P 
BRANCH   3   4
ATOM      4  O   LIG    1       26.473 -14.443   1.924  0.00  0.00    -0.302 OA
ATOM      5  H   LIG    1       26.941 -15.277   1.718  0.00  0.00    +0.222 HD
ENDBRANCH   3   4
BRANCH   3   6
ATOM      6  O   LIG    1       28.119 -13.215   3.223  0.00  0.00    -0.302 OA
ATOM      7  H   LIG    1       27.861 -12.292   3.062  0.00  0.00    +0.222 HD
ENDBRANCH   3   6
ENDBRANCH   1   3
BRANCH   1   8
ATOM      8  P   LIG    1       24.290 -12.757   3.344  0.00  0.00    +0.481 P 
ATOM      9  O   LIG    1       23.559 -11.690   4.078  0.00  0.00    -0.227 OA
BRANCH   8  10
ATOM     10  O   LIG    1       23.976 -14.230   3.873  0.00  0.00    -0.302 OA
ATOM     11  H   LIG    1       23.259 -14.632   3.344  0.00  0.00    +0.222 HD
ENDBRANCH   8  10
BRANCH   8  12
ATOM     12  O   LIG    1       23.851 -12.874   1.813  0.00  0.00    -0.302 OA
ATOM     13  H   LIG    1       23.814 -13.811   1.543  0.00  0.00    +0.222 HD
ENDBRANCH   8  12
ENDBRANCH   1   8
TORSDOF 6
ENDMDL
MODEL 5
REMARK VINA RESULT:      -3.8      0.981      2.166
REMARK  Name = *****
REMARK                            x       y       z     vdW  Elec       q    Type
REMARK                         _______ _______ _______ _____ _____    ______ ____
ROOT
ATOM      1  O   LIG    1       26.406 -13.316   4.292  0.00  0.00    -0.186 OA
ENDROOT
BRANCH   1   3
ATOM      2  O   LIG    1       23.574 -13.234   2.650  0.00  0.00    -0.227 OA
ATOM      3  P   LIG    1       24.910 -13.272   3.424  0.00  0.00    +0.481 P 
BRANCH   3   4
ATOM      4  O   LIG    1       24.716 -14.844   3.841  0.00  0.00    -0.302 OA
ATOM      5  H   LIG    1       23.752 -15.004   3.870  0.00  0.00    +0.222 HD
ENDBRANCH   3   4
BRANCH   3   6
ATOM      6  O   LIG    1       24.244 -12.657   4.788  0.00  0.00    -0.302 OA
ATOM      7  H   LIG    1       24.137 -13.365   5.445  0.00  0.00    +0.222 HD
ENDBRANCH   3   6
ENDBRANCH   1   3
BRANCH   1   8
ATOM      8  P   LIG    1       27.683 -13.893   3.546  0.00  0.00    +0.481 P 
ATOM      9  O   LIG    1       28.957 -13.136   3.671  0.00  0.00    -0.227 OA
BRANCH   8  10
ATOM     10  O   LIG    1       27.219 -14.122   2.035  0.00  0.00    -0.302 OA
ATOM     11  H   LIG    1       27.483 -15.013   1.733  0.00  0.00    +0.222 HD
ENDBRANCH   8  10
BRANCH   8  12
ATOM     12  O   LIG    1       27.797 -15.397   4.069  0.00  0.00    -0.302 OA
ATOM     13  H   LIG    1       28.693 -15.566   4.417  0.00  0.00    +0.222 HD
ENDBRANCH   8  12
ENDBRANCH   1   8
TORSDOF 6
ENDMDL
MODEL 6
REMARK VINA RESULT:      -3.8      1.134      3.631
REMARK  Name = *****
REMARK                            x       y       z     vdW  Elec       q    Type
REMARK                         _______ _______ _______ _____ _____    ______ ____
ROOT
ATOM      1  O   LIG    1       25.872 -12.871   3.587  0.00  0.00    -0.186 OA
ENDROOT
BRANCH   1   3
ATOM      2  O   LIG    1       27.650 -15.615   3.755  0.00  0.00    -0.227 OA
ATOM      3  P   LIG    1       26.812 -14.321   3.676  0.00  0.00    +0.481 P 
BRANCH   3   4
ATOM      4  O   LIG    1       26.381 -14.598   2.120  0.00  0.00    -0.302 OA
ATOM      5  H   LIG    1       26.700 -15.498   1.904  0.00  0.00    +0.222 HD
ENDBRANCH   3   4
BRANCH   3   6
ATOM      6  O   LIG    1       28.111 -13.389   3.323  0.00  0.00    -0.302 OA
ATOM      7  H   LIG    1       27.840 -12.657   2.746  0.00  0.00    +0.222 HD
ENDBRANCH   3   6
ENDBRANCH   1   3
BRANCH   1   8
ATOM      8  P   LIG    1       24.307 -13.010   3.357  0.00  0.00    +0.481 P 
ATOM      9  O   LIG    1       23.654 -14.271   3.797  0.00  0.00    -0.227 OA
BRANCH   8  10
ATOM     10  O   LIG    1       24.079 -12.675   1.812  0.00  0.00    -0.302 OA
ATOM     11  H   LIG    1       24.329 -11.749   1.627  0.00  0.00    +0.222 HD
ENDBRANCH   8  10
BRANCH   8  12
ATOM     12  O   LIG    1       23.691 -11.712   4.052  0.00  0.00    -0.302 OA
ATOM     13  H   LIG    1       23.474 -11.899   4.985  0.00  0.00    +0.222 HD
ENDBRANCH   8  12
ENDBRANCH   1   8
TORSDOF 6
ENDMDL
MODEL 7
REMARK VINA RESULT:      -3.8      0.812      3.852
REMARK  Name = *****
REMARK                            x       y       z     vdW  Elec       q    Type
REMARK                         _______ _______ _______ _____ _____    ______ ____
ROOT
ATOM      1  O   LIG    1       25.769 -14.644   3.893  0.00  0.00    -0.186 OA
ENDROOT
BRANCH   1   3
ATOM      2  O   LIG    1       28.712 -13.253   3.535  0.00  0.00    -0.227 OA
ATOM      3  P   LIG    1       27.324 -13.909   3.704  0.00  0.00    +0.481 P 
BRANCH   3   4
ATOM      4  O   LIG    1       27.967 -15.390   3.979  0.00  0.00    -0.302 OA
ATOM      5  H   LIG    1       28.816 -15.416   3.491  0.00  0.00    +0.222 HD
ENDBRANCH   3   4
BRANCH   3   6
ATOM      6  O   LIG    1       27.121 -14.114   2.092  0.00  0.00    -0.302 OA
ATOM      7  H   LIG    1       27.013 -13.249   1.665  0.00  0.00    +0.222 HD
ENDBRANCH   3   6
ENDBRANCH   1   3
BRANCH   1   8
ATOM      8  P   LIG    1       24.485 -13.737   3.675  0.00  0.00    +0.481 P 
ATOM      9  O   LIG    1       24.254 -13.183   2.315  0.00  0.00    -0.227 OA
BRANCH   8  10
ATOM     10  O   LIG    1       24.558 -12.624   4.817  0.00  0.00    -0.302 OA
ATOM     11  H   LIG    1       25.456 -12.240   4.857  0.00  0.00    +0.222 HD
ENDBRANCH   8  10
BRANCH   8  12
ATOM     12  O   LIG    1       23.274 -14.639   4.195  0.00  0.00    -0.302 OA
ATOM     13  H   LIG    1       22.489 -14.085   4.363  0.00  0.00    +0.222 HD
ENDBRANCH   8  12
ENDBRANCH   1   8
TORSDOF 6
ENDMDL
MODEL 8
REMARK VINA RESULT:      -3.7      1.103      1.882
REMARK  Name = *****
REMARK                            x       y       z     vdW  Elec       q    Type
REMARK                         _______ _______ _______ _____ _____    ______ ____
ROOT
ATOM      1  O   LIG    1       26.258 -13.241   3.262  0.00  0.00    -0.186 OA
ENDROOT
BRANCH   1   3
ATOM      2  O   LIG    1       23.428 -14.583   4.216  0.00  0.00    -0.227 OA
ATOM      3  P   LIG    1       24.763 -13.950   3.766  0.00  0.00    +0.481 P 
BRANCH   3   4
ATOM      4  O   LIG    1       24.575 -12.656   4.753  0.00  0.00    -0.302 OA
ATOM      5  H   LIG    1       25.476 -12.383   5.021  0.00  0.00    +0.222 HD
ENDBRANCH   3   4
BRANCH   3   6
ATOM      6  O   LIG    1       24.093 -13.249   2.447  0.00  0.00    -0.302 OA
ATOM      7  H   LIG    1       23.126 -13.339   2.486  0.00  0.00    +0.222 HD
ENDBRANCH   3   6
ENDBRANCH   1   3
BRANCH   1   8
ATOM      8  P   LIG    1       27.566 -13.592   4.091  0.00  0.00    +0.481 P 
ATOM      9  O   LIG    1       28.804 -12.830   3.783  0.00  0.00    -0.227 OA
BRANCH   8  10
ATOM     10  O   LIG    1       27.736 -15.174   3.957  0.00  0.00    -0.302 OA
ATOM     11  H   LIG    1       27.832 -15.580   4.840  0.00  0.00    +0.222 HD
ENDBRANCH   8  10
BRANCH   8  12
ATOM     12  O   LIG    1       27.112 -13.456   5.616  0.00  0.00    -0.302 OA
ATOM     13  H   LIG    1       26.139 -13.467   5.681  0.00  0.00    +0.222 HD
ENDBRANCH   8  12
ENDBRANCH   1   8
TORSDOF 6
ENDMDL
MODEL 9
REMARK VINA RESULT:      -3.7      1.279      2.226
REMARK  Name = *****
REMARK                            x       y       z     vdW  Elec       q    Type
REMARK                         _______ _______ _______ _____ _____    ______ ____
ROOT
ATOM      1  O   LIG    1       26.106 -13.588   2.807  0.00  0.00    -0.186 OA
ENDROOT
BRANCH   1   3
ATOM      2  O   LIG    1       23.580 -11.724   3.735  0.00  0.00    -0.227 OA
ATOM      3  P   LIG    1       24.771 -12.603   3.298  0.00  0.00    +0.481 P 
BRANCH   3   4
ATOM      4  O   LIG    1       24.091 -12.946   1.848  0.00  0.00    -0.302 OA
ATOM      5  H   LIG    1       24.309 -13.880   1.656  0.00  0.00    +0.222 HD
ENDBRANCH   3   4
BRANCH   3   6
ATOM      6  O   LIG    1       24.196 -13.929   4.067  0.00  0.00    -0.302 OA
ATOM      7  H   LIG    1       24.451 -13.898   5.004  0.00  0.00    +0.222 HD
ENDBRANCH   3   6
ENDBRANCH   1   3
BRANCH   1   8
ATOM      8  P   LIG    1       27.239 -13.893   3.877  0.00  0.00    +0.481 P 
ATOM      9  O   LIG    1       26.966 -13.535   5.294  0.00  0.00    -0.227 OA
BRANCH   8  10
ATOM     10  O   LIG    1       28.563 -13.221   3.289  0.00  0.00    -0.302 OA
ATOM     11  H   LIG    1       28.461 -12.250   3.254  0.00  0.00    +0.222 HD
ENDBRANCH   8  10
BRANCH   8  12
ATOM     12  O   LIG    1       27.561 -15.444   3.676  0.00  0.00    -0.302 OA
ATOM     13  H   LIG    1       26.768 -15.980   3.864  0.00  0.00    +0.222 HD
ENDBRANCH   8  12
ENDBRANCH   1   8
TORSDOF 6
ENDMDL
