MODEL 1
REMARK VINA RESULT:      -5.4      0.000      0.000
REMARK  Name = *****
REMARK                            x       y       z     vdW  Elec       q    Type
REMARK                         _______ _______ _______ _____ _____    ______ ____
ROOT
ATOM      1  C   LIG    1       26.010 -17.589   3.446  0.00  0.00    +0.121 A 
ATOM      2  C   LIG    1       26.842 -18.513   4.077  0.00  0.00    +0.046 A 
ATOM      3  C   LIG    1       26.321 -19.726   4.547  0.00  0.00    +0.007 A 
ATOM      4  C   LIG    1       24.960 -20.027   4.401  0.00  0.00    -0.038 A 
ATOM      5  C   LIG    1       24.128 -19.091   3.778  0.00  0.00    +0.007 A 
ATOM      6  C   LIG    1       24.652 -17.885   3.305  0.00  0.00    +0.046 A 
ENDROOT
BRANCH   1   7
ATOM      7  O   LIG    1       26.387 -16.380   2.934  0.00  0.00    -0.489 OA
BRANCH   7   8
ATOM      8  C   LIG    1       27.207 -15.542   3.754  0.00  0.00    +0.261 C 
BRANCH   8   9
ATOM      9  C   LIG    1       27.487 -14.218   3.013  0.00  0.00    +0.166 C 
BRANCH   9  10
ATOM     10  O   LIG    1       28.726 -13.623   3.434  0.00  0.00    -0.387 OA
ATOM     11  H   LIG    1       28.736 -13.605   4.406  0.00  0.00    +0.210 HD
ENDBRANCH   9  10
BRANCH   9  12
ATOM     12  C   LIG    1       26.340 -13.218   3.253  0.00  0.00    +0.115 C 
BRANCH  12  13
ATOM     13  N   LIG    1       25.151 -13.558   2.456  0.00  0.00    -0.311 NA
ATOM     14  H   LIG    1       25.172 -12.967   1.619  0.00  0.00    +0.122 HD
BRANCH  13  16
ATOM     15  C   LIG    1       23.793 -14.392   4.298  0.00  0.00    +0.024 C 
ATOM     16  C   LIG    1       23.893 -13.346   3.186  0.00  0.00    +0.048 C 
ATOM     17  C   LIG    1       23.811 -11.945   3.799  0.00  0.00    +0.024 C 
ENDBRANCH  13  16
ENDBRANCH  12  13
ENDBRANCH   9  12
ENDBRANCH   8   9
ENDBRANCH   7   8
ENDBRANCH   1   7
BRANCH   4  18
ATOM     18  C   LIG    1       24.413 -21.351   4.879  0.00  0.00    +0.130 C 
BRANCH  18  19
ATOM     19  C   LIG    1       23.171 -21.204   5.729  0.00  0.00    +0.215 C 
ATOM     20  O   LIG    1       23.181 -20.780   6.889  0.00  0.00    -0.276 OA
ATOM     21  N   LIG    1       22.000 -21.572   5.131  0.00  0.00    -0.329 N 
ATOM     22  H   LIG    1       21.148 -21.506   5.673  0.00  0.00    +0.145 HD
ATOM     23  H   LIG    1       21.950 -21.951   4.193  0.00  0.00    +0.145 HD
ENDBRANCH  18  19
ENDBRANCH   4  18
TORSDOF 9
ENDMDL
MODEL 2
REMARK VINA RESULT:      -5.3      2.329      6.972
REMARK  Name = *****
REMARK                            x       y       z     vdW  Elec       q    Type
REMARK                         _______ _______ _______ _____ _____    ______ ____
ROOT
ATOM      1  C   LIG    1       24.491 -17.456   3.694  0.00  0.00    +0.121 A 
ATOM      2  C   LIG    1       23.716 -16.360   4.068  0.00  0.00    +0.046 A 
ATOM      3  C   LIG    1       24.267 -15.071   4.056  0.00  0.00    +0.007 A 
ATOM      4  C   LIG    1       25.600 -14.863   3.679  0.00  0.00    -0.038 A 
ATOM      5  C   LIG    1       26.376 -15.969   3.318  0.00  0.00    +0.007 A 
ATOM      6  C   LIG    1       25.823 -17.252   3.325  0.00  0.00    +0.046 A 
ENDROOT
BRANCH   1   7
ATOM      7  O   LIG    1       24.080 -18.758   3.651  0.00  0.00    -0.489 OA
BRANCH   7   8
ATOM      8  C   LIG    1       25.090 -19.772   3.677  0.00  0.00    +0.261 C 
BRANCH   8   9
ATOM      9  C   LIG    1       24.867 -20.684   4.901  0.00  0.00    +0.166 C 
BRANCH   9  10
ATOM     10  O   LIG    1       23.628 -20.389   5.568  0.00  0.00    -0.387 OA
ATOM     11  H   LIG    1       23.379 -21.167   6.096  0.00  0.00    +0.210 HD
ENDBRANCH   9  10
BRANCH   9  12
ATOM     12  C   LIG    1       26.028 -20.530   5.901  0.00  0.00    +0.115 C 
BRANCH  12  13
ATOM     13  N   LIG    1       27.284 -20.177   5.220  0.00  0.00    -0.311 NA
ATOM     14  H   LIG    1       27.641 -21.034   4.787  0.00  0.00    +0.122 HD
BRANCH  13  16
ATOM     15  C   LIG    1       29.152 -20.771   6.667  0.00  0.00    +0.024 C 
ATOM     16  C   LIG    1       28.293 -19.622   6.134  0.00  0.00    +0.048 C 
ATOM     17  C   LIG    1       29.194 -18.595   5.442  0.00  0.00    +0.024 C 
ENDBRANCH  13  16
ENDBRANCH  12  13
ENDBRANCH   9  12
ENDBRANCH   8   9
ENDBRANCH   7   8
ENDBRANCH   1   7
BRANCH   4  18
ATOM     18  C   LIG    1       26.176 -13.467   3.636  0.00  0.00    +0.130 C 
BRANCH  18  19
ATOM     19  C   LIG    1       27.411 -13.311   4.495  0.00  0.00    +0.215 C 
ATOM     20  O   LIG    1       28.552 -13.199   4.039  0.00  0.00    -0.276 OA
ATOM     21  N   LIG    1       27.192 -13.296   5.843  0.00  0.00    -0.329 N 
ATOM     22  H   LIG    1       27.995 -13.212   6.453  0.00  0.00    +0.145 HD
ATOM     23  H   LIG    1       26.277 -13.413   6.260  0.00  0.00    +0.145 HD
ENDBRANCH  18  19
ENDBRANCH   4  18
TORSDOF 9
ENDMDL
MODEL 3
REMARK VINA RESULT:      -5.1      1.946      6.890
REMARK  Name = *****
REMARK                            x       y       z     vdW  Elec       q    Type
REMARK                         _______ _______ _______ _____ _____    ______ ____
ROOT
ATOM      1  C   LIG    1       24.833 -17.342   3.613  0.00  0.00    +0.121 A 
ATOM      2  C   LIG    1       24.016 -16.263   3.947  0.00  0.00    +0.046 A 
ATOM      3  C   LIG    1       24.532 -14.960   3.944  0.00  0.00    +0.007 A 
ATOM      4  C   LIG    1       25.873 -14.720   3.616  0.00  0.00    -0.038 A 
ATOM      5  C   LIG    1       26.691 -15.808   3.295  0.00  0.00    +0.007 A 
ATOM      6  C   LIG    1       26.172 -17.105   3.292  0.00  0.00    +0.046 A 
ENDROOT
BRANCH   1   7
ATOM      7  O   LIG    1       24.458 -18.654   3.566  0.00  0.00    -0.489 OA
BRANCH   7   8
ATOM      8  C   LIG    1       25.497 -19.636   3.485  0.00  0.00    +0.261 C 
BRANCH   8   9
ATOM      9  C   LIG    1       25.879 -20.094   4.908  0.00  0.00    +0.166 C 
BRANCH   9  10
ATOM     10  O   LIG    1       27.299 -20.268   5.048  0.00  0.00    -0.387 OA
ATOM     11  H   LIG    1       27.483 -21.223   5.081  0.00  0.00    +0.210 HD
ENDBRANCH   9  10
BRANCH   9  12
ATOM     12  C   LIG    1       25.172 -21.418   5.253  0.00  0.00    +0.115 C 
BRANCH  12  13
ATOM     13  N   LIG    1       23.833 -21.489   4.646  0.00  0.00    -0.311 NA
ATOM     14  H   LIG    1       23.829 -20.840   3.852  0.00  0.00    +0.122 HD
BRANCH  13  16
ATOM     15  C   LIG    1       23.240 -21.434   7.008  0.00  0.00    +0.024 C 
ATOM     16  C   LIG    1       22.760 -21.135   5.586  0.00  0.00    +0.048 C 
ATOM     17  C   LIG    1       22.369 -19.657   5.484  0.00  0.00    +0.024 C 
ENDBRANCH  13  16
ENDBRANCH  12  13
ENDBRANCH   9  12
ENDBRANCH   8   9
ENDBRANCH   7   8
ENDBRANCH   1   7
BRANCH   4  18
ATOM     18  C   LIG    1       26.413 -13.309   3.582  0.00  0.00    +0.130 C 
BRANCH  18  19
ATOM     19  C   LIG    1       27.695 -13.149   4.368  0.00  0.00    +0.215 C 
ATOM     20  O   LIG    1       28.815 -13.107   3.850  0.00  0.00    -0.276 OA
ATOM     21  N   LIG    1       27.548 -13.045   5.721  0.00  0.00    -0.329 N 
ATOM     22  H   LIG    1       28.384 -12.956   6.284  0.00  0.00    +0.145 HD
ATOM     23  H   LIG    1       26.651 -13.103   6.189  0.00  0.00    +0.145 HD
ENDBRANCH  18  19
ENDBRANCH   4  18
TORSDOF 9
ENDMDL
MODEL 4
REMARK VINA RESULT:      -5.0      2.131      6.808
REMARK  Name = *****
REMARK                            x       y       z     vdW  Elec       q    Type
REMARK                         _______ _______ _______ _____ _____    ______ ____
ROOT
ATOM      1  C   LIG    1       24.877 -17.444   3.672  0.00  0.00    +0.121 A 
ATOM      2  C   LIG    1       26.103 -16.898   3.294  0.00  0.00    +0.046 A 
ATOM      3  C   LIG    1       26.294 -15.510   3.321  0.00  0.00    +0.007 A 
ATOM      4  C   LIG    1       25.261 -14.650   3.716  0.00  0.00    -0.038 A 
ATOM      5  C   LIG    1       24.030 -15.203   4.082  0.00  0.00    +0.007 A 
ATOM      6  C   LIG    1       23.844 -16.588   4.060  0.00  0.00    +0.046 A 
ENDROOT
BRANCH   1   7
ATOM      7  O   LIG    1       24.560 -18.772   3.702  0.00  0.00    -0.489 OA
BRANCH   7   8
ATOM      8  C   LIG    1       25.638 -19.711   3.623  0.00  0.00    +0.261 C 
BRANCH   8   9
ATOM      9  C   LIG    1       26.087 -20.095   5.048  0.00  0.00    +0.166 C 
BRANCH   9  10
ATOM     10  O   LIG    1       27.506 -20.316   5.119  0.00  0.00    -0.387 OA
ATOM     11  H   LIG    1       27.761 -20.329   6.057  0.00  0.00    +0.210 HD
ENDBRANCH   9  10
BRANCH   9  12
ATOM     12  C   LIG    1       25.355 -21.368   5.514  0.00  0.00    +0.115 C 
BRANCH  12  13
ATOM     13  N   LIG    1       24.101 -21.572   4.772  0.00  0.00    -0.311 NA
ATOM     14  H   LIG    1       24.084 -20.880   4.016  0.00  0.00    +0.122 HD
BRANCH  13  16
ATOM     15  C   LIG    1       23.282 -20.591   6.847  0.00  0.00    +0.024 C 
ATOM     16  C   LIG    1       22.906 -21.418   5.615  0.00  0.00    +0.048 C 
ATOM     17  C   LIG    1       21.760 -20.726   4.871  0.00  0.00    +0.024 C 
ENDBRANCH  13  16
ENDBRANCH  12  13
ENDBRANCH   9  12
ENDBRANCH   8   9
ENDBRANCH   7   8
ENDBRANCH   1   7
BRANCH   4  18
ATOM     18  C   LIG    1       25.486 -13.158   3.775  0.00  0.00    +0.130 C 
BRANCH  18  19
ATOM     19  C   LIG    1       24.342 -12.364   3.183  0.00  0.00    +0.215 C 
ATOM     20  O   LIG    1       23.591 -11.646   3.849  0.00  0.00    -0.276 OA
ATOM     21  N   LIG    1       24.179 -12.483   1.833  0.00  0.00    -0.329 N 
ATOM     22  H   LIG    1       23.412 -11.983   1.402  0.00  0.00    +0.145 HD
ATOM     23  H   LIG    1       24.754 -13.083   1.253  0.00  0.00    +0.145 HD
ENDBRANCH  18  19
ENDBRANCH   4  18
TORSDOF 9
ENDMDL
MODEL 5
REMARK VINA RESULT:      -4.9      2.529      6.977
REMARK  Name = *****
REMARK                            x       y       z     vdW  Elec       q    Type
REMARK                         _______ _______ _______ _____ _____    ______ ____
ROOT
ATOM      1  C   LIG    1       24.298 -17.560   3.753  0.00  0.00    +0.121 A 
ATOM      2  C   LIG    1       23.423 -16.580   4.221  0.00  0.00    +0.046 A 
ATOM      3  C   LIG    1       23.818 -15.235   4.239  0.00  0.00    +0.007 A 
ATOM      4  C   LIG    1       25.092 -14.854   3.800  0.00  0.00    -0.038 A 
ATOM      5  C   LIG    1       25.969 -15.844   3.343  0.00  0.00    +0.007 A 
ATOM      6  C   LIG    1       25.571 -17.183   3.320  0.00  0.00    +0.046 A 
ENDROOT
BRANCH   1   7
ATOM      7  O   LIG    1       24.040 -18.899   3.671  0.00  0.00    -0.489 OA
BRANCH   7   8
ATOM      8  C   LIG    1       25.145 -19.796   3.824  0.00  0.00    +0.261 C 
BRANCH   8   9
ATOM      9  C   LIG    1       24.900 -20.704   5.047  0.00  0.00    +0.166 C 
BRANCH   9  10
ATOM     10  O   LIG    1       23.717 -20.321   5.768  0.00  0.00    -0.387 OA
ATOM     11  H   LIG    1       23.737 -20.761   6.635  0.00  0.00    +0.210 HD
ENDBRANCH   9  10
BRANCH   9  12
ATOM     12  C   LIG    1       26.109 -20.656   6.000  0.00  0.00    +0.115 C 
BRANCH  12  13
ATOM     13  N   LIG    1       27.288 -20.064   5.347  0.00  0.00    -0.311 NA
ATOM     14  H   LIG    1       27.666 -20.774   4.711  0.00  0.00    +0.122 HD
BRANCH  13  16
ATOM     15  C   LIG    1       29.047 -20.898   6.811  0.00  0.00    +0.024 C 
ATOM     16  C   LIG    1       28.323 -19.649   6.304  0.00  0.00    +0.048 C 
ATOM     17  C   LIG    1       29.341 -18.695   5.674  0.00  0.00    +0.024 C 
ENDBRANCH  13  16
ENDBRANCH  12  13
ENDBRANCH   9  12
ENDBRANCH   8   9
ENDBRANCH   7   8
ENDBRANCH   1   7
BRANCH   4  18
ATOM     18  C   LIG    1       25.497 -13.399   3.790  0.00  0.00    +0.130 C 
BRANCH  18  19
ATOM     19  C   LIG    1       24.328 -12.463   3.576  0.00  0.00    +0.215 C 
ATOM     20  O   LIG    1       23.768 -11.847   4.487  0.00  0.00    -0.276 OA
ATOM     21  N   LIG    1       23.913 -12.326   2.282  0.00  0.00    -0.329 N 
ATOM     22  H   LIG    1       23.121 -11.723   2.099  0.00  0.00    +0.145 HD
ATOM     23  H   LIG    1       24.325 -12.833   1.509  0.00  0.00    +0.145 HD
ENDBRANCH  18  19
ENDBRANCH   4  18
TORSDOF 9
ENDMDL
MODEL 6
REMARK VINA RESULT:      -4.8      2.092      3.144
REMARK  Name = *****
REMARK                            x       y       z     vdW  Elec       q    Type
REMARK                         _______ _______ _______ _____ _____    ______ ____
ROOT
ATOM      1  C   LIG    1       23.393 -16.408   4.119  0.00  0.00    +0.121 A 
ATOM      2  C   LIG    1       24.562 -17.034   3.689  0.00  0.00    +0.046 A 
ATOM      3  C   LIG    1       24.654 -18.433   3.688  0.00  0.00    +0.007 A 
ATOM      4  C   LIG    1       23.583 -19.222   4.127  0.00  0.00    -0.038 A 
ATOM      5  C   LIG    1       22.418 -18.588   4.569  0.00  0.00    +0.007 A 
ATOM      6  C   LIG    1       22.327 -17.194   4.563  0.00  0.00    +0.046 A 
ENDROOT
BRANCH   1   7
ATOM      7  O   LIG    1       23.167 -15.062   4.161  0.00  0.00    -0.489 OA
BRANCH   7   8
ATOM      8  C   LIG    1       24.267 -14.217   4.519  0.00  0.00    +0.261 C 
BRANCH   8   9
ATOM      9  C   LIG    1       24.617 -13.303   3.327  0.00  0.00    +0.166 C 
BRANCH   9  10
ATOM     10  O   LIG    1       23.510 -13.159   2.422  0.00  0.00    -0.387 OA
ATOM     11  H   LIG    1       22.730 -13.571   2.832  0.00  0.00    +0.210 HD
ENDBRANCH   9  10
BRANCH   9  12
ATOM     12  C   LIG    1       25.827 -13.867   2.558  0.00  0.00    +0.115 C 
BRANCH  12  13
ATOM     13  N   LIG    1       26.995 -12.978   2.661  0.00  0.00    -0.311 NA
ATOM     14  H   LIG    1       27.276 -12.741   1.705  0.00  0.00    +0.122 HD
BRANCH  13  16
ATOM     15  C   LIG    1       28.676 -12.581   4.378  0.00  0.00    +0.024 C 
ATOM     16  C   LIG    1       28.122 -13.595   3.375  0.00  0.00    +0.048 C 
ATOM     17  C   LIG    1       27.707 -14.868   4.118  0.00  0.00    +0.024 C 
ENDBRANCH  13  16
ENDBRANCH  12  13
ENDBRANCH   9  12
ENDBRANCH   8   9
ENDBRANCH   7   8
ENDBRANCH   1   7
BRANCH   4  18
ATOM     18  C   LIG    1       23.677 -20.729   4.091  0.00  0.00    +0.130 C 
BRANCH  18  19
ATOM     19  C   LIG    1       24.203 -21.319   5.380  0.00  0.00    +0.215 C 
ATOM     20  O   LIG    1       23.492 -21.570   6.358  0.00  0.00    -0.276 OA
ATOM     21  N   LIG    1       25.544 -21.572   5.409  0.00  0.00    -0.329 N 
ATOM     22  H   LIG    1       25.938 -21.949   6.262  0.00  0.00    +0.145 HD
ATOM     23  H   LIG    1       26.168 -21.355   4.641  0.00  0.00    +0.145 HD
ENDBRANCH  18  19
ENDBRANCH   4  18
TORSDOF 9
ENDMDL
MODEL 7
REMARK VINA RESULT:      -4.5      2.131      6.782
REMARK  Name = *****
REMARK                            x       y       z     vdW  Elec       q    Type
REMARK                         _______ _______ _______ _____ _____    ______ ____
ROOT
ATOM      1  C   LIG    1       26.239 -16.227   3.515  0.00  0.00    +0.121 A 
ATOM      2  C   LIG    1       27.275 -15.316   3.716  0.00  0.00    +0.046 A 
ATOM      3  C   LIG    1       26.991 -14.006   4.128  0.00  0.00    +0.007 A 
ATOM      4  C   LIG    1       25.670 -13.589   4.334  0.00  0.00    -0.038 A 
ATOM      5  C   LIG    1       24.635 -14.504   4.119  0.00  0.00    +0.007 A 
ATOM      6  C   LIG    1       24.921 -15.811   3.714  0.00  0.00    +0.046 A 
ENDROOT
BRANCH   1   7
ATOM      7  O   LIG    1       26.374 -17.530   3.127  0.00  0.00    -0.489 OA
BRANCH   7   8
ATOM      8  C   LIG    1       25.223 -18.374   3.231  0.00  0.00    +0.261 C 
BRANCH   8   9
ATOM      9  C   LIG    1       25.512 -19.510   4.233  0.00  0.00    +0.166 C 
BRANCH   9  10
ATOM     10  O   LIG    1       26.922 -19.675   4.461  0.00  0.00    -0.387 OA
ATOM     11  H   LIG    1       27.040 -20.388   5.113  0.00  0.00    +0.210 HD
ENDBRANCH   9  10
BRANCH   9  12
ATOM     12  C   LIG    1       24.925 -20.839   3.719  0.00  0.00    +0.115 C 
BRANCH  12  13
ATOM     13  N   LIG    1       23.641 -21.148   4.366  0.00  0.00    -0.311 NA
ATOM     14  H   LIG    1       22.909 -21.012   3.661  0.00  0.00    +0.122 HD
BRANCH  13  16
ATOM     15  C   LIG    1       22.134 -19.445   5.241  0.00  0.00    +0.024 C 
ATOM     16  C   LIG    1       23.371 -20.299   5.535  0.00  0.00    +0.048 C 
ATOM     17  C   LIG    1       23.127 -21.123   6.803  0.00  0.00    +0.024 C 
ENDBRANCH  13  16
ENDBRANCH  12  13
ENDBRANCH   9  12
ENDBRANCH   8   9
ENDBRANCH   7   8
ENDBRANCH   1   7
BRANCH   4  18
ATOM     18  C   LIG    1       25.375 -12.186   4.811  0.00  0.00    +0.130 C 
BRANCH  18  19
ATOM     19  C   LIG    1       23.970 -11.734   4.482  0.00  0.00    +0.215 C 
ATOM     20  O   LIG    1       23.125 -11.451   5.336  0.00  0.00    -0.276 OA
ATOM     21  N   LIG    1       23.675 -11.649   3.152  0.00  0.00    -0.329 N 
ATOM     22  H   LIG    1       22.738 -11.369   2.890  0.00  0.00    +0.145 HD
ATOM     23  H   LIG    1       24.328 -11.899   2.419  0.00  0.00    +0.145 HD
ENDBRANCH  18  19
ENDBRANCH   4  18
TORSDOF 9
ENDMDL
MODEL 8
REMARK VINA RESULT:      -4.4      2.027      7.314
REMARK  Name = *****
REMARK                            x       y       z     vdW  Elec       q    Type
REMARK                         _______ _______ _______ _____ _____    ______ ____
ROOT
ATOM      1  C   LIG    1       23.228 -17.368   4.167  0.00  0.00    +0.121 A 
ATOM      2  C   LIG    1       22.686 -16.159   4.601  0.00  0.00    +0.046 A 
ATOM      3  C   LIG    1       23.448 -14.984   4.543  0.00  0.00    +0.007 A 
ATOM      4  C   LIG    1       24.763 -15.005   4.061  0.00  0.00    -0.038 A 
ATOM      5  C   LIG    1       25.305 -16.222   3.639  0.00  0.00    +0.007 A 
ATOM      6  C   LIG    1       24.541 -17.391   3.692  0.00  0.00    +0.046 A 
ENDROOT
BRANCH   1   7
ATOM      7  O   LIG    1       22.596 -18.579   4.158  0.00  0.00    -0.489 OA
BRANCH   7   8
ATOM      8  C   LIG    1       22.534 -19.301   5.393  0.00  0.00    +0.261 C 
BRANCH   8   9
ATOM      9  C   LIG    1       22.866 -20.785   5.134  0.00  0.00    +0.166 C 
BRANCH   9  10
ATOM     10  O   LIG    1       21.689 -21.550   4.826  0.00  0.00    -0.387 OA
ATOM     11  H   LIG    1       21.892 -22.489   4.979  0.00  0.00    +0.210 HD
ENDBRANCH   9  10
BRANCH   9  12
ATOM     12  C   LIG    1       23.560 -21.400   6.365  0.00  0.00    +0.115 C 
BRANCH  12  13
ATOM     13  N   LIG    1       24.695 -20.578   6.812  0.00  0.00    -0.311 NA
ATOM     14  H   LIG    1       24.445 -19.600   6.636  0.00  0.00    +0.122 HD
BRANCH  13  16
ATOM     15  C   LIG    1       26.061 -20.020   4.874  0.00  0.00    +0.024 C 
ATOM     16  C   LIG    1       25.948 -20.907   6.116  0.00  0.00    +0.048 C 
ATOM     17  C   LIG    1       27.175 -20.692   7.006  0.00  0.00    +0.024 C 
ENDBRANCH  13  16
ENDBRANCH  12  13
ENDBRANCH   9  12
ENDBRANCH   8   9
ENDBRANCH   7   8
ENDBRANCH   1   7
BRANCH   4  18
ATOM     18  C   LIG    1       25.566 -13.728   3.970  0.00  0.00    +0.130 C 
BRANCH  18  19
ATOM     19  C   LIG    1       26.735 -13.832   3.016  0.00  0.00    +0.215 C 
ATOM     20  O   LIG    1       26.617 -14.075   1.812  0.00  0.00    -0.276 OA
ATOM     21  N   LIG    1       27.967 -13.635   3.571  0.00  0.00    -0.329 N 
ATOM     22  H   LIG    1       28.777 -13.716   2.970  0.00  0.00    +0.145 HD
ATOM     23  H   LIG    1       28.111 -13.462   4.559  0.00  0.00    +0.145 HD
ENDBRANCH  18  19
ENDBRANCH   4  18
TORSDOF 9
ENDMDL
MODEL 9
REMARK VINA RESULT:      -4.1      2.552      6.654
REMARK  Name = *****
REMARK                            x       y       z     vdW  Elec       q    Type
REMARK                         _______ _______ _______ _____ _____    ______ ____
ROOT
ATOM      1  C   LIG    1       27.249 -17.384   4.089  0.00  0.00    +0.121 A 
ATOM      2  C   LIG    1       26.058 -17.180   3.394  0.00  0.00    +0.046 A 
ATOM      3  C   LIG    1       25.681 -15.886   3.008  0.00  0.00    +0.007 A 
ATOM      4  C   LIG    1       26.485 -14.781   3.319  0.00  0.00    -0.038 A 
ATOM      5  C   LIG    1       27.672 -14.992   4.027  0.00  0.00    +0.007 A 
ATOM      6  C   LIG    1       28.048 -16.283   4.406  0.00  0.00    +0.046 A 
ENDROOT
BRANCH   1   7
ATOM      7  O   LIG    1       27.739 -18.587   4.515  0.00  0.00    -0.489 OA
BRANCH   7   8
ATOM      8  C   LIG    1       28.779 -18.567   5.497  0.00  0.00    +0.261 C 
BRANCH   8   9
ATOM      9  C   LIG    1       28.580 -19.742   6.477  0.00  0.00    +0.166 C 
BRANCH   9  10
ATOM     10  O   LIG    1       29.251 -20.931   6.027  0.00  0.00    -0.387 OA
ATOM     11  H   LIG    1       28.936 -21.676   6.567  0.00  0.00    +0.210 HD
ENDBRANCH   9  10
BRANCH   9  12
ATOM     12  C   LIG    1       27.079 -20.044   6.651  0.00  0.00    +0.115 C 
BRANCH  12  13
ATOM     13  N   LIG    1       26.577 -20.919   5.580  0.00  0.00    -0.311 NA
ATOM     14  H   LIG    1       26.827 -20.477   4.690  0.00  0.00    +0.122 HD
BRANCH  13  16
ATOM     15  C   LIG    1       24.647 -20.798   7.062  0.00  0.00    +0.024 C 
ATOM     16  C   LIG    1       25.123 -21.124   5.644  0.00  0.00    +0.048 C 
ATOM     17  C   LIG    1       24.371 -20.241   4.643  0.00  0.00    +0.024 C 
ENDBRANCH  13  16
ENDBRANCH  12  13
ENDBRANCH   9  12
ENDBRANCH   8   9
ENDBRANCH   7   8
ENDBRANCH   1   7
BRANCH   4  18
ATOM     18  C   LIG    1       26.089 -13.395   2.869  0.00  0.00    +0.130 C 
BRANCH  18  19
ATOM     19  C   LIG    1       24.677 -13.026   3.265  0.00  0.00    +0.215 C 
ATOM     20  O   LIG    1       24.288 -12.964   4.436  0.00  0.00    -0.276 OA
ATOM     21  N   LIG    1       23.826 -12.753   2.232  0.00  0.00    -0.329 N 
ATOM     22  H   LIG    1       22.867 -12.521   2.455  0.00  0.00    +0.145 HD
ATOM     23  H   LIG    1       24.096 -12.820   1.258  0.00  0.00    +0.145 HD
ENDBRANCH  18  19
ENDBRANCH   4  18
TORSDOF 9
ENDMDL
