MODEL 1
REMARK VINA RESULT:      -8.8      0.000      0.000
REMARK  Name = *****
REMARK                            x       y       z     vdW  Elec       q    Type
REMARK                         _______ _______ _______ _____ _____    ______ ____
ROOT
ATOM      1  N   LIG    1       28.366 -20.617   6.675  0.00  0.00    -0.291 N 
ATOM      2  C   LIG    1       27.485 -19.933   5.817  0.00  0.00    +0.249 C 
ATOM      3  O   LIG    1       27.868 -19.098   5.003  0.00  0.00    -0.270 OA
ATOM      4  C   LIG    1       26.078 -20.301   5.950  0.00  0.00    +0.065 C 
ATOM      5  C   LIG    1       24.953 -19.941   5.157  0.00  0.00    +0.012 C 
ATOM      6  C   LIG    1       23.824 -20.541   5.733  0.00  0.00    +0.050 C 
ATOM      7  N   LIG    1       24.257 -21.241   6.848  0.00  0.00    -0.346 NA
ATOM      8  C   LIG    1       23.397 -21.971   7.754  0.00  0.00    +0.149 C 
ATOM      9  C   LIG    1       22.541 -20.371   5.185  0.00  0.00    +0.026 C 
ATOM     10  C   LIG    1       22.408 -19.581   4.037  0.00  0.00    +0.002 C 
ATOM     11  C   LIG    1       23.516 -18.985   3.447  0.00  0.00    +0.001 C 
ATOM     12  C   LIG    1       24.789 -19.159   3.995  0.00  0.00    +0.011 C 
ATOM     13  C   LIG    1       25.618 -21.119   6.963  0.00  0.00    +0.033 C 
ATOM     14  C   LIG    1       26.505 -21.706   8.000  0.00  0.00    +0.073 C 
ATOM     15  C   LIG    1       27.929 -21.816   7.413  0.00  0.00    +0.114 C 
ENDROOT
BRANCH   1  16
ATOM     16  C   LIG    1       29.798 -20.383   6.524  0.00  0.00    +0.163 C 
BRANCH  16  19
ATOM     17  C   LIG    1       31.334 -21.778   9.159  0.00  0.00    +0.067 C 
ATOM     18  C   LIG    1       31.010 -20.363   8.867  0.00  0.00    +0.060 A 
ATOM     19  C   LIG    1       30.379 -19.811   7.767  0.00  0.00    +0.056 A 
ATOM     20  N   LIG    1       30.306 -18.466   8.053  0.00  0.00    -0.347 N 
ATOM     21  H   LIG    1       29.884 -17.763   7.454  0.00  0.00    +0.167 HD
ATOM     22  C   LIG    1       30.948 -18.253   9.234  0.00  0.00    +0.197 A 
ATOM     23  N   LIG    1       31.364 -19.380   9.763  0.00  0.00    -0.241 NA
ENDBRANCH  16  19
ENDBRANCH   1  16
TORSDOF 2
ENDMDL
MODEL 2
REMARK VINA RESULT:      -8.5      2.063      3.652
REMARK  Name = *****
REMARK                            x       y       z     vdW  Elec       q    Type
REMARK                         _______ _______ _______ _____ _____    ______ ____
ROOT
ATOM      1  N   LIG    1       30.319 -19.590   7.441  0.00  0.00    -0.291 N 
ATOM      2  C   LIG    1       29.340 -20.532   7.810  0.00  0.00    +0.249 C 
ATOM      3  O   LIG    1       29.500 -21.328   8.730  0.00  0.00    -0.270 OA
ATOM      4  C   LIG    1       28.106 -20.482   7.030  0.00  0.00    +0.065 C 
ATOM      5  C   LIG    1       26.869 -21.159   7.220  0.00  0.00    +0.012 C 
ATOM      6  C   LIG    1       26.019 -20.781   6.170  0.00  0.00    +0.050 C 
ATOM      7  N   LIG    1       26.727 -19.902   5.367  0.00  0.00    -0.346 NA
ATOM      8  C   LIG    1       26.226 -19.307   4.147  0.00  0.00    +0.149 C 
ATOM      9  C   LIG    1       24.712 -21.288   6.065  0.00  0.00    +0.026 C 
ATOM     10  C   LIG    1       24.267 -22.188   7.040  0.00  0.00    +0.002 C 
ATOM     11  C   LIG    1       25.093 -22.568   8.092  0.00  0.00    +0.001 C 
ATOM     12  C   LIG    1       26.391 -22.060   8.192  0.00  0.00    +0.011 C 
ATOM     13  C   LIG    1       27.974 -19.701   5.898  0.00  0.00    +0.033 C 
ATOM     14  C   LIG    1       29.063 -18.835   5.378  0.00  0.00    +0.073 C 
ATOM     15  C   LIG    1       29.989 -18.459   6.554  0.00  0.00    +0.114 C 
ENDROOT
BRANCH   1  16
ATOM     16  C   LIG    1       31.532 -19.505   8.246  0.00  0.00    +0.163 C 
BRANCH  16  19
ATOM     17  C   LIG    1       29.738 -18.054  10.680  0.00  0.00    +0.067 C 
ATOM     18  C   LIG    1       30.906 -17.561   9.917  0.00  0.00    +0.060 A 
ATOM     19  C   LIG    1       31.634 -18.182   8.918  0.00  0.00    +0.056 A 
ATOM     20  N   LIG    1       32.570 -17.245   8.542  0.00  0.00    -0.347 N 
ATOM     21  H   LIG    1       33.266 -17.372   7.814  0.00  0.00    +0.167 HD
ATOM     22  C   LIG    1       32.431 -16.163   9.357  0.00  0.00    +0.197 A 
ATOM     23  N   LIG    1       31.421 -16.312  10.182  0.00  0.00    -0.241 NA
ENDBRANCH  16  19
ENDBRANCH   1  16
TORSDOF 2
ENDMDL
MODEL 3
REMARK VINA RESULT:      -7.3      1.448      2.867
REMARK  Name = *****
REMARK                            x       y       z     vdW  Elec       q    Type
REMARK                         _______ _______ _______ _____ _____    ______ ____
ROOT
ATOM      1  N   LIG    1       29.298 -19.565   6.022  0.00  0.00    -0.291 N 
ATOM      2  C   LIG    1       28.479 -20.622   6.462  0.00  0.00    +0.249 C 
ATOM      3  O   LIG    1       28.887 -21.514   7.198  0.00  0.00    -0.270 OA
ATOM      4  C   LIG    1       27.096 -20.570   5.994  0.00  0.00    +0.065 C 
ATOM      5  C   LIG    1       25.971 -21.363   6.357  0.00  0.00    +0.012 C 
ATOM      6  C   LIG    1       24.883 -20.923   5.590  0.00  0.00    +0.050 C 
ATOM      7  N   LIG    1       25.341 -19.893   4.783  0.00  0.00    -0.346 NA
ATOM      8  C   LIG    1       24.541 -19.188   3.805  0.00  0.00    +0.149 C 
ATOM      9  C   LIG    1       23.613 -21.514   5.709  0.00  0.00    +0.026 C 
ATOM     10  C   LIG    1       23.452 -22.565   6.619  0.00  0.00    +0.002 C 
ATOM     11  C   LIG    1       24.518 -23.010   7.393  0.00  0.00    +0.001 C 
ATOM     12  C   LIG    1       25.777 -22.417   7.272  0.00  0.00    +0.011 C 
ATOM     13  C   LIG    1       26.666 -19.663   5.045  0.00  0.00    +0.033 C 
ATOM     14  C   LIG    1       27.561 -18.654   4.423  0.00  0.00    +0.073 C 
ATOM     15  C   LIG    1       28.717 -18.359   5.403  0.00  0.00    +0.114 C 
ENDROOT
BRANCH   1  16
ATOM     16  C   LIG    1       30.660 -19.487   6.537  0.00  0.00    +0.163 C 
BRANCH  16  19
ATOM     17  C   LIG    1       31.457 -21.194   9.312  0.00  0.00    +0.067 C 
ATOM     18  C   LIG    1       30.982 -19.803   9.137  0.00  0.00    +0.060 A 
ATOM     19  C   LIG    1       30.664 -19.119   7.978  0.00  0.00    +0.056 A 
ATOM     20  N   LIG    1       30.239 -17.884   8.414  0.00  0.00    -0.347 N 
ATOM     21  H   LIG    1       29.915 -17.131   7.815  0.00  0.00    +0.167 HD
ATOM     22  C   LIG    1       30.390 -17.842   9.767  0.00  0.00    +0.197 A 
ATOM     23  N   LIG    1       30.814 -18.992  10.236  0.00  0.00    -0.241 NA
ENDBRANCH  16  19
ENDBRANCH   1  16
TORSDOF 2
ENDMDL
MODEL 4
REMARK VINA RESULT:      -7.2      2.739      4.169
REMARK  Name = *****
REMARK                            x       y       z     vdW  Elec       q    Type
REMARK                         _______ _______ _______ _____ _____    ______ ____
ROOT
ATOM      1  N   LIG    1       26.863 -20.911   7.999  0.00  0.00    -0.291 N 
ATOM      2  C   LIG    1       27.063 -22.171   7.406  0.00  0.00    +0.249 C 
ATOM      3  O   LIG    1       28.179 -22.630   7.184  0.00  0.00    -0.270 OA
ATOM      4  C   LIG    1       25.842 -22.907   7.088  0.00  0.00    +0.065 C 
ATOM      5  C   LIG    1       25.664 -24.245   6.638  0.00  0.00    +0.012 C 
ATOM      6  C   LIG    1       24.289 -24.447   6.453  0.00  0.00    +0.050 C 
ATOM      7  N   LIG    1       23.655 -23.259   6.780  0.00  0.00    -0.346 NA
ATOM      8  C   LIG    1       22.229 -23.028   6.685  0.00  0.00    +0.149 C 
ATOM      9  C   LIG    1       23.781 -25.678   6.003  0.00  0.00    +0.026 C 
ATOM     10  C   LIG    1       24.684 -26.713   5.738  0.00  0.00    +0.002 C 
ATOM     11  C   LIG    1       26.051 -26.535   5.922  0.00  0.00    +0.001 C 
ATOM     12  C   LIG    1       26.550 -25.310   6.372  0.00  0.00    +0.011 C 
ATOM     13  C   LIG    1       24.586 -22.340   7.187  0.00  0.00    +0.033 C 
ATOM     14  C   LIG    1       24.359 -20.942   7.634  0.00  0.00    +0.073 C 
ATOM     15  C   LIG    1       25.544 -20.521   8.530  0.00  0.00    +0.114 C 
ENDROOT
BRANCH   1  16
ATOM     16  C   LIG    1       28.034 -20.165   8.446  0.00  0.00    +0.163 C 
BRANCH  16  19
ATOM     17  C   LIG    1       30.820 -18.309   8.225  0.00  0.00    +0.067 C 
ATOM     18  C   LIG    1       29.850 -18.723   7.186  0.00  0.00    +0.060 A 
ATOM     19  C   LIG    1       28.708 -19.495   7.302  0.00  0.00    +0.056 A 
ATOM     20  N   LIG    1       28.177 -19.515   6.032  0.00  0.00    -0.347 N 
ATOM     21  H   LIG    1       27.319 -19.988   5.763  0.00  0.00    +0.167 HD
ATOM     22  C   LIG    1       29.032 -18.847   5.209  0.00  0.00    +0.197 A 
ATOM     23  N   LIG    1       30.039 -18.337   5.879  0.00  0.00    -0.241 NA
ENDBRANCH  16  19
ENDBRANCH   1  16
TORSDOF 2
ENDMDL
MODEL 5
REMARK VINA RESULT:      -6.9      2.860      6.781
REMARK  Name = *****
REMARK                            x       y       z     vdW  Elec       q    Type
REMARK                         _______ _______ _______ _____ _____    ______ ____
ROOT
ATOM      1  N   LIG    1       25.520 -22.052   6.318  0.00  0.00    -0.291 N 
ATOM      2  C   LIG    1       26.634 -21.990   7.176  0.00  0.00    +0.249 C 
ATOM      3  O   LIG    1       26.771 -22.738   8.139  0.00  0.00    -0.270 OA
ATOM      4  C   LIG    1       27.629 -20.979   6.827  0.00  0.00    +0.065 C 
ATOM      5  C   LIG    1       28.927 -20.742   7.362  0.00  0.00    +0.012 C 
ATOM      6  C   LIG    1       29.458 -19.629   6.695  0.00  0.00    +0.050 C 
ATOM      7  N   LIG    1       28.504 -19.204   5.785  0.00  0.00    -0.346 NA
ATOM      8  C   LIG    1       28.639 -18.051   4.920  0.00  0.00    +0.149 C 
ATOM      9  C   LIG    1       30.737 -19.131   7.001  0.00  0.00    +0.026 C 
ATOM     10  C   LIG    1       31.480 -19.774   7.997  0.00  0.00    +0.002 C 
ATOM     11  C   LIG    1       30.973 -20.883   8.664  0.00  0.00    +0.001 C 
ATOM     12  C   LIG    1       29.703 -21.375   8.354  0.00  0.00    +0.011 C 
ATOM     13  C   LIG    1       27.414 -20.032   5.845  0.00  0.00    +0.033 C 
ATOM     14  C   LIG    1       26.162 -19.959   5.048  0.00  0.00    +0.073 C 
ATOM     15  C   LIG    1       25.527 -21.366   5.013  0.00  0.00    +0.114 C 
ENDROOT
BRANCH   1  16
ATOM     16  C   LIG    1       24.539 -23.109   6.537  0.00  0.00    +0.163 C 
BRANCH  16  19
ATOM     17  C   LIG    1       25.915 -26.015   7.491  0.00  0.00    +0.067 C 
ATOM     18  C   LIG    1       25.478 -25.545   6.157  0.00  0.00    +0.060 A 
ATOM     19  C   LIG    1       24.907 -24.341   5.789  0.00  0.00    +0.056 A 
ATOM     20  N   LIG    1       24.754 -24.436   4.424  0.00  0.00    -0.347 N 
ATOM     21  H   LIG    1       24.370 -23.711   3.826  0.00  0.00    +0.167 HD
ATOM     22  C   LIG    1       25.147 -25.683   4.044  0.00  0.00    +0.197 A 
ATOM     23  N   LIG    1       25.612 -26.369   5.062  0.00  0.00    -0.241 NA
ENDBRANCH  16  19
ENDBRANCH   1  16
TORSDOF 2
ENDMDL
MODEL 6
REMARK VINA RESULT:      -6.8      3.241      6.456
REMARK  Name = *****
REMARK                            x       y       z     vdW  Elec       q    Type
REMARK                         _______ _______ _______ _____ _____    ______ ____
ROOT
ATOM      1  N   LIG    1       24.892 -22.831   6.136  0.00  0.00    -0.291 N 
ATOM      2  C   LIG    1       26.067 -22.322   6.721  0.00  0.00    +0.249 C 
ATOM      3  O   LIG    1       26.606 -22.849   7.689  0.00  0.00    -0.270 OA
ATOM      4  C   LIG    1       26.611 -21.128   6.081  0.00  0.00    +0.065 C 
ATOM      5  C   LIG    1       27.842 -20.448   6.297  0.00  0.00    +0.012 C 
ATOM      6  C   LIG    1       27.865 -19.337   5.441  0.00  0.00    +0.050 C 
ATOM      7  N   LIG    1       26.675 -19.347   4.730  0.00  0.00    -0.346 NA
ATOM      8  C   LIG    1       26.279 -18.344   3.765  0.00  0.00    +0.149 C 
ATOM      9  C   LIG    1       28.954 -18.449   5.417  0.00  0.00    +0.026 C 
ATOM     10  C   LIG    1       30.031 -18.696   6.275  0.00  0.00    +0.002 C 
ATOM     11  C   LIG    1       30.031 -19.795   7.126  0.00  0.00    +0.001 C 
ATOM     12  C   LIG    1       28.946 -20.676   7.144  0.00  0.00    +0.011 C 
ATOM     13  C   LIG    1       25.932 -20.439   5.095  0.00  0.00    +0.033 C 
ATOM     14  C   LIG    1       24.598 -20.851   4.589  0.00  0.00    +0.073 C 
ATOM     15  C   LIG    1       24.443 -22.371   4.810  0.00  0.00    +0.114 C 
ENDROOT
BRANCH   1  16
ATOM     16  C   LIG    1       24.352 -24.084   6.651  0.00  0.00    +0.163 C 
BRANCH  16  19
ATOM     17  C   LIG    1       26.103 -26.744   7.703  0.00  0.00    +0.067 C 
ATOM     18  C   LIG    1       25.664 -26.352   6.345  0.00  0.00    +0.060 A 
ATOM     19  C   LIG    1       24.936 -25.250   5.936  0.00  0.00    +0.056 A 
ATOM     20  N   LIG    1       24.865 -25.374   4.566  0.00  0.00    -0.347 N 
ATOM     21  H   LIG    1       24.405 -24.718   3.942  0.00  0.00    +0.167 HD
ATOM     22  C   LIG    1       25.459 -26.549   4.220  0.00  0.00    +0.197 A 
ATOM     23  N   LIG    1       25.972 -27.152   5.267  0.00  0.00    -0.241 NA
ENDBRANCH  16  19
ENDBRANCH   1  16
TORSDOF 2
ENDMDL
MODEL 7
REMARK VINA RESULT:      -6.7      4.986      7.531
REMARK  Name = *****
REMARK                            x       y       z     vdW  Elec       q    Type
REMARK                         _______ _______ _______ _____ _____    ______ ____
ROOT
ATOM      1  N   LIG    1       25.204 -26.148   5.759  0.00  0.00    -0.291 N 
ATOM      2  C   LIG    1       26.192 -25.268   6.242  0.00  0.00    +0.249 C 
ATOM      3  O   LIG    1       27.382 -25.563   6.276  0.00  0.00    -0.270 OA
ATOM      4  C   LIG    1       25.699 -23.965   6.683  0.00  0.00    +0.065 C 
ATOM      5  C   LIG    1       26.410 -22.796   7.071  0.00  0.00    +0.012 C 
ATOM      6  C   LIG    1       25.461 -21.829   7.435  0.00  0.00    +0.050 C 
ATOM      7  N   LIG    1       24.211 -22.403   7.273  0.00  0.00    -0.346 NA
ATOM      8  C   LIG    1       22.955 -21.754   7.580  0.00  0.00    +0.149 C 
ATOM      9  C   LIG    1       25.846 -20.551   7.877  0.00  0.00    +0.026 C 
ATOM     10  C   LIG    1       27.212 -20.257   7.949  0.00  0.00    +0.002 C 
ATOM     11  C   LIG    1       28.168 -21.200   7.587  0.00  0.00    +0.001 C 
ATOM     12  C   LIG    1       27.779 -22.467   7.146  0.00  0.00    +0.011 C 
ATOM     13  C   LIG    1       24.352 -23.680   6.795  0.00  0.00    +0.033 C 
ATOM     14  C   LIG    1       23.285 -24.660   6.469  0.00  0.00    +0.073 C 
ATOM     15  C   LIG    1       23.847 -25.667   5.444  0.00  0.00    +0.114 C 
ENDROOT
BRANCH   1  16
ATOM     16  C   LIG    1       25.633 -27.424   5.198  0.00  0.00    +0.163 C 
BRANCH  16  19
ATOM     17  C   LIG    1       25.981 -28.389   8.392  0.00  0.00    +0.067 C 
ATOM     18  C   LIG    1       25.201 -28.983   7.283  0.00  0.00    +0.060 A 
ATOM     19  C   LIG    1       25.069 -28.562   5.972  0.00  0.00    +0.056 A 
ATOM     20  N   LIG    1       24.268 -29.516   5.385  0.00  0.00    -0.347 N 
ATOM     21  H   LIG    1       23.980 -29.519   4.412  0.00  0.00    +0.167 HD
ATOM     22  C   LIG    1       23.891 -30.399   6.350  0.00  0.00    +0.197 A 
ATOM     23  N   LIG    1       24.456 -30.120   7.501  0.00  0.00    -0.241 NA
ENDBRANCH  16  19
ENDBRANCH   1  16
TORSDOF 2
ENDMDL
MODEL 8
REMARK VINA RESULT:      -6.5      6.690      9.235
REMARK  Name = *****
REMARK                            x       y       z     vdW  Elec       q    Type
REMARK                         _______ _______ _______ _____ _____    ______ ____
ROOT
ATOM      1  N   LIG    1       25.195 -26.768   5.748  0.00  0.00    -0.291 N 
ATOM      2  C   LIG    1       25.837 -27.082   6.961  0.00  0.00    +0.249 C 
ATOM      3  O   LIG    1       26.605 -26.307   7.523  0.00  0.00    -0.270 OA
ATOM      4  C   LIG    1       25.509 -28.393   7.515  0.00  0.00    +0.065 C 
ATOM      5  C   LIG    1       25.839 -28.969   8.774  0.00  0.00    +0.012 C 
ATOM      6  C   LIG    1       25.305 -30.265   8.795  0.00  0.00    +0.050 C 
ATOM      7  N   LIG    1       24.674 -30.467   7.578  0.00  0.00    -0.346 NA
ATOM      8  C   LIG    1       24.027 -31.697   7.174  0.00  0.00    +0.149 C 
ATOM      9  C   LIG    1       25.465 -31.107   9.909  0.00  0.00    +0.026 C 
ATOM     10  C   LIG    1       26.176 -30.623  11.013  0.00  0.00    +0.002 C 
ATOM     11  C   LIG    1       26.706 -29.338  11.013  0.00  0.00    +0.001 C 
ATOM     12  C   LIG    1       26.542 -28.504   9.904  0.00  0.00    +0.011 C 
ATOM     13  C   LIG    1       24.774 -29.331   6.818  0.00  0.00    +0.033 C 
ATOM     14  C   LIG    1       24.240 -29.093   5.452  0.00  0.00    +0.073 C 
ATOM     15  C   LIG    1       24.059 -27.572   5.260  0.00  0.00    +0.114 C 
ENDROOT
BRANCH   1  16
ATOM     16  C   LIG    1       25.386 -25.434   5.192  0.00  0.00    +0.163 C 
BRANCH  16  19
ATOM     17  C   LIG    1       26.363 -22.840   7.081  0.00  0.00    +0.067 C 
ATOM     18  C   LIG    1       25.009 -23.346   6.760  0.00  0.00    +0.060 A 
ATOM     19  C   LIG    1       24.631 -24.418   5.972  0.00  0.00    +0.056 A 
ATOM     20  N   LIG    1       23.258 -24.448   6.070  0.00  0.00    -0.347 N 
ATOM     21  H   LIG    1       22.654 -25.127   5.618  0.00  0.00    +0.167 HD
ATOM     22  C   LIG    1       22.867 -23.380   6.819  0.00  0.00    +0.197 A 
ATOM     23  N   LIG    1       23.901 -22.709   7.270  0.00  0.00    -0.241 NA
ENDBRANCH  16  19
ENDBRANCH   1  16
TORSDOF 2
ENDMDL
MODEL 9
REMARK VINA RESULT:      -6.4      1.558      2.578
REMARK  Name = *****
REMARK                            x       y       z     vdW  Elec       q    Type
REMARK                         _______ _______ _______ _____ _____    ______ ____
ROOT
ATOM      1  N   LIG    1       28.009 -20.985   6.946  0.00  0.00    -0.291 N 
ATOM      2  C   LIG    1       26.667 -21.371   6.768  0.00  0.00    +0.249 C 
ATOM      3  O   LIG    1       26.157 -22.299   7.387  0.00  0.00    -0.270 OA
ATOM      4  C   LIG    1       25.915 -20.572   5.803  0.00  0.00    +0.065 C 
ATOM      5  C   LIG    1       24.527 -20.572   5.491  0.00  0.00    +0.012 C 
ATOM      6  C   LIG    1       24.326 -19.635   4.468  0.00  0.00    +0.050 C 
ATOM      7  N   LIG    1       25.563 -19.087   4.168  0.00  0.00    -0.346 NA
ATOM      8  C   LIG    1       25.806 -18.105   3.133  0.00  0.00    +0.149 C 
ATOM      9  C   LIG    1       23.050 -19.399   3.926  0.00  0.00    +0.026 C 
ATOM     10  C   LIG    1       21.968 -20.127   4.433  0.00  0.00    +0.002 C 
ATOM     11  C   LIG    1       22.146 -21.056   5.453  0.00  0.00    +0.001 C 
ATOM     12  C   LIG    1       23.416 -21.284   5.989  0.00  0.00    +0.011 C 
ATOM     13  C   LIG    1       26.515 -19.631   4.989  0.00  0.00    +0.033 C 
ATOM     14  C   LIG    1       27.971 -19.336   5.026  0.00  0.00    +0.073 C 
ATOM     15  C   LIG    1       28.503 -19.696   6.430  0.00  0.00    +0.114 C 
ENDROOT
BRANCH   1  16
ATOM     16  C   LIG    1       28.791 -21.663   7.973  0.00  0.00    +0.163 C 
BRANCH  16  19
ATOM     17  C   LIG    1       31.901 -22.438   8.962  0.00  0.00    +0.067 C 
ATOM     18  C   LIG    1       31.234 -21.125   8.813  0.00  0.00    +0.060 A 
ATOM     19  C   LIG    1       29.948 -20.831   8.397  0.00  0.00    +0.056 A 
ATOM     20  N   LIG    1       29.860 -19.460   8.498  0.00  0.00    -0.347 N 
ATOM     21  H   LIG    1       29.036 -18.909   8.279  0.00  0.00    +0.167 HD
ATOM     22  C   LIG    1       31.080 -18.989   8.877  0.00  0.00    +0.197 A 
ATOM     23  N   LIG    1       31.924 -19.969   9.098  0.00  0.00    -0.241 NA
ENDBRANCH  16  19
ENDBRANCH   1  16
TORSDOF 2
ENDMDL
