MODEL 1
REMARK VINA RESULT:      -5.4      0.000      0.000
REMARK  Name = *****
REMARK                            x       y       z     vdW  Elec       q    Type
REMARK                         _______ _______ _______ _____ _____    ______ ____
ROOT
ATOM      1  N   LIG    1       23.900 -29.576  13.049  0.00  0.00    -0.268 N 
ATOM      2  C   LIG    1       23.220 -30.344  12.008  0.00  0.00    +0.112 C 
ATOM      3  C   LIG    1       23.020 -31.824  12.377  0.00  0.00    +0.042 C 
ATOM      4  C   LIG    1       23.747 -30.138  10.587  0.00  0.00    +0.042 C 
ATOM      5  C   LIG    1       21.822 -29.725  12.077  0.00  0.00    +0.249 C 
ATOM      6  O   LIG    1       20.963 -29.945  11.228  0.00  0.00    -0.273 OA
ATOM      7  N   LIG    1       21.697 -28.989  13.238  0.00  0.00    -0.220 N 
ATOM      8  C   LIG    1       22.929 -28.958  13.907  0.00  0.00    +0.151 C 
ATOM      9  S   LIG    1       23.203 -28.488  15.499  0.00  0.00    -0.017 S 
ENDROOT
BRANCH   1  14
ATOM     10  C   LIG    1       28.165 -29.625  13.559  0.00  0.00    +0.072 A 
ATOM     11  C   LIG    1       27.343 -30.529  14.224  0.00  0.00    +0.137 A 
ATOM     12  F   LIG    1       27.856 -31.464  15.038  0.00  0.00    -0.205 F 
ATOM     13  C   LIG    1       25.953 -30.493  14.076  0.00  0.00    +0.062 A 
ATOM     14  C   LIG    1       25.326 -29.572  13.226  0.00  0.00    +0.039 A 
ATOM     15  C   LIG    1       26.158 -28.637  12.596  0.00  0.00    +0.024 A 
ATOM     16  C   LIG    1       27.555 -28.665  12.749  0.00  0.00    +0.018 A 
BRANCH  10  20
ATOM     17  C   LIG    1       31.817 -29.487  12.530  0.00  0.00    +0.128 C 
ATOM     18  N   LIG    1       30.379 -29.502  12.523  0.00  0.00    -0.314 N 
ATOM     19  H   LIG    1       29.900 -29.406  11.635  0.00  0.00    +0.149 HD
ATOM     20  C   LIG    1       29.650 -29.626  13.684  0.00  0.00    +0.247 C 
ATOM     21  O   LIG    1       30.172 -29.737  14.789  0.00  0.00    -0.270 OA
ENDBRANCH  10  20
ENDBRANCH   1  14
BRANCH   7  22
ATOM     22  C   LIG    1       20.451 -28.397  13.638  0.00  0.00    +0.044 A 
ATOM     23  C   LIG    1       19.332 -29.165  13.989  0.00  0.00    +0.037 A 
ATOM     24  C   LIG    1       18.081 -28.594  14.336  0.00  0.00    +0.074 A 
ATOM     25  C   LIG    1       17.968 -27.208  14.389  0.00  0.00    +0.064 A 
ATOM     26  C   LIG    1       19.085 -26.414  14.086  0.00  0.00    +0.021 A 
ATOM     27  C   LIG    1       20.299 -27.005  13.715  0.00  0.00    +0.025 A 
BRANCH  24  28
ATOM     28  C   LIG    1       16.948 -29.548  14.629  0.00  0.00    +0.419 C 
ATOM     29  F   LIG    1       17.401 -30.714  15.167  0.00  0.00    -0.166 F 
ATOM     30  F   LIG    1       16.281 -29.901  13.494  0.00  0.00    -0.166 F 
ATOM     31  F   LIG    1       16.003 -29.087  15.483  0.00  0.00    -0.166 F 
ENDBRANCH  24  28
BRANCH  25  32
ATOM     32  C   LIG    1       16.758 -26.532  14.735  0.00  0.00    +0.100 C 
ATOM     33  N   LIG    1       15.785 -25.950  15.011  0.00  0.00    -0.191 NA
ENDBRANCH  25  32
ENDBRANCH   7  22
TORSDOF 5
ENDMDL
MODEL 2
REMARK VINA RESULT:      -4.9      8.695     10.756
REMARK  Name = *****
REMARK                            x       y       z     vdW  Elec       q    Type
REMARK                         _______ _______ _______ _____ _____    ______ ____
ROOT
ATOM      1  N   LIG    1       25.888 -23.097   6.691  0.00  0.00    -0.268 N 
ATOM      2  C   LIG    1       24.463 -22.848   6.475  0.00  0.00    +0.112 C 
ATOM      3  C   LIG    1       24.133 -22.420   5.034  0.00  0.00    +0.042 C 
ATOM      4  C   LIG    1       23.777 -21.987   7.537  0.00  0.00    +0.042 C 
ATOM      5  C   LIG    1       23.911 -24.269   6.604  0.00  0.00    +0.249 C 
ATOM      6  O   LIG    1       22.709 -24.503   6.683  0.00  0.00    -0.273 OA
ATOM      7  N   LIG    1       24.949 -25.178   6.537  0.00  0.00    -0.220 N 
ATOM      8  C   LIG    1       26.170 -24.490   6.493  0.00  0.00    +0.151 C 
ATOM      9  S   LIG    1       27.672 -25.124   6.073  0.00  0.00    -0.017 S 
ENDROOT
BRANCH   1  14
ATOM     10  C   LIG    1       28.705 -19.937   7.420  0.00  0.00    +0.072 A 
ATOM     11  C   LIG    1       27.948 -19.982   6.253  0.00  0.00    +0.137 A 
ATOM     12  F   LIG    1       28.058 -19.026   5.318  0.00  0.00    -0.205 F 
ATOM     13  C   LIG    1       27.051 -21.026   6.007  0.00  0.00    +0.062 A 
ATOM     14  C   LIG    1       26.845 -22.054   6.937  0.00  0.00    +0.039 A 
ATOM     15  C   LIG    1       27.645 -22.026   8.087  0.00  0.00    +0.024 A 
ATOM     16  C   LIG    1       28.553 -20.982   8.334  0.00  0.00    +0.018 A 
BRANCH  10  20
ATOM     17  C   LIG    1       30.571 -17.300   9.415  0.00  0.00    +0.128 C 
ATOM     18  N   LIG    1       29.676 -18.352   9.011  0.00  0.00    -0.314 N 
ATOM     19  H   LIG    1       29.045 -18.740   9.703  0.00  0.00    +0.149 HD
ATOM     20  C   LIG    1       29.671 -18.845   7.726  0.00  0.00    +0.247 C 
ATOM     21  O   LIG    1       30.416 -18.422   6.847  0.00  0.00    -0.270 OA
ENDBRANCH  10  20
ENDBRANCH   1  14
BRANCH   7  22
ATOM     22  C   LIG    1       24.722 -26.596   6.501  0.00  0.00    +0.044 A 
ATOM     23  C   LIG    1       25.070 -27.440   7.565  0.00  0.00    +0.037 A 
ATOM     24  C   LIG    1       24.899 -28.847   7.523  0.00  0.00    +0.074 A 
ATOM     25  C   LIG    1       24.307 -29.418   6.401  0.00  0.00    +0.064 A 
ATOM     26  C   LIG    1       23.907 -28.591   5.339  0.00  0.00    +0.021 A 
ATOM     27  C   LIG    1       24.118 -27.209   5.394  0.00  0.00    +0.025 A 
BRANCH  24  28
ATOM     28  C   LIG    1       25.380 -29.634   8.719  0.00  0.00    +0.419 C 
ATOM     29  F   LIG    1       24.342 -30.182   9.409  0.00  0.00    -0.166 F 
ATOM     30  F   LIG    1       26.037 -28.841   9.612  0.00  0.00    -0.166 F 
ATOM     31  F   LIG    1       26.224 -30.657   8.443  0.00  0.00    -0.166 F 
ENDBRANCH  24  28
BRANCH  25  32
ATOM     32  C   LIG    1       24.081 -30.821   6.260  0.00  0.00    +0.100 C 
ATOM     33  N   LIG    1       23.873 -31.965   6.170  0.00  0.00    -0.191 NA
ENDBRANCH  25  32
ENDBRANCH   7  22
TORSDOF 5
ENDMDL
MODEL 3
REMARK VINA RESULT:      -4.6      5.007      6.151
REMARK  Name = *****
REMARK                            x       y       z     vdW  Elec       q    Type
REMARK                         _______ _______ _______ _____ _____    ______ ____
ROOT
ATOM      1  N   LIG    1       25.213 -30.612   9.752  0.00  0.00    -0.268 N 
ATOM      2  C   LIG    1       26.012 -29.821  10.687  0.00  0.00    +0.112 C 
ATOM      3  C   LIG    1       26.285 -28.390  10.193  0.00  0.00    +0.042 C 
ATOM      4  C   LIG    1       27.254 -30.519  11.246  0.00  0.00    +0.042 C 
ATOM      5  C   LIG    1       25.015 -29.661  11.837  0.00  0.00    +0.249 C 
ATOM      6  O   LIG    1       25.342 -29.217  12.934  0.00  0.00    -0.273 OA
ATOM      7  N   LIG    1       23.751 -30.013  11.407  0.00  0.00    -0.220 N 
ATOM      8  C   LIG    1       23.824 -30.510  10.098  0.00  0.00    +0.151 C 
ATOM      9  S   LIG    1       22.541 -30.746   9.034  0.00  0.00    -0.017 S 
ENDROOT
BRANCH   1  14
ATOM     10  C   LIG    1       26.895 -32.533   6.298  0.00  0.00    +0.072 A 
ATOM     11  C   LIG    1       26.216 -31.323   6.199  0.00  0.00    +0.137 A 
ATOM     12  F   LIG    1       26.078 -30.700   5.018  0.00  0.00    -0.205 F 
ATOM     13  C   LIG    1       25.647 -30.713   7.321  0.00  0.00    +0.062 A 
ATOM     14  C   LIG    1       25.764 -31.271   8.601  0.00  0.00    +0.039 A 
ATOM     15  C   LIG    1       26.409 -32.513   8.685  0.00  0.00    +0.024 A 
ATOM     16  C   LIG    1       26.976 -33.131   7.557  0.00  0.00    +0.018 A 
BRANCH  10  20
ATOM     17  C   LIG    1       27.339 -33.823   2.755  0.00  0.00    +0.128 C 
ATOM     18  N   LIG    1       26.826 -33.195   3.944  0.00  0.00    -0.314 N 
ATOM     19  H   LIG    1       25.934 -32.717   3.889  0.00  0.00    +0.149 HD
ATOM     20  C   LIG    1       27.519 -33.218   5.132  0.00  0.00    +0.247 C 
ATOM     21  O   LIG    1       28.606 -33.774   5.258  0.00  0.00    -0.270 OA
ENDBRANCH  10  20
ENDBRANCH   1  14
BRANCH   7  22
ATOM     22  C   LIG    1       22.587 -29.842  12.232  0.00  0.00    +0.044 A 
ATOM     23  C   LIG    1       22.025 -28.583  12.487  0.00  0.00    +0.037 A 
ATOM     24  C   LIG    1       20.907 -28.395  13.340  0.00  0.00    +0.074 A 
ATOM     25  C   LIG    1       20.301 -29.510  13.908  0.00  0.00    +0.064 A 
ATOM     26  C   LIG    1       20.817 -30.787  13.634  0.00  0.00    +0.021 A 
ATOM     27  C   LIG    1       21.940 -30.941  12.815  0.00  0.00    +0.025 A 
BRANCH  24  28
ATOM     28  C   LIG    1       20.451 -26.974  13.570  0.00  0.00    +0.419 C 
ATOM     29  F   LIG    1       21.317 -26.075  13.024  0.00  0.00    -0.166 F 
ATOM     30  F   LIG    1       20.396 -26.672  14.898  0.00  0.00    -0.166 F 
ATOM     31  F   LIG    1       19.231 -26.665  13.071  0.00  0.00    -0.166 F 
ENDBRANCH  24  28
BRANCH  25  32
ATOM     32  C   LIG    1       19.167 -29.433  14.774  0.00  0.00    +0.100 C 
ATOM     33  N   LIG    1       18.256 -29.394  15.500  0.00  0.00    -0.191 NA
ENDBRANCH  25  32
ENDBRANCH   7  22
TORSDOF 5
ENDMDL
MODEL 4
REMARK VINA RESULT:      -4.5      2.060      2.607
REMARK  Name = *****
REMARK                            x       y       z     vdW  Elec       q    Type
REMARK                         _______ _______ _______ _____ _____    ______ ____
ROOT
ATOM      1  N   LIG    1       24.870 -30.056  12.867  0.00  0.00    -0.268 N 
ATOM      2  C   LIG    1       24.460 -30.469  11.525  0.00  0.00    +0.112 C 
ATOM      3  C   LIG    1       24.490 -31.994  11.322  0.00  0.00    +0.042 C 
ATOM      4  C   LIG    1       25.098 -29.690  10.373  0.00  0.00    +0.042 C 
ATOM      5  C   LIG    1       22.975 -30.102  11.565  0.00  0.00    +0.249 C 
ATOM      6  O   LIG    1       22.270 -30.102  10.559  0.00  0.00    -0.273 OA
ATOM      7  N   LIG    1       22.589 -29.866  12.869  0.00  0.00    -0.220 N 
ATOM      8  C   LIG    1       23.713 -29.926  13.706  0.00  0.00    +0.151 C 
ATOM      9  S   LIG    1       23.718 -30.042  15.385  0.00  0.00    -0.017 S 
ENDROOT
BRANCH   1  14
ATOM     10  C   LIG    1       28.977 -29.641  14.053  0.00  0.00    +0.072 A 
ATOM     11  C   LIG    1       28.593 -29.554  12.719  0.00  0.00    +0.137 A 
ATOM     12  F   LIG    1       29.494 -29.318  11.752  0.00  0.00    -0.205 F 
ATOM     13  C   LIG    1       27.259 -29.716  12.333  0.00  0.00    +0.062 A 
ATOM     14  C   LIG    1       26.243 -29.936  13.273  0.00  0.00    +0.039 A 
ATOM     15  C   LIG    1       26.645 -30.069  14.609  0.00  0.00    +0.024 A 
ATOM     16  C   LIG    1       27.986 -29.914  14.999  0.00  0.00    +0.018 A 
BRANCH  10  20
ATOM     17  C   LIG    1       32.194 -27.914  15.095  0.00  0.00    +0.128 C 
ATOM     18  N   LIG    1       30.852 -28.188  14.655  0.00  0.00    -0.314 N 
ATOM     19  H   LIG    1       30.239 -27.404  14.459  0.00  0.00    +0.149 HD
ATOM     20  C   LIG    1       30.385 -29.474  14.512  0.00  0.00    +0.247 C 
ATOM     21  O   LIG    1       31.076 -30.463  14.741  0.00  0.00    -0.270 OA
ENDBRANCH  10  20
ENDBRANCH   1  14
BRANCH   7  22
ATOM     22  C   LIG    1       21.220 -29.626  13.231  0.00  0.00    +0.044 A 
ATOM     23  C   LIG    1       20.751 -28.356  13.596  0.00  0.00    +0.037 A 
ATOM     24  C   LIG    1       19.414 -28.115  14.004  0.00  0.00    +0.074 A 
ATOM     25  C   LIG    1       18.507 -29.169  13.989  0.00  0.00    +0.064 A 
ATOM     26  C   LIG    1       18.939 -30.443  13.585  0.00  0.00    +0.021 A 
ATOM     27  C   LIG    1       20.273 -30.659  13.218  0.00  0.00    +0.025 A 
BRANCH  24  28
ATOM     28  C   LIG    1       19.070 -26.708  14.430  0.00  0.00    +0.419 C 
ATOM     29  F   LIG    1       20.175 -26.022  14.836  0.00  0.00    -0.166 F 
ATOM     30  F   LIG    1       18.219 -26.698  15.494  0.00  0.00    -0.166 F 
ATOM     31  F   LIG    1       18.484 -25.938  13.481  0.00  0.00    -0.166 F 
ENDBRANCH  24  28
BRANCH  25  32
ATOM     32  C   LIG    1       17.138 -29.033  14.372  0.00  0.00    +0.100 C 
ATOM     33  N   LIG    1       16.011 -28.943  14.660  0.00  0.00    -0.191 NA
ENDBRANCH  25  32
ENDBRANCH   7  22
TORSDOF 5
ENDMDL
MODEL 5
REMARK VINA RESULT:      -3.9      5.163      6.440
REMARK  Name = *****
REMARK                            x       y       z     vdW  Elec       q    Type
REMARK                         _______ _______ _______ _____ _____    ______ ____
ROOT
ATOM      1  N   LIG    1       25.357 -30.571   9.247  0.00  0.00    -0.268 N 
ATOM      2  C   LIG    1       26.186 -29.664  10.039  0.00  0.00    +0.112 C 
ATOM      3  C   LIG    1       26.266 -28.244   9.450  0.00  0.00    +0.042 C 
ATOM      4  C   LIG    1       27.545 -30.220  10.469  0.00  0.00    +0.042 C 
ATOM      5  C   LIG    1       25.324 -29.526  11.295  0.00  0.00    +0.249 C 
ATOM      6  O   LIG    1       25.738 -28.994  12.321  0.00  0.00    -0.273 OA
ATOM      7  N   LIG    1       24.055 -30.007  11.043  0.00  0.00    -0.220 N 
ATOM      8  C   LIG    1       24.016 -30.569   9.758  0.00  0.00    +0.151 C 
ATOM      9  S   LIG    1       22.643 -30.974   8.874  0.00  0.00    -0.017 S 
ENDROOT
BRANCH   1  14
ATOM     10  C   LIG    1       26.788 -32.534   5.704  0.00  0.00    +0.072 A 
ATOM     11  C   LIG    1       26.096 -31.329   5.639  0.00  0.00    +0.137 A 
ATOM     12  F   LIG    1       25.866 -30.724   4.463  0.00  0.00    -0.205 F 
ATOM     13  C   LIG    1       25.609 -30.705   6.792  0.00  0.00    +0.062 A 
ATOM     14  C   LIG    1       25.825 -31.245   8.067  0.00  0.00    +0.039 A 
ATOM     15  C   LIG    1       26.481 -32.482   8.120  0.00  0.00    +0.024 A 
ATOM     16  C   LIG    1       26.966 -33.114   6.962  0.00  0.00    +0.018 A 
BRANCH  10  20
ATOM     17  C   LIG    1       27.002 -33.820   2.138  0.00  0.00    +0.128 C 
ATOM     18  N   LIG    1       26.573 -33.182   3.354  0.00  0.00    -0.314 N 
ATOM     19  H   LIG    1       25.695 -32.675   3.349  0.00  0.00    +0.149 HD
ATOM     20  C   LIG    1       27.327 -33.233   4.504  0.00  0.00    +0.247 C 
ATOM     21  O   LIG    1       28.400 -33.825   4.571  0.00  0.00    -0.270 OA
ENDBRANCH  10  20
ENDBRANCH   1  14
BRANCH   7  22
ATOM     22  C   LIG    1       22.988 -29.891  11.998  0.00  0.00    +0.044 A 
ATOM     23  C   LIG    1       22.303 -31.006  12.498  0.00  0.00    +0.037 A 
ATOM     24  C   LIG    1       21.215 -30.902  13.402  0.00  0.00    +0.074 A 
ATOM     25  C   LIG    1       20.842 -29.643  13.861  0.00  0.00    +0.064 A 
ATOM     26  C   LIG    1       21.541 -28.511  13.411  0.00  0.00    +0.021 A 
ATOM     27  C   LIG    1       22.590 -28.641  12.494  0.00  0.00    +0.025 A 
BRANCH  24  28
ATOM     28  C   LIG    1       20.531 -32.186  13.805  0.00  0.00    +0.419 C 
ATOM     29  F   LIG    1       21.161 -33.275  13.281  0.00  0.00    -0.166 F 
ATOM     30  F   LIG    1       19.251 -32.243  13.342  0.00  0.00    -0.166 F 
ATOM     31  F   LIG    1       20.451 -32.410  15.139  0.00  0.00    -0.166 F 
ENDBRANCH  24  28
BRANCH  25  32
ATOM     32  C   LIG    1       19.768 -29.427  14.778  0.00  0.00    +0.100 C 
ATOM     33  N   LIG    1       18.870 -29.246  15.500  0.00  0.00    -0.191 NA
ENDBRANCH  25  32
ENDBRANCH   7  22
TORSDOF 5
ENDMDL
MODEL 6
REMARK VINA RESULT:      -3.8     12.882     14.198
REMARK  Name = *****
REMARK                            x       y       z     vdW  Elec       q    Type
REMARK                         _______ _______ _______ _____ _____    ______ ____
ROOT
ATOM      1  N   LIG    1       24.235 -21.618   5.366  0.00  0.00    -0.268 N 
ATOM      2  C   LIG    1       22.909 -21.034   5.557  0.00  0.00    +0.112 C 
ATOM      3  C   LIG    1       22.595 -20.707   7.028  0.00  0.00    +0.042 C 
ATOM      4  C   LIG    1       21.764 -21.749   4.836  0.00  0.00    +0.042 C 
ATOM      5  C   LIG    1       23.104 -19.676   4.880  0.00  0.00    +0.249 C 
ATOM      6  O   LIG    1       22.166 -18.921   4.637  0.00  0.00    -0.273 OA
ATOM      7  N   LIG    1       24.451 -19.445   4.684  0.00  0.00    -0.220 N 
ATOM      8  C   LIG    1       25.180 -20.581   5.062  0.00  0.00    +0.151 C 
ATOM      9  S   LIG    1       26.839 -20.676   5.326  0.00  0.00    -0.017 S 
ENDROOT
BRANCH   1  14
ATOM     10  C   LIG    1       25.162 -25.766   5.991  0.00  0.00    +0.072 A 
ATOM     11  C   LIG    1       25.109 -25.217   4.714  0.00  0.00    +0.137 A 
ATOM     12  F   LIG    1       25.365 -25.962   3.627  0.00  0.00    -0.205 F 
ATOM     13  C   LIG    1       24.782 -23.872   4.512  0.00  0.00    +0.062 A 
ATOM     14  C   LIG    1       24.527 -23.008   5.585  0.00  0.00    +0.039 A 
ATOM     15  C   LIG    1       24.537 -23.580   6.864  0.00  0.00    +0.024 A 
ATOM     16  C   LIG    1       24.859 -24.932   7.070  0.00  0.00    +0.018 A 
BRANCH  10  20
ATOM     17  C   LIG    1       25.078 -29.552   5.720  0.00  0.00    +0.128 C 
ATOM     18  N   LIG    1       24.820 -28.147   5.545  0.00  0.00    -0.314 N 
ATOM     19  H   LIG    1       24.118 -27.866   4.869  0.00  0.00    +0.149 HD
ATOM     20  C   LIG    1       25.508 -27.191   6.255  0.00  0.00    +0.247 C 
ATOM     21  O   LIG    1       26.374 -27.468   7.080  0.00  0.00    -0.270 OA
ENDBRANCH  10  20
ENDBRANCH   1  14
BRANCH   7  22
ATOM     22  C   LIG    1       24.947 -18.193   4.184  0.00  0.00    +0.044 A 
ATOM     23  C   LIG    1       24.252 -16.987   4.352  0.00  0.00    +0.037 A 
ATOM     24  C   LIG    1       24.705 -15.753   3.820  0.00  0.00    +0.074 A 
ATOM     25  C   LIG    1       25.923 -15.719   3.149  0.00  0.00    +0.064 A 
ATOM     26  C   LIG    1       26.662 -16.903   3.004  0.00  0.00    +0.021 A 
ATOM     27  C   LIG    1       26.175 -18.114   3.511  0.00  0.00    +0.025 A 
BRANCH  24  28
ATOM     28  C   LIG    1       23.818 -14.549   4.027  0.00  0.00    +0.419 C 
ATOM     29  F   LIG    1       24.391 -13.642   4.865  0.00  0.00    -0.166 F 
ATOM     30  F   LIG    1       22.633 -14.890   4.608  0.00  0.00    -0.166 F 
ATOM     31  F   LIG    1       23.493 -13.864   2.904  0.00  0.00    -0.166 F 
ENDBRANCH  24  28
BRANCH  25  32
ATOM     32  C   LIG    1       26.474 -14.529   2.582  0.00  0.00    +0.100 C 
ATOM     33  N   LIG    1       26.939 -13.576   2.096  0.00  0.00    -0.191 NA
ENDBRANCH  25  32
ENDBRANCH   7  22
TORSDOF 5
ENDMDL
MODEL 7
REMARK VINA RESULT:      -3.7      3.741      4.421
REMARK  Name = *****
REMARK                            x       y       z     vdW  Elec       q    Type
REMARK                         _______ _______ _______ _____ _____    ______ ____
ROOT
ATOM      1  N   LIG    1       24.123 -29.641  12.876  0.00  0.00    -0.268 N 
ATOM      2  C   LIG    1       24.548 -30.558  11.819  0.00  0.00    +0.112 C 
ATOM      3  C   LIG    1       25.454 -31.694  12.327  0.00  0.00    +0.042 C 
ATOM      4  C   LIG    1       25.065 -29.895  10.541  0.00  0.00    +0.042 C 
ATOM      5  C   LIG    1       23.215 -31.231  11.484  0.00  0.00    +0.249 C 
ATOM      6  O   LIG    1       23.070 -31.949  10.499  0.00  0.00    -0.273 OA
ATOM      7  N   LIG    1       22.296 -30.959  12.478  0.00  0.00    -0.220 N 
ATOM      8  C   LIG    1       22.855 -30.062  13.399  0.00  0.00    +0.151 C 
ATOM      9  S   LIG    1       22.272 -29.696  14.935  0.00  0.00    -0.017 S 
ENDROOT
BRANCH   1  14
ATOM     10  C   LIG    1       26.621 -26.459  14.321  0.00  0.00    +0.072 A 
ATOM     11  C   LIG    1       26.972 -27.794  14.493  0.00  0.00    +0.137 A 
ATOM     12  F   LIG    1       28.117 -28.137  15.102  0.00  0.00    -0.205 F 
ATOM     13  C   LIG    1       26.144 -28.828  14.044  0.00  0.00    +0.062 A 
ATOM     14  C   LIG    1       24.943 -28.569  13.371  0.00  0.00    +0.039 A 
ATOM     15  C   LIG    1       24.575 -27.223  13.243  0.00  0.00    +0.024 A 
ATOM     16  C   LIG    1       25.402 -26.182  13.699  0.00  0.00    +0.018 A 
BRANCH  10  20
ATOM     17  C   LIG    1       27.563 -22.975  15.500  0.00  0.00    +0.128 C 
ATOM     18  N   LIG    1       26.839 -24.133  15.048  0.00  0.00    -0.314 N 
ATOM     19  H   LIG    1       25.833 -24.059  14.939  0.00  0.00    +0.149 HD
ATOM     20  C   LIG    1       27.471 -25.325  14.780  0.00  0.00    +0.247 C 
ATOM     21  O   LIG    1       28.684 -25.477  14.900  0.00  0.00    -0.270 OA
ENDBRANCH  10  20
ENDBRANCH   1  14
BRANCH   7  22
ATOM     22  C   LIG    1       20.993 -31.564  12.501  0.00  0.00    +0.044 A 
ATOM     23  C   LIG    1       20.049 -31.352  11.487  0.00  0.00    +0.037 A 
ATOM     24  C   LIG    1       18.742 -31.902  11.521  0.00  0.00    +0.074 A 
ATOM     25  C   LIG    1       18.393 -32.736  12.579  0.00  0.00    +0.064 A 
ATOM     26  C   LIG    1       19.334 -33.001  13.586  0.00  0.00    +0.021 A 
ATOM     27  C   LIG    1       20.606 -32.419  13.542  0.00  0.00    +0.025 A 
BRANCH  24  28
ATOM     28  C   LIG    1       17.812 -31.535  10.390  0.00  0.00    +0.419 C 
ATOM     29  F   LIG    1       18.428 -30.739   9.473  0.00  0.00    -0.166 F 
ATOM     30  F   LIG    1       16.737 -30.823  10.832  0.00  0.00    -0.166 F 
ATOM     31  F   LIG    1       17.302 -32.578   9.693  0.00  0.00    -0.166 F 
ENDBRANCH  24  28
BRANCH  25  32
ATOM     32  C   LIG    1       17.107 -33.347  12.706  0.00  0.00    +0.100 C 
ATOM     33  N   LIG    1       16.052 -33.825  12.836  0.00  0.00    -0.191 NA
ENDBRANCH  25  32
ENDBRANCH   7  22
TORSDOF 5
ENDMDL
MODEL 8
REMARK VINA RESULT:      -3.4      6.408      9.012
REMARK  Name = *****
REMARK                            x       y       z     vdW  Elec       q    Type
REMARK                         _______ _______ _______ _____ _____    ______ ____
ROOT
ATOM      1  N   LIG    1       24.862 -27.988   6.694  0.00  0.00    -0.268 N 
ATOM      2  C   LIG    1       24.583 -29.148   5.850  0.00  0.00    +0.112 C 
ATOM      3  C   LIG    1       25.788 -29.582   4.997  0.00  0.00    +0.042 C 
ATOM      4  C   LIG    1       23.271 -29.092   5.064  0.00  0.00    +0.042 C 
ATOM      5  C   LIG    1       24.437 -30.237   6.915  0.00  0.00    +0.249 C 
ATOM      6  O   LIG    1       24.004 -31.356   6.657  0.00  0.00    -0.273 OA
ATOM      7  N   LIG    1       24.929 -29.776   8.120  0.00  0.00    -0.220 N 
ATOM      8  C   LIG    1       25.287 -28.426   7.993  0.00  0.00    +0.151 C 
ATOM      9  S   LIG    1       26.229 -27.526   9.058  0.00  0.00    -0.017 S 
ENDROOT
BRANCH   1  14
ATOM     10  C   LIG    1       24.769 -23.919   5.318  0.00  0.00    +0.072 A 
ATOM     11  C   LIG    1       24.045 -24.326   6.434  0.00  0.00    +0.137 A 
ATOM     12  F   LIG    1       23.303 -23.455   7.135  0.00  0.00    -0.205 F 
ATOM     13  C   LIG    1       24.057 -25.657   6.864  0.00  0.00    +0.062 A 
ATOM     14  C   LIG    1       24.824 -26.633   6.215  0.00  0.00    +0.039 A 
ATOM     15  C   LIG    1       25.513 -26.225   5.066  0.00  0.00    +0.024 A 
ATOM     16  C   LIG    1       25.498 -24.890   4.627  0.00  0.00    +0.018 A 
BRANCH  10  20
ATOM     17  C   LIG    1       25.717 -20.251   5.078  0.00  0.00    +0.128 C 
ATOM     18  N   LIG    1       25.618 -21.630   5.475  0.00  0.00    -0.314 N 
ATOM     19  H   LIG    1       26.188 -21.950   6.250  0.00  0.00    +0.149 HD
ATOM     20  C   LIG    1       24.789 -22.514   4.824  0.00  0.00    +0.247 C 
ATOM     21  O   LIG    1       24.081 -22.188   3.876  0.00  0.00    -0.270 OA
ENDBRANCH  10  20
ENDBRANCH   1  14
BRANCH   7  22
ATOM     22  C   LIG    1       25.042 -30.623   9.275  0.00  0.00    +0.044 A 
ATOM     23  C   LIG    1       24.214 -30.479  10.397  0.00  0.00    +0.037 A 
ATOM     24  C   LIG    1       24.348 -31.274  11.563  0.00  0.00    +0.074 A 
ATOM     25  C   LIG    1       25.304 -32.284  11.580  0.00  0.00    +0.064 A 
ATOM     26  C   LIG    1       26.117 -32.481  10.452  0.00  0.00    +0.021 A 
ATOM     27  C   LIG    1       25.985 -31.660   9.327  0.00  0.00    +0.025 A 
BRANCH  24  28
ATOM     28  C   LIG    1       23.427 -30.961  12.718  0.00  0.00    +0.419 C 
ATOM     29  F   LIG    1       22.570 -29.947  12.414  0.00  0.00    -0.166 F 
ATOM     30  F   LIG    1       24.119 -30.541  13.814  0.00  0.00    -0.166 F 
ATOM     31  F   LIG    1       22.653 -31.989  13.142  0.00  0.00    -0.166 F 
ENDBRANCH  24  28
BRANCH  25  32
ATOM     32  C   LIG    1       25.516 -33.147  12.699  0.00  0.00    +0.100 C 
ATOM     33  N   LIG    1       25.701 -33.825  13.630  0.00  0.00    -0.191 NA
ENDBRANCH  25  32
ENDBRANCH   7  22
TORSDOF 5
ENDMDL
MODEL 9
REMARK VINA RESULT:      -3.3      6.588      9.136
REMARK  Name = *****
REMARK                            x       y       z     vdW  Elec       q    Type
REMARK                         _______ _______ _______ _____ _____    ______ ____
ROOT
ATOM      1  N   LIG    1       24.814 -27.774   6.615  0.00  0.00    -0.268 N 
ATOM      2  C   LIG    1       24.519 -28.901   5.731  0.00  0.00    +0.112 C 
ATOM      3  C   LIG    1       25.709 -29.305   4.843  0.00  0.00    +0.042 C 
ATOM      4  C   LIG    1       23.196 -28.811   4.969  0.00  0.00    +0.042 C 
ATOM      5  C   LIG    1       24.387 -30.029   6.756  0.00  0.00    +0.249 C 
ATOM      6  O   LIG    1       23.946 -31.136   6.462  0.00  0.00    -0.273 OA
ATOM      7  N   LIG    1       24.898 -29.615   7.970  0.00  0.00    -0.220 N 
ATOM      8  C   LIG    1       25.259 -28.263   7.889  0.00  0.00    +0.151 C 
ATOM      9  S   LIG    1       26.220 -27.406   8.972  0.00  0.00    -0.017 S 
ENDROOT
BRANCH   1  14
ATOM     10  C   LIG    1       24.708 -23.656   5.397  0.00  0.00    +0.072 A 
ATOM     11  C   LIG    1       23.947 -24.118   6.466  0.00  0.00    +0.137 A 
ATOM     12  F   LIG    1       23.163 -23.286   7.170  0.00  0.00    -0.205 F 
ATOM     13  C   LIG    1       23.964 -25.464   6.843  0.00  0.00    +0.062 A 
ATOM     14  C   LIG    1       24.773 -26.402   6.188  0.00  0.00    +0.039 A 
ATOM     15  C   LIG    1       25.501 -25.937   5.085  0.00  0.00    +0.024 A 
ATOM     16  C   LIG    1       25.480 -24.586   4.698  0.00  0.00    +0.018 A 
BRANCH  10  20
ATOM     17  C   LIG    1       23.937 -20.563   3.335  0.00  0.00    +0.128 C 
ATOM     18  N   LIG    1       23.993 -21.908   3.841  0.00  0.00    -0.314 N 
ATOM     19  H   LIG    1       23.467 -22.627   3.357  0.00  0.00    +0.149 HD
ATOM     20  C   LIG    1       24.724 -22.231   4.960  0.00  0.00    +0.247 C 
ATOM     21  O   LIG    1       25.376 -21.404   5.592  0.00  0.00    -0.270 OA
ENDBRANCH  10  20
ENDBRANCH   1  14
BRANCH   7  22
ATOM     22  C   LIG    1       25.027 -30.506   9.090  0.00  0.00    +0.044 A 
ATOM     23  C   LIG    1       24.040 -30.618  10.079  0.00  0.00    +0.037 A 
ATOM     24  C   LIG    1       24.176 -31.455  11.215  0.00  0.00    +0.074 A 
ATOM     25  C   LIG    1       25.313 -32.248  11.332  0.00  0.00    +0.064 A 
ATOM     26  C   LIG    1       26.298 -32.189  10.333  0.00  0.00    +0.021 A 
ATOM     27  C   LIG    1       26.152 -31.330   9.238  0.00  0.00    +0.025 A 
BRANCH  24  28
ATOM     28  C   LIG    1       23.058 -31.424  12.230  0.00  0.00    +0.419 C 
ATOM     29  F   LIG    1       22.376 -32.602  12.260  0.00  0.00    -0.166 F 
ATOM     30  F   LIG    1       22.132 -30.470  11.929  0.00  0.00    -0.166 F 
ATOM     31  F   LIG    1       23.437 -31.180  13.507  0.00  0.00    -0.166 F 
ENDBRANCH  24  28
BRANCH  25  32
ATOM     32  C   LIG    1       25.546 -33.131  12.431  0.00  0.00    +0.100 C 
ATOM     33  N   LIG    1       25.742 -33.825  13.347  0.00  0.00    -0.191 NA
ENDBRANCH  25  32
ENDBRANCH   7  22
TORSDOF 5
ENDMDL
