MODEL 1
REMARK VINA RESULT:      -9.0      0.000      0.000
REMARK  Name = *****
REMARK                            x       y       z     vdW  Elec       q    Type
REMARK                         _______ _______ _______ _____ _____    ______ ____
ROOT
ATOM      1  N   LIG    1       23.143 -20.760   5.105  0.00  0.00    -0.295 NA
ATOM      2  C   LIG    1       23.261 -21.023   6.570  0.00  0.00    +0.065 C 
ATOM      3  C   LIG    1       22.831 -22.471   6.870  0.00  0.00    +0.054 C 
ATOM      4  C   LIG    1       23.887 -23.505   6.561  0.00  0.00    -0.042 A 
ATOM      5  C   LIG    1       25.227 -23.145   6.314  0.00  0.00    -0.034 A 
ATOM      6  C   LIG    1       25.671 -21.662   6.315  0.00  0.00    +0.002 C 
ATOM      7  C   LIG    1       27.099 -21.533   6.943  0.00  0.00    +0.012 C 
ATOM      8  C   LIG    1       27.249 -20.335   7.881  0.00  0.00    +0.001 C 
ATOM      9  C   LIG    1       26.244 -20.398   9.035  0.00  0.00    +0.000 C 
ATOM     10  C   LIG    1       24.861 -20.909   8.613  0.00  0.00    +0.006 C 
ATOM     11  C   LIG    1       25.641 -21.190   4.834  0.00  0.00    +0.027 C 
ATOM     12  C   LIG    1       26.145 -24.169   6.003  0.00  0.00    +0.049 A 
ATOM     13  C   LIG    1       25.757 -25.505   6.002  0.00  0.00    +0.117 A 
ATOM     14  C   LIG    1       24.448 -25.862   6.284  0.00  0.00    +0.045 A 
ATOM     15  C   LIG    1       23.516 -24.862   6.559  0.00  0.00    +0.007 A 
ATOM     16  C   LIG    1       24.678 -20.763   7.098  0.00  0.00    +0.017 C 
ATOM     17  C   LIG    1       24.405 -20.342   4.472  0.00  0.00    +0.086 C 
ENDROOT
BRANCH  13  18
ATOM     18  O   LIG    1       26.706 -26.443   5.718  0.00  0.00    -0.507 OA
ATOM     19  H   LIG    1       27.577 -26.013   5.743  0.00  0.00    +0.292 HD
ENDBRANCH  13  18
BRANCH   1  20
ATOM     20  C   LIG    1       22.070 -19.781   4.847  0.00  0.00    +0.111 C 
BRANCH  20  22
ATOM     21  C   LIG    1       22.201 -17.277   4.610  0.00  0.00    +0.005 C 
ATOM     22  C   LIG    1       22.557 -18.511   4.210  0.00  0.00    -0.019 C 
ENDBRANCH  20  22
ENDBRANCH   1  20
TORSDOF 3
ENDMDL
MODEL 2
REMARK VINA RESULT:      -8.6      1.948      4.134
REMARK  Name = *****
REMARK                            x       y       z     vdW  Elec       q    Type
REMARK                         _______ _______ _______ _____ _____    ______ ____
ROOT
ATOM      1  N   LIG    1       23.442 -20.143   5.809  0.00  0.00    -0.295 NA
ATOM      2  C   LIG    1       24.201 -21.063   4.909  0.00  0.00    +0.065 C 
ATOM      3  C   LIG    1       25.539 -20.409   4.515  0.00  0.00    +0.054 C 
ATOM      4  C   LIG    1       26.609 -20.504   5.576  0.00  0.00    -0.042 A 
ATOM      5  C   LIG    1       26.480 -21.367   6.682  0.00  0.00    -0.034 A 
ATOM      6  C   LIG    1       25.215 -22.237   6.878  0.00  0.00    +0.002 C 
ATOM      7  C   LIG    1       25.611 -23.632   7.466  0.00  0.00    +0.012 C 
ATOM      8  C   LIG    1       24.860 -24.801   6.829  0.00  0.00    +0.001 C 
ATOM      9  C   LIG    1       25.091 -24.858   5.315  0.00  0.00    +0.000 C 
ATOM     10  C   LIG    1       25.123 -23.477   4.650  0.00  0.00    +0.006 C 
ATOM     11  C   LIG    1       24.278 -21.447   7.834  0.00  0.00    +0.027 C 
ATOM     12  C   LIG    1       27.511 -21.374   7.645  0.00  0.00    +0.049 A 
ATOM     13  C   LIG    1       28.654 -20.598   7.478  0.00  0.00    +0.117 A 
ATOM     14  C   LIG    1       28.797 -19.779   6.369  0.00  0.00    +0.045 A 
ATOM     15  C   LIG    1       27.774 -19.730   5.424  0.00  0.00    +0.007 A 
ATOM     16  C   LIG    1       24.442 -22.437   5.548  0.00  0.00    +0.017 C 
ATOM     17  C   LIG    1       23.115 -20.729   7.119  0.00  0.00    +0.086 C 
ENDROOT
BRANCH  13  18
ATOM     18  O   LIG    1       29.621 -20.676   8.437  0.00  0.00    -0.507 OA
ATOM     19  H   LIG    1       30.447 -20.964   8.016  0.00  0.00    +0.292 HD
ENDBRANCH  13  18
BRANCH   1  20
ATOM     20  C   LIG    1       22.229 -19.651   5.129  0.00  0.00    +0.111 C 
BRANCH  20  22
ATOM     21  C   LIG    1       22.251 -17.178   4.652  0.00  0.00    +0.005 C 
ATOM     22  C   LIG    1       22.473 -18.446   4.264  0.00  0.00    -0.019 C 
ENDBRANCH  20  22
ENDBRANCH   1  20
TORSDOF 3
ENDMDL
MODEL 3
REMARK VINA RESULT:      -8.0      2.189      5.095
REMARK  Name = *****
REMARK                            x       y       z     vdW  Elec       q    Type
REMARK                         _______ _______ _______ _____ _____    ______ ____
ROOT
ATOM      1  N   LIG    1       24.330 -23.417   6.192  0.00  0.00    -0.295 NA
ATOM      2  C   LIG    1       23.817 -22.159   6.813  0.00  0.00    +0.065 C 
ATOM      3  C   LIG    1       24.842 -21.635   7.836  0.00  0.00    +0.054 C 
ATOM      4  C   LIG    1       26.008 -20.899   7.220  0.00  0.00    -0.042 A 
ATOM      5  C   LIG    1       25.992 -20.479   5.875  0.00  0.00    -0.034 A 
ATOM      6  C   LIG    1       24.785 -20.784   4.955  0.00  0.00    +0.002 C 
ATOM      7  C   LIG    1       24.528 -19.576   3.994  0.00  0.00    +0.012 C 
ATOM      8  C   LIG    1       23.047 -19.236   3.820  0.00  0.00    +0.001 C 
ATOM      9  C   LIG    1       22.387 -18.905   5.162  0.00  0.00    +0.000 C 
ATOM     10  C   LIG    1       22.868 -19.793   6.315  0.00  0.00    +0.006 C 
ATOM     11  C   LIG    1       25.139 -22.082   4.176  0.00  0.00    +0.027 C 
ATOM     12  C   LIG    1       27.134 -19.825   5.368  0.00  0.00    +0.049 A 
ATOM     13  C   LIG    1       28.223 -19.544   6.188  0.00  0.00    +0.117 A 
ATOM     14  C   LIG    1       28.222 -19.922   7.521  0.00  0.00    +0.045 A 
ATOM     15  C   LIG    1       27.118 -20.602   8.033  0.00  0.00    +0.007 A 
ATOM     16  C   LIG    1       23.499 -21.080   5.770  0.00  0.00    +0.017 C 
ATOM     17  C   LIG    1       24.453 -23.348   4.726  0.00  0.00    +0.086 C 
ENDROOT
BRANCH  13  18
ATOM     18  O   LIG    1       29.281 -18.884   5.634  0.00  0.00    -0.507 OA
ATOM     19  H   LIG    1       29.231 -17.951   5.897  0.00  0.00    +0.292 HD
ENDBRANCH  13  18
BRANCH   1  20
ATOM     20  C   LIG    1       23.499 -24.565   6.602  0.00  0.00    +0.111 C 
BRANCH  20  22
ATOM     21  C   LIG    1       25.317 -26.306   6.607  0.00  0.00    +0.005 C 
ATOM     22  C   LIG    1       24.092 -25.896   6.236  0.00  0.00    -0.019 C 
ENDBRANCH  20  22
ENDBRANCH   1  20
TORSDOF 3
ENDMDL
MODEL 4
REMARK VINA RESULT:      -7.2      2.502      5.337
REMARK  Name = *****
REMARK                            x       y       z     vdW  Elec       q    Type
REMARK                         _______ _______ _______ _____ _____    ______ ____
ROOT
ATOM      1  N   LIG    1       23.840 -24.258   5.691  0.00  0.00    -0.295 NA
ATOM      2  C   LIG    1       25.099 -23.461   5.586  0.00  0.00    +0.065 C 
ATOM      3  C   LIG    1       25.058 -22.598   4.311  0.00  0.00    +0.054 C 
ATOM      4  C   LIG    1       24.230 -21.342   4.442  0.00  0.00    -0.042 A 
ATOM      5  C   LIG    1       23.797 -20.868   5.696  0.00  0.00    -0.034 A 
ATOM      6  C   LIG    1       24.124 -21.636   7.000  0.00  0.00    +0.002 C 
ATOM      7  C   LIG    1       24.416 -20.622   8.156  0.00  0.00    +0.012 C 
ATOM      8  C   LIG    1       25.600 -21.024   9.037  0.00  0.00    +0.001 C 
ATOM      9  C   LIG    1       26.885 -21.169   8.217  0.00  0.00    +0.000 C 
ATOM     10  C   LIG    1       26.663 -21.811   6.842  0.00  0.00    +0.006 C 
ATOM     11  C   LIG    1       22.891 -22.531   7.308  0.00  0.00    +0.027 C 
ATOM     12  C   LIG    1       23.001 -19.704   5.729  0.00  0.00    +0.049 A 
ATOM     13  C   LIG    1       22.703 -19.005   4.563  0.00  0.00    +0.117 A 
ATOM     14  C   LIG    1       23.163 -19.451   3.334  0.00  0.00    +0.045 A 
ATOM     15  C   LIG    1       23.921 -20.619   3.275  0.00  0.00    +0.007 A 
ATOM     16  C   LIG    1       25.339 -22.583   6.822  0.00  0.00    +0.017 C 
ATOM     17  C   LIG    1       23.083 -24.012   6.930  0.00  0.00    +0.086 C 
ENDROOT
BRANCH  13  18
ATOM     18  O   LIG    1       21.950 -17.873   4.675  0.00  0.00    -0.507 OA
ATOM     19  H   LIG    1       21.581 -17.664   3.802  0.00  0.00    +0.292 HD
ENDBRANCH  13  18
BRANCH   1  20
ATOM     20  C   LIG    1       24.130 -25.694   5.521  0.00  0.00    +0.111 C 
BRANCH  20  22
ATOM     21  C   LIG    1       26.187 -27.045   4.985  0.00  0.00    +0.005 C 
ATOM     22  C   LIG    1       25.590 -26.029   5.634  0.00  0.00    -0.019 C 
ENDBRANCH  20  22
ENDBRANCH   1  20
TORSDOF 3
ENDMDL
MODEL 5
REMARK VINA RESULT:      -7.1      2.524      5.333
REMARK  Name = *****
REMARK                            x       y       z     vdW  Elec       q    Type
REMARK                         _______ _______ _______ _____ _____    ______ ____
ROOT
ATOM      1  N   LIG    1       25.741 -24.104   6.418  0.00  0.00    -0.295 NA
ATOM      2  C   LIG    1       25.382 -23.103   7.466  0.00  0.00    +0.065 C 
ATOM      3  C   LIG    1       26.665 -22.451   8.016  0.00  0.00    +0.054 C 
ATOM      4  C   LIG    1       27.239 -21.373   7.129  0.00  0.00    -0.042 A 
ATOM      5  C   LIG    1       26.502 -20.820   6.063  0.00  0.00    -0.034 A 
ATOM      6  C   LIG    1       25.075 -21.320   5.731  0.00  0.00    +0.002 C 
ATOM      7  C   LIG    1       24.180 -20.117   5.282  0.00  0.00    +0.012 C 
ATOM      8  C   LIG    1       22.766 -20.156   5.864  0.00  0.00    +0.001 C 
ATOM      9  C   LIG    1       22.790 -20.163   7.395  0.00  0.00    +0.000 C 
ATOM     10  C   LIG    1       23.916 -21.022   7.984  0.00  0.00    +0.006 C 
ATOM     11  C   LIG    1       25.228 -22.383   4.608  0.00  0.00    +0.027 C 
ATOM     12  C   LIG    1       27.123 -19.838   5.263  0.00  0.00    +0.049 A 
ATOM     13  C   LIG    1       28.404 -19.380   5.553  0.00  0.00    +0.117 A 
ATOM     14  C   LIG    1       29.114 -19.897   6.626  0.00  0.00    +0.045 A 
ATOM     15  C   LIG    1       28.532 -20.894   7.408  0.00  0.00    +0.007 A 
ATOM     16  C   LIG    1       24.417 -22.030   6.943  0.00  0.00    +0.017 C 
ATOM     17  C   LIG    1       25.126 -23.838   5.106  0.00  0.00    +0.086 C 
ENDROOT
BRANCH  13  18
ATOM     18  O   LIG    1       28.930 -18.411   4.751  0.00  0.00    -0.507 OA
ATOM     19  H   LIG    1       28.236 -18.108   4.142  0.00  0.00    +0.292 HD
ENDBRANCH  13  18
BRANCH   1  20
ATOM     20  C   LIG    1       25.426 -25.467   6.886  0.00  0.00    +0.111 C 
BRANCH  20  22
ATOM     21  C   LIG    1       24.308 -27.495   5.896  0.00  0.00    +0.005 C 
ATOM     22  C   LIG    1       24.385 -26.162   6.054  0.00  0.00    -0.019 C 
ENDBRANCH  20  22
ENDBRANCH   1  20
TORSDOF 3
ENDMDL
