MODEL 1
REMARK VINA RESULT:      -3.0      0.000      0.000
REMARK  Name = *****
REMARK                            x       y       z     vdW  Elec       q    Type
REMARK                         _______ _______ _______ _____ _____    ______ ____
ROOT
ATOM      1  C   LIG    1       26.320 -17.367   3.713  0.00  0.00    +0.095 C 
ENDROOT
BRANCH   1   2
ATOM      2  C   LIG    1       26.134 -15.938   4.335  0.00  0.00    +0.033 C 
ATOM      3  C   LIG    1       27.209 -14.858   3.982  0.00  0.00    +0.018 C 
ATOM      4  C   LIG    1       26.533 -13.613   4.579  0.00  0.00    +0.015 C 
ATOM      5  C   LIG    1       25.300 -13.732   3.679  0.00  0.00    +0.012 C 
ATOM      6  C   LIG    1       25.997 -13.769   2.344  0.00  0.00    -0.027 C 
ATOM      7  C   LIG    1       27.151 -14.447   2.527  0.00  0.00    -0.027 C 
ATOM      8  C   LIG    1       24.809 -15.167   3.985  0.00  0.00    +0.015 C 
ENDBRANCH   1   2
BRANCH   1   9
ATOM      9  C   LIG    1       27.307 -18.182   4.584  0.00  0.00    -0.016 A 
ATOM     10  C   LIG    1       28.607 -17.720   4.859  0.00  0.00    +0.006 A 
ATOM     11  C   LIG    1       29.474 -18.426   5.700  0.00  0.00    +0.000 A 
ATOM     12  C   LIG    1       29.054 -19.600   6.315  0.00  0.00    +0.000 A 
ATOM     13  C   LIG    1       27.778 -20.089   6.055  0.00  0.00    +0.000 A 
ATOM     14  C   LIG    1       26.921 -19.399   5.186  0.00  0.00    +0.006 A 
ENDBRANCH   1   9
BRANCH   1  15
ATOM     15  O   LIG    1       26.803 -17.206   2.377  0.00  0.00    -0.384 OA
ATOM     16  H   LIG    1       27.456 -16.490   2.371  0.00  0.00    +0.211 HD
ENDBRANCH   1  15
BRANCH   1  17
ATOM     17  C   LIG    1       24.938 -18.086   3.601  0.00  0.00    +0.055 C 
BRANCH  17  18
ATOM     18  C   LIG    1       24.987 -19.603   3.295  0.00  0.00    +0.087 C 
BRANCH  18  19
ATOM     19  N   LIG    1       23.661 -20.255   3.416  0.00  0.00    -0.302 NA
ATOM     20  C   LIG    1       23.737 -21.571   4.078  0.00  0.00    +0.084 C 
ATOM     21  C   LIG    1       24.072 -21.490   5.570  0.00  0.00    +0.015 C 
ATOM     22  C   LIG    1       23.118 -20.553   6.310  0.00  0.00    +0.002 C 
ATOM     23  C   LIG    1       22.951 -19.221   5.584  0.00  0.00    +0.015 C 
ATOM     24  C   LIG    1       22.650 -19.435   4.100  0.00  0.00    +0.084 C 
ENDBRANCH  18  19
ENDBRANCH  17  18
ENDBRANCH   1  17
TORSDOF 6
ENDMDL
MODEL 2
REMARK VINA RESULT:      -2.9      1.671      5.891
REMARK  Name = *****
REMARK                            x       y       z     vdW  Elec       q    Type
REMARK                         _______ _______ _______ _____ _____    ______ ____
ROOT
ATOM      1  C   LIG    1       26.054 -19.051   4.088  0.00  0.00    +0.095 C 
ENDROOT
BRANCH   1   2
ATOM      2  C   LIG    1       26.939 -20.031   4.936  0.00  0.00    +0.033 C 
ATOM      3  C   LIG    1       28.490 -19.843   4.860  0.00  0.00    +0.018 C 
ATOM      4  C   LIG    1       28.925 -20.807   5.975  0.00  0.00    +0.015 C 
ATOM      5  C   LIG    1       28.154 -20.053   7.062  0.00  0.00    +0.012 C 
ATOM      6  C   LIG    1       28.738 -18.681   6.842  0.00  0.00    -0.027 C 
ATOM      7  C   LIG    1       28.942 -18.555   5.513  0.00  0.00    -0.027 C 
ATOM      8  C   LIG    1       26.715 -20.040   6.493  0.00  0.00    +0.015 C 
ENDBRANCH   1   2
BRANCH   1   9
ATOM      9  C   LIG    1       24.559 -19.308   4.401  0.00  0.00    -0.016 A 
ATOM     10  C   LIG    1       23.561 -18.378   4.058  0.00  0.00    +0.006 A 
ATOM     11  C   LIG    1       22.204 -18.642   4.282  0.00  0.00    +0.000 A 
ATOM     12  C   LIG    1       21.806 -19.857   4.828  0.00  0.00    +0.000 A 
ATOM     13  C   LIG    1       22.770 -20.793   5.187  0.00  0.00    +0.000 A 
ATOM     14  C   LIG    1       24.131 -20.515   4.993  0.00  0.00    +0.006 A 
ENDBRANCH   1   9
BRANCH   1  15
ATOM     15  O   LIG    1       26.349 -19.275   2.707  0.00  0.00    -0.384 OA
ATOM     16  H   LIG    1       27.286 -19.078   2.558  0.00  0.00    +0.211 HD
ENDBRANCH   1  15
BRANCH   1  17
ATOM     17  C   LIG    1       26.449 -17.572   4.394  0.00  0.00    +0.055 C 
BRANCH  17  18
ATOM     18  C   LIG    1       26.147 -16.545   3.275  0.00  0.00    +0.087 C 
BRANCH  18  19
ATOM     19  N   LIG    1       26.973 -15.319   3.384  0.00  0.00    -0.302 NA
ATOM     20  C   LIG    1       26.825 -14.432   2.214  0.00  0.00    +0.084 C 
ATOM     21  C   LIG    1       25.453 -13.758   2.124  0.00  0.00    +0.015 C 
ATOM     22  C   LIG    1       25.099 -13.028   3.420  0.00  0.00    +0.002 C 
ATOM     23  C   LIG    1       25.342 -13.901   4.648  0.00  0.00    +0.015 C 
ATOM     24  C   LIG    1       26.731 -14.540   4.607  0.00  0.00    +0.084 C 
ENDBRANCH  18  19
ENDBRANCH  17  18
ENDBRANCH   1  17
TORSDOF 6
ENDMDL
MODEL 3
REMARK VINA RESULT:      -2.8      1.004      1.949
REMARK  Name = *****
REMARK                            x       y       z     vdW  Elec       q    Type
REMARK                         _______ _______ _______ _____ _____    ______ ____
ROOT
ATOM      1  C   LIG    1       26.070 -17.782   3.482  0.00  0.00    +0.095 C 
ENDROOT
BRANCH   1   2
ATOM      2  C   LIG    1       26.603 -16.348   3.132  0.00  0.00    +0.033 C 
ATOM      3  C   LIG    1       25.545 -15.268   2.730  0.00  0.00    +0.018 C 
ATOM      4  C   LIG    1       26.441 -14.020   2.709  0.00  0.00    +0.015 C 
ATOM      5  C   LIG    1       26.821 -14.149   4.186  0.00  0.00    +0.012 C 
ATOM      6  C   LIG    1       25.434 -14.197   4.773  0.00  0.00    -0.027 C 
ATOM      7  C   LIG    1       24.663 -14.871   3.893  0.00  0.00    -0.027 C 
ATOM      8  C   LIG    1       27.401 -15.582   4.251  0.00  0.00    +0.015 C 
ENDBRANCH   1   2
BRANCH   1   9
ATOM      9  C   LIG    1       27.028 -18.452   4.497  0.00  0.00    -0.016 A 
ATOM     10  C   LIG    1       26.688 -19.646   5.158  0.00  0.00    +0.006 A 
ATOM     11  C   LIG    1       27.582 -20.286   6.025  0.00  0.00    +0.000 A 
ATOM     12  C   LIG    1       28.854 -19.764   6.231  0.00  0.00    +0.000 A 
ATOM     13  C   LIG    1       29.217 -18.578   5.600  0.00  0.00    +0.000 A 
ATOM     14  C   LIG    1       28.309 -17.921   4.758  0.00  0.00    +0.006 A 
ENDBRANCH   1   9
BRANCH   1  15
ATOM     15  O   LIG    1       25.984 -18.528   2.266  0.00  0.00    -0.384 OA
ATOM     16  H   LIG    1       25.150 -19.021   2.266  0.00  0.00    +0.211 HD
ENDBRANCH   1  15
BRANCH   1  17
ATOM     17  C   LIG    1       24.619 -17.689   4.051  0.00  0.00    +0.055 C 
BRANCH  17  18
ATOM     18  C   LIG    1       23.692 -18.889   3.740  0.00  0.00    +0.087 C 
BRANCH  18  19
ATOM     19  N   LIG    1       22.521 -18.959   4.647  0.00  0.00    -0.302 NA
ATOM     20  C   LIG    1       21.604 -20.062   4.301  0.00  0.00    +0.084 C 
ATOM     21  C   LIG    1       22.180 -21.452   4.588  0.00  0.00    +0.015 C 
ATOM     22  C   LIG    1       22.669 -21.571   6.031  0.00  0.00    +0.002 C 
ATOM     23  C   LIG    1       23.540 -20.385   6.436  0.00  0.00    +0.015 C 
ATOM     24  C   LIG    1       22.871 -19.059   6.071  0.00  0.00    +0.084 C 
ENDBRANCH  18  19
ENDBRANCH  17  18
ENDBRANCH   1  17
TORSDOF 6
ENDMDL
MODEL 4
REMARK VINA RESULT:      -1.6      2.123      3.796
REMARK  Name = *****
REMARK                            x       y       z     vdW  Elec       q    Type
REMARK                         _______ _______ _______ _____ _____    ______ ____
ROOT
ATOM      1  C   LIG    1       25.887 -14.958   3.113  0.00  0.00    +0.095 C 
ENDROOT
BRANCH   1   2
ATOM      2  C   LIG    1       25.017 -13.980   2.248  0.00  0.00    +0.033 C 
ATOM      3  C   LIG    1       23.636 -13.538   2.835  0.00  0.00    +0.018 C 
ATOM      4  C   LIG    1       23.256 -12.450   1.818  0.00  0.00    +0.015 C 
ATOM      5  C   LIG    1       24.485 -11.593   2.131  0.00  0.00    +0.012 C 
ATOM      6  C   LIG    1       24.303 -11.471   3.621  0.00  0.00    -0.027 C 
ATOM      7  C   LIG    1       23.788 -12.645   4.046  0.00  0.00    -0.027 C 
ATOM      8  C   LIG    1       25.647 -12.584   1.885  0.00  0.00    +0.015 C 
ENDBRANCH   1   2
BRANCH   1   9
ATOM      9  C   LIG    1       26.885 -14.139   3.968  0.00  0.00    -0.016 A 
ATOM     10  C   LIG    1       28.087 -13.645   3.431  0.00  0.00    +0.006 A 
ATOM     11  C   LIG    1       28.956 -12.849   4.187  0.00  0.00    +0.000 A 
ATOM     12  C   LIG    1       28.631 -12.499   5.492  0.00  0.00    +0.000 A 
ATOM     13  C   LIG    1       27.454 -12.981   6.056  0.00  0.00    +0.000 A 
ATOM     14  C   LIG    1       26.600 -13.805   5.310  0.00  0.00    +0.006 A 
ENDBRANCH   1   9
BRANCH   1  15
ATOM     15  O   LIG    1       26.562 -15.850   2.224  0.00  0.00    -0.384 OA
ATOM     16  H   LIG    1       27.337 -16.210   2.680  0.00  0.00    +0.211 HD
ENDBRANCH   1  15
BRANCH   1  17
ATOM     17  C   LIG    1       24.964 -15.840   4.013  0.00  0.00    +0.055 C 
BRANCH  17  18
ATOM     18  C   LIG    1       25.342 -17.339   4.106  0.00  0.00    +0.087 C 
BRANCH  18  19
ATOM     19  N   LIG    1       24.490 -18.199   3.250  0.00  0.00    -0.302 NA
ATOM     20  C   LIG    1       24.936 -19.606   3.242  0.00  0.00    +0.084 C 
ATOM     21  C   LIG    1       24.705 -20.331   4.571  0.00  0.00    +0.015 C 
ATOM     22  C   LIG    1       23.253 -20.214   5.031  0.00  0.00    +0.002 C 
ATOM     23  C   LIG    1       22.745 -18.776   4.952  0.00  0.00    +0.015 C 
ATOM     24  C   LIG    1       23.060 -18.154   3.591  0.00  0.00    +0.084 C 
ENDBRANCH  18  19
ENDBRANCH  17  18
ENDBRANCH   1  17
TORSDOF 6
ENDMDL
MODEL 5
REMARK VINA RESULT:      -1.4      1.602      5.749
REMARK  Name = *****
REMARK                            x       y       z     vdW  Elec       q    Type
REMARK                         _______ _______ _______ _____ _____    ______ ____
ROOT
ATOM      1  C   LIG    1       25.926 -19.100   4.217  0.00  0.00    +0.095 C 
ENDROOT
BRANCH   1   2
ATOM      2  C   LIG    1       27.007 -18.738   5.295  0.00  0.00    +0.033 C 
ATOM      3  C   LIG    1       27.339 -19.825   6.370  0.00  0.00    +0.018 C 
ATOM      4  C   LIG    1       28.557 -19.168   7.038  0.00  0.00    +0.015 C 
ATOM      5  C   LIG    1       29.378 -19.151   5.745  0.00  0.00    +0.012 C 
ATOM      6  C   LIG    1       29.279 -20.614   5.395  0.00  0.00    -0.027 C 
ATOM      7  C   LIG    1       28.048 -21.021   5.774  0.00  0.00    -0.027 C 
ATOM      8  C   LIG    1       28.449 -18.379   4.778  0.00  0.00    +0.015 C 
ENDBRANCH   1   2
BRANCH   1   9
ATOM      9  C   LIG    1       24.779 -19.896   4.887  0.00  0.00    -0.016 A 
ATOM     10  C   LIG    1       24.847 -20.300   6.233  0.00  0.00    +0.006 A 
ATOM     11  C   LIG    1       23.781 -20.962   6.854  0.00  0.00    +0.000 A 
ATOM     12  C   LIG    1       22.606 -21.212   6.155  0.00  0.00    +0.000 A 
ATOM     13  C   LIG    1       22.512 -20.834   4.819  0.00  0.00    +0.000 A 
ATOM     14  C   LIG    1       23.591 -20.201   4.187  0.00  0.00    +0.006 A 
ENDBRANCH   1   9
BRANCH   1  15
ATOM     15  O   LIG    1       26.566 -19.859   3.189  0.00  0.00    -0.384 OA
ATOM     16  H   LIG    1       27.487 -19.569   3.121  0.00  0.00    +0.211 HD
ENDBRANCH   1  15
BRANCH   1  17
ATOM     17  C   LIG    1       25.389 -17.799   3.540  0.00  0.00    +0.055 C 
BRANCH  17  18
ATOM     18  C   LIG    1       26.444 -16.705   3.243  0.00  0.00    +0.087 C 
BRANCH  18  19
ATOM     19  N   LIG    1       25.833 -15.400   2.895  0.00  0.00    -0.302 NA
ATOM     20  C   LIG    1       25.085 -14.808   4.022  0.00  0.00    +0.084 C 
ATOM     21  C   LIG    1       25.980 -14.328   5.168  0.00  0.00    +0.015 C 
ATOM     22  C   LIG    1       27.072 -13.381   4.671  0.00  0.00    +0.002 C 
ATOM     23  C   LIG    1       27.790 -13.935   3.443  0.00  0.00    +0.015 C 
ATOM     24  C   LIG    1       26.791 -14.407   2.385  0.00  0.00    +0.084 C 
ENDBRANCH  18  19
ENDBRANCH  17  18
ENDBRANCH   1  17
TORSDOF 6
ENDMDL
MODEL 6
REMARK VINA RESULT:      -1.3      1.721      5.363
REMARK  Name = *****
REMARK                            x       y       z     vdW  Elec       q    Type
REMARK                         _______ _______ _______ _____ _____    ______ ____
ROOT
ATOM      1  C   LIG    1       26.009 -18.703   4.389  0.00  0.00    +0.095 C 
ENDROOT
BRANCH   1   2
ATOM      2  C   LIG    1       25.110 -19.804   3.724  0.00  0.00    +0.033 C 
ATOM      3  C   LIG    1       24.474 -20.877   4.668  0.00  0.00    +0.018 C 
ATOM      4  C   LIG    1       23.529 -21.572   3.675  0.00  0.00    +0.015 C 
ATOM      5  C   LIG    1       22.735 -20.294   3.389  0.00  0.00    +0.012 C 
ATOM      6  C   LIG    1       22.371 -19.932   4.806  0.00  0.00    -0.027 C 
ATOM      7  C   LIG    1       23.421 -20.286   5.578  0.00  0.00    -0.027 C 
ATOM      8  C   LIG    1       23.842 -19.316   2.931  0.00  0.00    +0.015 C 
ENDBRANCH   1   2
BRANCH   1   9
ATOM      9  C   LIG    1       27.111 -19.385   5.238  0.00  0.00    -0.016 A 
ATOM     10  C   LIG    1       28.450 -18.955   5.194  0.00  0.00    +0.006 A 
ATOM     11  C   LIG    1       29.431 -19.528   6.012  0.00  0.00    +0.000 A 
ATOM     12  C   LIG    1       29.094 -20.527   6.917  0.00  0.00    +0.000 A 
ATOM     13  C   LIG    1       27.781 -20.982   6.977  0.00  0.00    +0.000 A 
ATOM     14  C   LIG    1       26.804 -20.430   6.135  0.00  0.00    +0.006 A 
ENDBRANCH   1   9
BRANCH   1  15
ATOM     15  O   LIG    1       25.167 -17.870   5.188  0.00  0.00    -0.384 OA
ATOM     16  H   LIG    1       24.898 -18.369   5.974  0.00  0.00    +0.211 HD
ENDBRANCH   1  15
BRANCH   1  17
ATOM     17  C   LIG    1       26.631 -17.784   3.290  0.00  0.00    +0.055 C 
BRANCH  17  18
ATOM     18  C   LIG    1       27.221 -16.441   3.785  0.00  0.00    +0.087 C 
BRANCH  18  19
ATOM     19  N   LIG    1       26.798 -15.288   2.954  0.00  0.00    -0.302 NA
ATOM     20  C   LIG    1       25.356 -15.004   3.075  0.00  0.00    +0.084 C 
ATOM     21  C   LIG    1       24.954 -14.442   4.442  0.00  0.00    +0.015 C 
ATOM     22  C   LIG    1       25.792 -13.220   4.817  0.00  0.00    +0.002 C 
ATOM     23  C   LIG    1       27.283 -13.466   4.602  0.00  0.00    +0.015 C 
ATOM     24  C   LIG    1       27.552 -14.053   3.216  0.00  0.00    +0.084 C 
ENDBRANCH  18  19
ENDBRANCH  17  18
ENDBRANCH   1  17
TORSDOF 6
ENDMDL
MODEL 7
REMARK VINA RESULT:      -0.8      2.019      4.507
REMARK  Name = *****
REMARK                            x       y       z     vdW  Elec       q    Type
REMARK                         _______ _______ _______ _____ _____    ______ ____
ROOT
ATOM      1  C   LIG    1       25.584 -15.688   3.895  0.00  0.00    +0.095 C 
ENDROOT
BRANCH   1   2
ATOM      2  C   LIG    1       25.338 -14.608   2.784  0.00  0.00    +0.033 C 
ATOM      3  C   LIG    1       24.066 -13.708   2.928  0.00  0.00    +0.018 C 
ATOM      4  C   LIG    1       24.340 -12.688   1.812  0.00  0.00    +0.015 C 
ATOM      5  C   LIG    1       25.647 -12.203   2.445  0.00  0.00    +0.012 C 
ATOM      6  C   LIG    1       25.121 -11.853   3.813  0.00  0.00    -0.027 C 
ATOM      7  C   LIG    1       24.164 -12.762   4.103  0.00  0.00    -0.027 C 
ATOM      8  C   LIG    1       26.453 -13.517   2.580  0.00  0.00    +0.015 C 
ENDBRANCH   1   2
BRANCH   1   9
ATOM      9  C   LIG    1       24.324 -16.578   4.034  0.00  0.00    -0.016 A 
ATOM     10  C   LIG    1       24.338 -17.940   3.683  0.00  0.00    +0.006 A 
ATOM     11  C   LIG    1       23.218 -18.758   3.871  0.00  0.00    +0.000 A 
ATOM     12  C   LIG    1       22.061 -18.242   4.445  0.00  0.00    +0.000 A 
ATOM     13  C   LIG    1       22.012 -16.897   4.794  0.00  0.00    +0.000 A 
ATOM     14  C   LIG    1       23.123 -16.070   4.575  0.00  0.00    +0.006 A 
ENDBRANCH   1   9
BRANCH   1  15
ATOM     15  O   LIG    1       25.884 -15.005   5.115  0.00  0.00    -0.384 OA
ATOM     16  H   LIG    1       25.302 -15.346   5.809  0.00  0.00    +0.211 HD
ENDBRANCH   1  15
BRANCH   1  17
ATOM     17  C   LIG    1       26.842 -16.542   3.542  0.00  0.00    +0.055 C 
BRANCH  17  18
ATOM     18  C   LIG    1       27.681 -17.042   4.744  0.00  0.00    +0.087 C 
BRANCH  18  19
ATOM     19  N   LIG    1       28.368 -18.326   4.469  0.00  0.00    -0.302 NA
ATOM     20  C   LIG    1       29.475 -18.587   5.409  0.00  0.00    +0.084 C 
ATOM     21  C   LIG    1       29.009 -18.895   6.835  0.00  0.00    +0.015 C 
ATOM     22  C   LIG    1       27.984 -20.028   6.859  0.00  0.00    +0.002 C 
ATOM     23  C   LIG    1       26.883 -19.822   5.822  0.00  0.00    +0.015 C 
ATOM     24  C   LIG    1       27.473 -19.493   4.450  0.00  0.00    +0.084 C 
ENDBRANCH  18  19
ENDBRANCH  17  18
ENDBRANCH   1  17
TORSDOF 6
ENDMDL
