MODEL 1
REMARK VINA RESULT:      16.6      0.000      0.000
REMARK  Name = *****
REMARK                            x       y       z     vdW  Elec       q    Type
REMARK                         _______ _______ _______ _____ _____    ______ ____
ROOT
ATOM      1  C   LIG    1       27.310 -18.351   5.431  0.00  0.00    +0.108 C 
ATOM      2  C   LIG    1       26.604 -17.421   4.414  0.00  0.00    +0.042 C 
ATOM      3  C   LIG    1       25.538 -18.095   3.549  0.00  0.00    +0.109 C 
ATOM      4  C   LIG    1       24.849 -17.144   2.579  0.00  0.00    +0.153 C 
ATOM      5  C   LIG    1       25.284 -15.710   2.561  0.00  0.00    +0.045 C 
ATOM      6  C   LIG    1       25.438 -15.126   3.992  0.00  0.00    +0.013 C 
ATOM      7  C   LIG    1       24.052 -14.610   4.449  0.00  0.00    +0.015 C 
ATOM      8  C   LIG    1       26.518 -14.006   4.053  0.00  0.00    +0.120 C 
ATOM      9  O   LIG    1       27.728 -14.423   3.390  0.00  0.00    -0.458 OA
ATOM     10  C   LIG    1       28.372 -13.339   2.866  0.00  0.00    +0.308 C 
ATOM     11  O   LIG    1       29.475 -13.380   2.353  0.00  0.00    -0.251 OA
ATOM     12  C   LIG    1       27.541 -12.108   3.068  0.00  0.00    +0.124 C 
ATOM     13  C   LIG    1       26.181 -12.687   3.388  0.00  0.00    +0.060 C 
ATOM     14  C   LIG    1       26.834 -13.902   5.546  0.00  0.00    +0.049 C 
ATOM     15  C   LIG    1       26.909 -15.362   5.985  0.00  0.00    +0.008 C 
ATOM     16  O   LIG    1       25.858 -18.054   2.143  0.00  0.00    -0.363 OA
ATOM     17  C   LIG    1       24.846 -19.402   4.004  0.00  0.00    +0.021 C 
ATOM     18  C   LIG    1       24.838 -20.444   2.855  0.00  0.00    +0.019 C 
ATOM     19  C   LIG    1       25.570 -20.055   5.179  0.00  0.00    -0.057 C 
ATOM     20  C   LIG    1       24.948 -20.723   6.166  0.00  0.00    +0.046 C 
ATOM     21  C   LIG    1       23.476 -20.899   6.174  0.00  0.00    +0.156 C 
ATOM     22  O   LIG    1       22.955 -21.571   7.061  0.00  0.00    -0.293 OA
ATOM     23  C   LIG    1       22.669 -20.285   5.058  0.00  0.00    +0.080 C 
ATOM     24  C   LIG    1       23.386 -19.092   4.433  0.00  0.00    +0.022 C 
ATOM     25  C   LIG    1       25.959 -16.161   5.062  0.00  0.00    +0.006 C 
ATOM     26  C   LIG    1       27.058 -19.835   5.195  0.00  0.00    +0.046 C 
ENDROOT
BRANCH   1  27
ATOM     27  C   LIG    1       28.813 -18.114   5.492  0.00  0.00    +0.311 C 
ATOM     28  O   LIG    1       29.470 -17.736   4.530  0.00  0.00    -0.251 OA
BRANCH  27  30
ATOM     29  C   LIG    1       29.453 -19.778   7.018  0.00  0.00    +0.280 C 
ATOM     30  O   LIG    1       29.324 -18.388   6.719  0.00  0.00    -0.468 OA
ENDBRANCH  27  30
ENDBRANCH   1  27
TORSDOF 2
ENDMDL
MODEL 2
REMARK VINA RESULT:      16.7      1.974      6.574
REMARK  Name = *****
REMARK                            x       y       z     vdW  Elec       q    Type
REMARK                         _______ _______ _______ _____ _____    ______ ____
ROOT
ATOM      1  C   LIG    1       26.255 -16.586   4.165  0.00  0.00    +0.108 C 
ATOM      2  C   LIG    1       24.768 -16.780   4.551  0.00  0.00    +0.042 C 
ATOM      3  C   LIG    1       24.062 -15.523   5.062  0.00  0.00    +0.109 C 
ATOM      4  C   LIG    1       22.595 -15.748   5.408  0.00  0.00    +0.153 C 
ATOM      5  C   LIG    1       22.027 -17.123   5.235  0.00  0.00    +0.045 C 
ATOM      6  C   LIG    1       22.447 -17.766   3.885  0.00  0.00    +0.013 C 
ATOM      7  C   LIG    1       21.439 -17.308   2.803  0.00  0.00    +0.015 C 
ATOM      8  C   LIG    1       22.526 -19.319   3.977  0.00  0.00    +0.120 C 
ATOM      9  O   LIG    1       23.264 -19.726   5.146  0.00  0.00    -0.458 OA
ATOM     10  C   LIG    1       22.806 -20.933   5.591  0.00  0.00    +0.308 C 
ATOM     11  O   LIG    1       23.320 -21.572   6.491  0.00  0.00    -0.251 OA
ATOM     12  C   LIG    1       21.623 -21.360   4.775  0.00  0.00    +0.124 C 
ATOM     13  C   LIG    1       21.216 -20.070   4.100  0.00  0.00    +0.060 C 
ATOM     14  C   LIG    1       23.366 -19.702   2.757  0.00  0.00    +0.049 C 
ATOM     15  C   LIG    1       24.481 -18.659   2.766  0.00  0.00    +0.008 C 
ATOM     16  O   LIG    1       23.596 -15.664   6.421  0.00  0.00    -0.363 OA
ATOM     17  C   LIG    1       24.587 -14.111   4.715  0.00  0.00    +0.021 C 
ATOM     18  C   LIG    1       24.666 -13.229   5.989  0.00  0.00    +0.019 C 
ATOM     19  C   LIG    1       25.996 -14.152   4.128  0.00  0.00    -0.057 C 
ATOM     20  C   LIG    1       26.438 -13.310   3.178  0.00  0.00    +0.046 C 
ATOM     21  C   LIG    1       25.574 -12.236   2.632  0.00  0.00    +0.156 C 
ATOM     22  O   LIG    1       26.038 -11.448   1.812  0.00  0.00    -0.293 OA
ATOM     23  C   LIG    1       24.161 -12.116   3.145  0.00  0.00    +0.080 C 
ATOM     24  C   LIG    1       23.640 -13.446   3.681  0.00  0.00    +0.022 C 
ATOM     25  C   LIG    1       23.899 -17.378   3.406  0.00  0.00    +0.006 C 
ATOM     26  C   LIG    1       26.856 -15.273   4.647  0.00  0.00    +0.046 C 
ENDROOT
BRANCH   1  27
ATOM     27  C   LIG    1       27.136 -17.732   4.646  0.00  0.00    +0.311 C 
ATOM     28  O   LIG    1       26.705 -18.855   4.879  0.00  0.00    -0.251 OA
BRANCH  27  30
ATOM     29  C   LIG    1       29.233 -18.256   5.560  0.00  0.00    +0.280 C 
ATOM     30  O   LIG    1       28.429 -17.352   4.800  0.00  0.00    -0.468 OA
ENDBRANCH  27  30
ENDBRANCH   1  27
TORSDOF 2
ENDMDL
