MODEL 1
REMARK VINA RESULT:      16.6      0.000      0.000
REMARK  Name = *****
REMARK                            x       y       z     vdW  Elec       q    Type
REMARK                         _______ _______ _______ _____ _____    ______ ____
ROOT
ATOM      1  C   LIG    1       22.836 -17.002   3.498  0.00  0.00    +0.042 C 
ENDROOT
BRANCH   1   2
ATOM      2  C   LIG    1       22.673 -15.526   3.932  0.00  0.00    +0.087 C 
BRANCH   2   6
ATOM      3  C   LIG    1       26.122 -12.802   3.689  0.00  0.00    +0.093 C 
ATOM      4  C   LIG    1       26.053 -14.164   2.979  0.00  0.00    +0.044 C 
ATOM      5  C   LIG    1       24.628 -14.649   2.662  0.00  0.00    +0.059 C 
ATOM      6  N   LIG    1       23.923 -14.713   3.955  0.00  0.00    -0.296 NA
ATOM      7  C   LIG    1       23.627 -13.276   4.204  0.00  0.00    +0.059 C 
ATOM      8  C   LIG    1       23.125 -12.762   2.849  0.00  0.00    +0.020 C 
ATOM      9  C   LIG    1       23.808 -13.667   1.825  0.00  0.00    +0.020 C 
ATOM     10  C   LIG    1       24.924 -12.547   4.634  0.00  0.00    +0.044 C 
BRANCH   3  13
ATOM     11  C   LIG    1       28.610 -11.570   2.210  0.00  0.00    +0.088 C 
ATOM     12  C   LIG    1       28.504 -11.911   3.647  0.00  0.00    +0.131 A 
ATOM     13  N   LIG    1       27.437 -12.528   4.285  0.00  0.00    -0.312 N 
ATOM     14  C   LIG    1       27.923 -12.837   5.549  0.00  0.00    +0.136 A 
ATOM     15  N   LIG    1       29.117 -12.291   5.686  0.00  0.00    -0.134 NA
ATOM     16  N   LIG    1       29.474 -11.715   4.510  0.00  0.00    -0.135 NA
BRANCH  14  17
ATOM     17  C   LIG    1       27.287 -13.682   6.616  0.00  0.00    +0.051 C 
ATOM     18  C   LIG    1       27.303 -15.166   6.211  0.00  0.00    +0.015 C 
ATOM     19  C   LIG    1       25.827 -13.275   6.841  0.00  0.00    +0.015 C 
ENDBRANCH  14  17
ENDBRANCH   3  13
ENDBRANCH   2   6
ENDBRANCH   1   2
BRANCH   1  20
ATOM     20  C   LIG    1       22.688 -18.014   4.670  0.00  0.00    +0.104 C 
BRANCH  20  21
ATOM     21  C   LIG    1       21.684 -19.136   4.386  0.00  0.00    -0.027 A 
ATOM     22  C   LIG    1       21.875 -20.451   4.846  0.00  0.00    +0.005 A 
ATOM     23  C   LIG    1       20.899 -21.434   4.644  0.00  0.00    +0.000 A 
ATOM     24  C   LIG    1       19.707 -21.119   3.994  0.00  0.00    +0.000 A 
ATOM     25  C   LIG    1       19.517 -19.832   3.498  0.00  0.00    +0.000 A 
ATOM     26  C   LIG    1       20.507 -18.857   3.670  0.00  0.00    +0.005 A 
ENDBRANCH  20  21
BRANCH  20  27
ATOM     27  N   LIG    1       23.998 -18.613   4.983  0.00  0.00    -0.308 N 
ATOM     28  H   LIG    1       24.405 -18.317   5.850  0.00  0.00    +0.149 HD
ATOM     29  C   LIG    1       24.712 -19.411   4.110  0.00  0.00    +0.217 C 
ATOM     30  O   LIG    1       24.307 -19.660   2.988  0.00  0.00    -0.276 OA
BRANCH  29  31
ATOM     31  C   LIG    1       26.077 -19.983   4.600  0.00  0.00    +0.075 C 
ATOM     32  C   LIG    1       27.317 -19.104   4.345  0.00  0.00    +0.018 C 
ATOM     33  C   LIG    1       28.322 -19.061   5.491  0.00  0.00    +0.076 C 
ATOM     34  C   LIG    1       28.526 -20.427   6.095  0.00  0.00    +0.249 C 
ATOM     35  F   LIG    1       29.012 -21.258   5.136  0.00  0.00    -0.206 F 
ATOM     36  F   LIG    1       29.475 -20.358   7.061  0.00  0.00    -0.206 F 
ATOM     37  C   LIG    1       27.245 -21.011   6.668  0.00  0.00    +0.076 C 
ATOM     38  C   LIG    1       25.965 -20.392   6.084  0.00  0.00    +0.018 C 
ENDBRANCH  29  31
ENDBRANCH  20  27
ENDBRANCH   1  20
TORSDOF 8
ENDMDL
MODEL 2
REMARK VINA RESULT:      17.1      1.913      6.969
REMARK  Name = *****
REMARK                            x       y       z     vdW  Elec       q    Type
REMARK                         _______ _______ _______ _____ _____    ______ ____
ROOT
ATOM      1  C   LIG    1       26.193 -14.870   2.193  0.00  0.00    +0.042 C 
ENDROOT
BRANCH   1   2
ATOM      2  C   LIG    1       25.026 -14.463   3.123  0.00  0.00    +0.087 C 
BRANCH   2   6
ATOM      3  C   LIG    1       22.086 -17.369   4.638  0.00  0.00    +0.093 C 
ATOM      4  C   LIG    1       23.571 -17.363   5.037  0.00  0.00    +0.044 C 
ATOM      5  C   LIG    1       24.256 -15.989   4.935  0.00  0.00    +0.059 C 
ATOM      6  N   LIG    1       24.105 -15.563   3.532  0.00  0.00    -0.296 NA
ATOM      7  C   LIG    1       22.686 -15.115   3.509  0.00  0.00    +0.059 C 
ATOM      8  C   LIG    1       22.537 -14.293   4.794  0.00  0.00    +0.020 C 
ATOM      9  C   LIG    1       23.571 -14.891   5.747  0.00  0.00    +0.020 C 
ATOM     10  C   LIG    1       21.752 -16.351   3.522  0.00  0.00    +0.044 C 
BRANCH   3  13
ATOM     11  C   LIG    1       19.379 -18.078   3.204  0.00  0.00    +0.088 C 
ATOM     12  C   LIG    1       20.400 -19.028   3.703  0.00  0.00    +0.131 A 
ATOM     13  N   LIG    1       21.556 -18.720   4.407  0.00  0.00    -0.312 N 
ATOM     14  C   LIG    1       22.031 -19.950   4.844  0.00  0.00    +0.136 A 
ATOM     15  N   LIG    1       21.302 -20.902   4.294  0.00  0.00    -0.134 NA
ATOM     16  N   LIG    1       20.295 -20.331   3.585  0.00  0.00    -0.135 NA
BRANCH  14  17
ATOM     17  C   LIG    1       23.143 -20.232   5.813  0.00  0.00    +0.051 C 
ATOM     18  C   LIG    1       24.255 -21.052   5.135  0.00  0.00    +0.015 C 
ATOM     19  C   LIG    1       22.636 -21.036   7.015  0.00  0.00    +0.015 C 
ENDBRANCH  14  17
ENDBRANCH   3  13
ENDBRANCH   2   6
ENDBRANCH   1   2
BRANCH   1  20
ATOM     20  C   LIG    1       27.591 -14.752   2.864  0.00  0.00    +0.104 C 
BRANCH  20  21
ATOM     21  C   LIG    1       27.662 -13.664   3.941  0.00  0.00    -0.027 A 
ATOM     22  C   LIG    1       26.646 -13.486   4.897  0.00  0.00    +0.005 A 
ATOM     23  C   LIG    1       26.779 -12.539   5.921  0.00  0.00    +0.000 A 
ATOM     24  C   LIG    1       27.934 -11.767   6.019  0.00  0.00    +0.000 A 
ATOM     25  C   LIG    1       28.933 -11.904   5.059  0.00  0.00    +0.000 A 
ATOM     26  C   LIG    1       28.787 -12.825   4.016  0.00  0.00    +0.005 A 
ENDBRANCH  20  21
BRANCH  20  27
ATOM     27  N   LIG    1       27.969 -16.044   3.464  0.00  0.00    -0.308 N 
ATOM     28  H   LIG    1       28.917 -16.104   3.783  0.00  0.00    +0.149 HD
ATOM     29  C   LIG    1       27.154 -17.160   3.474  0.00  0.00    +0.217 C 
ATOM     30  O   LIG    1       26.053 -17.157   2.955  0.00  0.00    -0.276 OA
BRANCH  29  31
ATOM     31  C   LIG    1       27.696 -18.448   4.166  0.00  0.00    +0.075 C 
ATOM     32  C   LIG    1       28.524 -18.239   5.449  0.00  0.00    +0.018 C 
ATOM     33  C   LIG    1       28.244 -19.237   6.566  0.00  0.00    +0.076 C 
ATOM     34  C   LIG    1       28.103 -20.639   6.027  0.00  0.00    +0.249 C 
ATOM     35  F   LIG    1       29.269 -20.992   5.425  0.00  0.00    -0.206 F 
ATOM     36  F   LIG    1       27.925 -21.504   7.056  0.00  0.00    -0.206 F 
ATOM     37  C   LIG    1       26.960 -20.773   5.036  0.00  0.00    +0.076 C 
ATOM     38  C   LIG    1       26.536 -19.441   4.394  0.00  0.00    +0.018 C 
ENDBRANCH  29  31
ENDBRANCH  20  27
ENDBRANCH   1  20
TORSDOF 8
ENDMDL
MODEL 3
REMARK VINA RESULT:      18.1      3.147      6.041
REMARK  Name = *****
REMARK                            x       y       z     vdW  Elec       q    Type
REMARK                         _______ _______ _______ _____ _____    ______ ____
ROOT
ATOM      1  C   LIG    1       21.623 -18.143   3.332  0.00  0.00    +0.042 C 
ENDROOT
BRANCH   1   2
ATOM      2  C   LIG    1       22.539 -19.288   2.839  0.00  0.00    +0.087 C 
BRANCH   2   6
ATOM      3  C   LIG    1       26.717 -19.706   4.160  0.00  0.00    +0.093 C 
ATOM      4  C   LIG    1       25.508 -20.203   4.969  0.00  0.00    +0.044 C 
ATOM      5  C   LIG    1       24.267 -20.539   4.124  0.00  0.00    +0.059 C 
ATOM      6  N   LIG    1       23.921 -19.303   3.400  0.00  0.00    -0.296 NA
ATOM      7  C   LIG    1       24.942 -19.297   2.317  0.00  0.00    +0.059 C 
ATOM      8  C   LIG    1       24.955 -20.745   1.814  0.00  0.00    +0.020 C 
ATOM      9  C   LIG    1       24.524 -21.571   3.026  0.00  0.00    +0.020 C 
ATOM     10  C   LIG    1       26.318 -18.895   2.905  0.00  0.00    +0.044 C 
BRANCH   3  13
ATOM     11  C   LIG    1       27.925 -20.863   6.824  0.00  0.00    +0.088 C 
ATOM     12  C   LIG    1       28.331 -19.623   6.124  0.00  0.00    +0.131 A 
ATOM     13  N   LIG    1       27.747 -19.069   4.994  0.00  0.00    -0.312 N 
ATOM     14  C   LIG    1       28.327 -17.811   4.887  0.00  0.00    +0.136 A 
ATOM     15  N   LIG    1       29.291 -17.715   5.783  0.00  0.00    -0.134 NA
ATOM     16  N   LIG    1       29.296 -18.837   6.546  0.00  0.00    -0.135 NA
BRANCH  14  17
ATOM     17  C   LIG    1       27.949 -16.682   3.971  0.00  0.00    +0.051 C 
ATOM     18  C   LIG    1       28.463 -15.342   4.526  0.00  0.00    +0.015 C 
ATOM     19  C   LIG    1       26.428 -16.576   3.827  0.00  0.00    +0.015 C 
ENDBRANCH  14  17
ENDBRANCH   3  13
ENDBRANCH   2   6
ENDBRANCH   1   2
BRANCH   1  20
ATOM     20  C   LIG    1       21.757 -17.852   4.854  0.00  0.00    +0.104 C 
BRANCH  20  21
ATOM     21  C   LIG    1       22.338 -19.025   5.651  0.00  0.00    -0.027 A 
ATOM     22  C   LIG    1       21.768 -20.311   5.621  0.00  0.00    +0.005 A 
ATOM     23  C   LIG    1       22.371 -21.382   6.291  0.00  0.00    +0.000 A 
ATOM     24  C   LIG    1       23.562 -21.195   6.988  0.00  0.00    +0.000 A 
ATOM     25  C   LIG    1       24.121 -19.922   7.060  0.00  0.00    +0.000 A 
ATOM     26  C   LIG    1       23.501 -18.843   6.419  0.00  0.00    +0.005 A 
ENDBRANCH  20  21
BRANCH  20  27
ATOM     27  N   LIG    1       22.606 -16.665   5.064  0.00  0.00    -0.308 N 
ATOM     28  H   LIG    1       23.147 -16.673   5.908  0.00  0.00    +0.149 HD
ATOM     29  C   LIG    1       22.578 -15.542   4.259  0.00  0.00    +0.217 C 
ATOM     30  O   LIG    1       21.815 -15.447   3.314  0.00  0.00    -0.276 OA
BRANCH  29  31
ATOM     31  C   LIG    1       23.552 -14.376   4.606  0.00  0.00    +0.075 C 
ATOM     32  C   LIG    1       24.191 -14.413   6.008  0.00  0.00    +0.018 C 
ATOM     33  C   LIG    1       25.664 -14.022   6.055  0.00  0.00    +0.076 C 
ATOM     34  C   LIG    1       25.944 -12.831   5.173  0.00  0.00    +0.249 C 
ATOM     35  F   LIG    1       25.212 -11.777   5.619  0.00  0.00    -0.206 F 
ATOM     36  F   LIG    1       27.246 -12.473   5.296  0.00  0.00    -0.206 F 
ATOM     37  C   LIG    1       25.616 -13.094   3.713  0.00  0.00    +0.076 C 
ATOM     38  C   LIG    1       24.619 -14.245   3.498  0.00  0.00    +0.018 C 
ENDBRANCH  29  31
ENDBRANCH  20  27
ENDBRANCH   1  20
TORSDOF 8
ENDMDL
MODEL 4
REMARK VINA RESULT:      18.2      2.797      7.088
REMARK  Name = *****
REMARK                            x       y       z     vdW  Elec       q    Type
REMARK                         _______ _______ _______ _____ _____    ______ ____
ROOT
ATOM      1  C   LIG    1       25.612 -13.430   6.509  0.00  0.00    +0.042 C 
ENDROOT
BRANCH   1   2
ATOM      2  C   LIG    1       26.758 -13.888   5.576  0.00  0.00    +0.087 C 
BRANCH   2   6
ATOM      3  C   LIG    1       27.279 -18.102   4.414  0.00  0.00    +0.093 C 
ATOM      4  C   LIG    1       25.957 -17.331   4.276  0.00  0.00    +0.044 C 
ATOM      5  C   LIG    1       26.115 -15.808   4.126  0.00  0.00    +0.059 C 
ATOM      6  N   LIG    1       26.845 -15.356   5.324  0.00  0.00    -0.296 NA
ATOM      7  C   LIG    1       28.237 -15.765   4.997  0.00  0.00    +0.059 C 
ATOM      8  C   LIG    1       28.414 -15.339   3.535  0.00  0.00    +0.020 C 
ATOM      9  C   LIG    1       27.001 -15.388   2.954  0.00  0.00    +0.020 C 
ATOM     10  C   LIG    1       28.376 -17.300   5.154  0.00  0.00    +0.044 C 
BRANCH   3  13
ATOM     11  C   LIG    1       29.397 -19.801   6.001  0.00  0.00    +0.088 C 
ATOM     12  C   LIG    1       28.007 -20.191   5.669  0.00  0.00    +0.131 A 
ATOM     13  N   LIG    1       27.098 -19.477   4.900  0.00  0.00    -0.312 N 
ATOM     14  C   LIG    1       26.051 -20.366   4.690  0.00  0.00    +0.136 A 
ATOM     15  N   LIG    1       26.263 -21.445   5.419  0.00  0.00    -0.134 NA
ATOM     16  N   LIG    1       27.471 -21.335   6.027  0.00  0.00    -0.135 NA
BRANCH  14  17
ATOM     17  C   LIG    1       24.873 -20.221   3.770  0.00  0.00    +0.051 C 
ATOM     18  C   LIG    1       24.074 -21.535   3.705  0.00  0.00    +0.015 C 
ATOM     19  C   LIG    1       25.323 -19.877   2.347  0.00  0.00    +0.015 C 
ENDBRANCH  14  17
ENDBRANCH   3  13
ENDBRANCH   2   6
ENDBRANCH   1   2
BRANCH   1  20
ATOM     20  C   LIG    1       24.271 -13.174   5.764  0.00  0.00    +0.104 C 
BRANCH  20  21
ATOM     21  C   LIG    1       24.455 -12.622   4.346  0.00  0.00    -0.027 A 
ATOM     22  C   LIG    1       23.391 -12.069   3.610  0.00  0.00    +0.005 A 
ATOM     23  C   LIG    1       23.608 -11.496   2.351  0.00  0.00    +0.000 A 
ATOM     24  C   LIG    1       24.892 -11.447   1.812  0.00  0.00    +0.000 A 
ATOM     25  C   LIG    1       25.950 -12.024   2.510  0.00  0.00    +0.000 A 
ATOM     26  C   LIG    1       25.729 -12.628   3.753  0.00  0.00    +0.005 A 
ENDBRANCH  20  21
BRANCH  20  27
ATOM     27  N   LIG    1       23.491 -14.424   5.693  0.00  0.00    -0.308 N 
ATOM     28  H   LIG    1       23.354 -14.889   6.570  0.00  0.00    +0.149 HD
ATOM     29  C   LIG    1       23.088 -15.018   4.512  0.00  0.00    +0.217 C 
ATOM     30  O   LIG    1       23.377 -14.550   3.425  0.00  0.00    -0.276 OA
BRANCH  29  31
ATOM     31  C   LIG    1       22.254 -16.331   4.609  0.00  0.00    +0.075 C 
ATOM     32  C   LIG    1       21.675 -16.873   3.287  0.00  0.00    +0.018 C 
ATOM     33  C   LIG    1       21.752 -18.386   3.123  0.00  0.00    +0.076 C 
ATOM     34  C   LIG    1       21.394 -19.097   4.404  0.00  0.00    +0.249 C 
ATOM     35  F   LIG    1       20.118 -18.771   4.740  0.00  0.00    -0.206 F 
ATOM     36  F   LIG    1       21.406 -20.436   4.198  0.00  0.00    -0.206 F 
ATOM     37  C   LIG    1       22.325 -18.741   5.551  0.00  0.00    +0.076 C 
ATOM     38  C   LIG    1       23.067 -17.409   5.357  0.00  0.00    +0.018 C 
ENDBRANCH  29  31
ENDBRANCH  20  27
ENDBRANCH   1  20
TORSDOF 8
ENDMDL
