MODEL 1
REMARK VINA RESULT:      -5.6      0.000      0.000
REMARK  Name = *****
REMARK                            x       y       z     vdW  Elec       q    Type
REMARK                         _______ _______ _______ _____ _____    ______ ____
ROOT
ATOM      1  N   LIG    1       21.924 -17.886   4.412  0.00  0.00    -0.313 N 
ATOM      2  H   LIG    1       21.674 -17.398   5.260  0.00  0.00    +0.146 HD
ATOM      3  H   LIG    1       22.067 -17.286   3.607  0.00  0.00    +0.146 HD
ATOM      4  C   LIG    1       22.818 -18.911   4.470  0.00  0.00    +0.303 C 
ATOM      5  N   LIG    1       22.710 -19.656   5.614  0.00  0.00    -0.240 N 
ATOM      6  H   LIG    1       21.951 -19.442   6.240  0.00  0.00    +0.159 HD
ATOM      7  C   LIG    1       23.423 -20.770   5.997  0.00  0.00    +0.225 C 
ATOM      8  O   LIG    1       23.101 -21.312   7.057  0.00  0.00    -0.275 OA
ATOM      9  O   LIG    1       23.596 -19.097   3.550  0.00  0.00    -0.253 OA
ENDROOT
BRANCH   7  10
ATOM     10  C   LIG    1       24.547 -21.264   5.095  0.00  0.00    +0.131 C 
BRANCH  10  11
ATOM     11  C   LIG    1       25.921 -20.833   5.559  0.00  0.00    -0.039 A 
ATOM     12  C   LIG    1       26.532 -21.464   6.651  0.00  0.00    +0.004 A 
ATOM     13  C   LIG    1       27.811 -21.085   7.062  0.00  0.00    +0.000 A 
ATOM     14  C   LIG    1       28.490 -20.074   6.385  0.00  0.00    +0.000 A 
ATOM     15  C   LIG    1       27.893 -19.443   5.295  0.00  0.00    +0.000 A 
ATOM     16  C   LIG    1       26.616 -19.824   4.879  0.00  0.00    +0.004 A 
ENDBRANCH  10  11
ENDBRANCH   7  10
TORSDOF 2
ENDMDL
MODEL 2
REMARK VINA RESULT:      -5.5      6.231      8.010
REMARK  Name = *****
REMARK                            x       y       z     vdW  Elec       q    Type
REMARK                         _______ _______ _______ _____ _____    ______ ____
ROOT
ATOM      1  N   LIG    1       27.981 -17.865   4.516  0.00  0.00    -0.313 N 
ATOM      2  H   LIG    1       28.351 -17.689   5.439  0.00  0.00    +0.146 HD
ATOM      3  H   LIG    1       27.487 -18.746   4.421  0.00  0.00    +0.146 HD
ATOM      4  C   LIG    1       27.386 -16.851   3.830  0.00  0.00    +0.303 C 
ATOM      5  N   LIG    1       27.975 -15.635   4.049  0.00  0.00    -0.240 N 
ATOM      6  H   LIG    1       28.815 -15.616   4.602  0.00  0.00    +0.159 HD
ATOM      7  C   LIG    1       27.661 -14.406   3.511  0.00  0.00    +0.225 C 
ATOM      8  O   LIG    1       28.381 -13.454   3.815  0.00  0.00    -0.275 OA
ATOM      9  O   LIG    1       26.436 -17.081   3.101  0.00  0.00    -0.253 OA
ENDROOT
BRANCH   7  10
ATOM     10  C   LIG    1       26.461 -14.303   2.578  0.00  0.00    +0.131 C 
BRANCH  10  11
ATOM     11  C   LIG    1       25.418 -13.315   3.051  0.00  0.00    -0.039 A 
ATOM     12  C   LIG    1       25.043 -13.271   4.400  0.00  0.00    +0.004 A 
ATOM     13  C   LIG    1       24.101 -12.341   4.843  0.00  0.00    +0.000 A 
ATOM     14  C   LIG    1       23.526 -11.447   3.942  0.00  0.00    +0.000 A 
ATOM     15  C   LIG    1       23.896 -11.480   2.598  0.00  0.00    +0.000 A 
ATOM     16  C   LIG    1       24.841 -12.405   2.154  0.00  0.00    +0.004 A 
ENDBRANCH  10  11
ENDBRANCH   7  10
TORSDOF 2
ENDMDL
MODEL 3
REMARK VINA RESULT:      -4.9      1.276      1.829
REMARK  Name = *****
REMARK                            x       y       z     vdW  Elec       q    Type
REMARK                         _______ _______ _______ _____ _____    ______ ____
ROOT
ATOM      1  N   LIG    1       21.414 -18.409   4.062  0.00  0.00    -0.313 N 
ATOM      2  H   LIG    1       21.176 -18.611   3.102  0.00  0.00    +0.146 HD
ATOM      3  H   LIG    1       20.617 -18.283   4.677  0.00  0.00    +0.146 HD
ATOM      4  C   LIG    1       22.434 -19.089   4.655  0.00  0.00    +0.303 C 
ATOM      5  N   LIG    1       23.464 -19.368   3.798  0.00  0.00    -0.240 N 
ATOM      6  H   LIG    1       23.417 -18.982   2.870  0.00  0.00    +0.159 HD
ATOM      7  C   LIG    1       24.657 -20.011   4.051  0.00  0.00    +0.225 C 
ATOM      8  O   LIG    1       25.464 -20.091   3.123  0.00  0.00    -0.275 OA
ATOM      9  O   LIG    1       22.372 -19.374   5.839  0.00  0.00    -0.253 OA
ENDROOT
BRANCH   7  10
ATOM     10  C   LIG    1       24.904 -20.569   5.447  0.00  0.00    +0.131 C 
BRANCH  10  11
ATOM     11  C   LIG    1       26.358 -20.526   5.860  0.00  0.00    -0.039 A 
ATOM     12  C   LIG    1       26.886 -21.514   6.702  0.00  0.00    +0.004 A 
ATOM     13  C   LIG    1       28.234 -21.491   7.062  0.00  0.00    +0.000 A 
ATOM     14  C   LIG    1       29.067 -20.482   6.582  0.00  0.00    +0.000 A 
ATOM     15  C   LIG    1       28.553 -19.497   5.740  0.00  0.00    +0.000 A 
ATOM     16  C   LIG    1       27.206 -19.520   5.375  0.00  0.00    +0.004 A 
ENDBRANCH  10  11
ENDBRANCH   7  10
TORSDOF 2
ENDMDL
MODEL 4
REMARK VINA RESULT:      -4.8      3.093      4.925
REMARK  Name = *****
REMARK                            x       y       z     vdW  Elec       q    Type
REMARK                         _______ _______ _______ _____ _____    ______ ____
ROOT
ATOM      1  N   LIG    1       29.475 -18.174   5.751  0.00  0.00    -0.313 N 
ATOM      2  H   LIG    1       29.336 -17.236   6.096  0.00  0.00    +0.146 HD
ATOM      3  H   LIG    1       30.028 -18.769   6.359  0.00  0.00    +0.146 HD
ATOM      4  C   LIG    1       28.434 -18.835   5.173  0.00  0.00    +0.303 C 
ATOM      5  N   LIG    1       27.613 -18.015   4.447  0.00  0.00    -0.240 N 
ATOM      6  H   LIG    1       27.892 -17.054   4.336  0.00  0.00    +0.159 HD
ATOM      7  C   LIG    1       26.491 -18.334   3.714  0.00  0.00    +0.225 C 
ATOM      8  O   LIG    1       25.945 -17.424   3.088  0.00  0.00    -0.275 OA
ATOM      9  O   LIG    1       28.318 -20.040   5.318  0.00  0.00    -0.253 OA
ENDROOT
BRANCH   7  10
ATOM     10  C   LIG    1       26.004 -19.778   3.716  0.00  0.00    +0.131 C 
BRANCH  10  11
ATOM     11  C   LIG    1       24.916 -20.042   4.732  0.00  0.00    -0.039 A 
ATOM     12  C   LIG    1       23.587 -19.694   4.455  0.00  0.00    +0.004 A 
ATOM     13  C   LIG    1       22.577 -19.962   5.381  0.00  0.00    +0.000 A 
ATOM     14  C   LIG    1       22.886 -20.582   6.590  0.00  0.00    +0.000 A 
ATOM     15  C   LIG    1       24.204 -20.936   6.873  0.00  0.00    +0.000 A 
ATOM     16  C   LIG    1       25.215 -20.673   5.947  0.00  0.00    +0.004 A 
ENDBRANCH  10  11
ENDBRANCH   7  10
TORSDOF 2
ENDMDL
MODEL 5
REMARK VINA RESULT:      -4.7      2.960      5.151
REMARK  Name = *****
REMARK                            x       y       z     vdW  Elec       q    Type
REMARK                         _______ _______ _______ _____ _____    ______ ____
ROOT
ATOM      1  N   LIG    1       29.465 -20.485   6.913  0.00  0.00    -0.313 N 
ATOM      2  H   LIG    1       29.611 -21.397   7.320  0.00  0.00    +0.146 HD
ATOM      3  H   LIG    1       30.301 -20.057   6.528  0.00  0.00    +0.146 HD
ATOM      4  C   LIG    1       28.361 -20.262   6.148  0.00  0.00    +0.303 C 
ATOM      5  N   LIG    1       27.254 -20.934   6.593  0.00  0.00    -0.240 N 
ATOM      6  H   LIG    1       27.332 -21.437   7.461  0.00  0.00    +0.159 HD
ATOM      7  C   LIG    1       25.972 -20.928   6.090  0.00  0.00    +0.225 C 
ATOM      8  O   LIG    1       25.119 -21.572   6.705  0.00  0.00    -0.275 OA
ATOM      9  O   LIG    1       28.423 -19.515   5.186  0.00  0.00    -0.253 OA
ENDROOT
BRANCH   7  10
ATOM     10  C   LIG    1       25.687 -20.128   4.825  0.00  0.00    +0.131 C 
BRANCH  10  11
ATOM     11  C   LIG    1       24.222 -19.799   4.641  0.00  0.00    -0.039 A 
ATOM     12  C   LIG    1       23.835 -18.558   4.119  0.00  0.00    +0.004 A 
ATOM     13  C   LIG    1       22.485 -18.263   3.922  0.00  0.00    +0.000 A 
ATOM     14  C   LIG    1       21.511 -19.206   4.245  0.00  0.00    +0.000 A 
ATOM     15  C   LIG    1       21.886 -20.445   4.761  0.00  0.00    +0.000 A 
ATOM     16  C   LIG    1       23.236 -20.744   4.953  0.00  0.00    +0.004 A 
ENDBRANCH  10  11
ENDBRANCH   7  10
TORSDOF 2
ENDMDL
MODEL 6
REMARK VINA RESULT:      -4.6      3.115      4.429
REMARK  Name = *****
REMARK                            x       y       z     vdW  Elec       q    Type
REMARK                         _______ _______ _______ _____ _____    ______ ____
ROOT
ATOM      1  N   LIG    1       27.582 -15.593   3.687  0.00  0.00    -0.313 N 
ATOM      2  H   LIG    1       28.585 -15.482   3.704  0.00  0.00    +0.146 HD
ATOM      3  H   LIG    1       27.099 -14.966   3.052  0.00  0.00    +0.146 HD
ATOM      4  C   LIG    1       27.048 -16.846   3.696  0.00  0.00    +0.303 C 
ATOM      5  N   LIG    1       27.765 -17.730   4.457  0.00  0.00    -0.240 N 
ATOM      6  H   LIG    1       28.537 -17.368   4.991  0.00  0.00    +0.159 HD
ATOM      7  C   LIG    1       27.512 -19.060   4.715  0.00  0.00    +0.225 C 
ATOM      8  O   LIG    1       28.275 -19.641   5.489  0.00  0.00    -0.275 OA
ATOM      9  O   LIG    1       26.023 -17.079   3.078  0.00  0.00    -0.253 OA
ENDROOT
BRANCH   7  10
ATOM     10  C   LIG    1       26.315 -19.720   4.044  0.00  0.00    +0.131 C 
BRANCH  10  11
ATOM     11  C   LIG    1       25.207 -20.076   5.010  0.00  0.00    -0.039 A 
ATOM     12  C   LIG    1       23.879 -19.732   4.724  0.00  0.00    +0.004 A 
ATOM     13  C   LIG    1       22.852 -20.084   5.601  0.00  0.00    +0.000 A 
ATOM     14  C   LIG    1       23.143 -20.785   6.770  0.00  0.00    +0.000 A 
ATOM     15  C   LIG    1       24.460 -21.135   7.061  0.00  0.00    +0.000 A 
ATOM     16  C   LIG    1       25.487 -20.789   6.183  0.00  0.00    +0.004 A 
ENDBRANCH  10  11
ENDBRANCH   7  10
TORSDOF 2
ENDMDL
MODEL 7
REMARK VINA RESULT:      -4.4      3.554      4.939
REMARK  Name = *****
REMARK                            x       y       z     vdW  Elec       q    Type
REMARK                         _______ _______ _______ _____ _____    ______ ____
ROOT
ATOM      1  N   LIG    1       27.950 -14.662   3.825  0.00  0.00    -0.313 N 
ATOM      2  H   LIG    1       28.943 -14.834   3.878  0.00  0.00    +0.146 HD
ATOM      3  H   LIG    1       27.696 -13.798   3.358  0.00  0.00    +0.146 HD
ATOM      4  C   LIG    1       27.108 -15.689   3.523  0.00  0.00    +0.303 C 
ATOM      5  N   LIG    1       27.510 -16.886   4.052  0.00  0.00    -0.240 N 
ATOM      6  H   LIG    1       28.308 -16.882   4.665  0.00  0.00    +0.159 HD
ATOM      7  C   LIG    1       26.901 -18.120   3.975  0.00  0.00    +0.225 C 
ATOM      8  O   LIG    1       27.426 -19.050   4.590  0.00  0.00    -0.275 OA
ATOM      9  O   LIG    1       26.108 -15.485   2.857  0.00  0.00    -0.253 OA
ENDROOT
BRANCH   7  10
ATOM     10  C   LIG    1       25.627 -18.255   3.151  0.00  0.00    +0.131 C 
BRANCH  10  11
ATOM     11  C   LIG    1       24.543 -19.047   3.849  0.00  0.00    -0.039 A 
ATOM     12  C   LIG    1       24.793 -20.353   4.292  0.00  0.00    +0.004 A 
ATOM     13  C   LIG    1       23.804 -21.075   4.961  0.00  0.00    +0.000 A 
ATOM     14  C   LIG    1       22.557 -20.498   5.193  0.00  0.00    +0.000 A 
ATOM     15  C   LIG    1       22.299 -19.198   4.760  0.00  0.00    +0.000 A 
ATOM     16  C   LIG    1       23.289 -18.473   4.096  0.00  0.00    +0.004 A 
ENDBRANCH  10  11
ENDBRANCH   7  10
TORSDOF 2
ENDMDL
MODEL 8
REMARK VINA RESULT:      -4.4      1.458      2.736
REMARK  Name = *****
REMARK                            x       y       z     vdW  Elec       q    Type
REMARK                         _______ _______ _______ _____ _____    ______ ____
ROOT
ATOM      1  N   LIG    1       21.864 -17.898   4.617  0.00  0.00    -0.313 N 
ATOM      2  H   LIG    1       21.588 -17.158   3.987  0.00  0.00    +0.146 HD
ATOM      3  H   LIG    1       21.101 -18.484   4.937  0.00  0.00    +0.146 HD
ATOM      4  C   LIG    1       22.999 -18.605   4.362  0.00  0.00    +0.303 C 
ATOM      5  N   LIG    1       23.996 -17.842   3.815  0.00  0.00    -0.240 N 
ATOM      6  H   LIG    1       23.838 -16.852   3.739  0.00  0.00    +0.159 HD
ATOM      7  C   LIG    1       25.274 -18.209   3.455  0.00  0.00    +0.225 C 
ATOM      8  O   LIG    1       26.021 -17.323   3.035  0.00  0.00    -0.275 OA
ATOM      9  O   LIG    1       23.054 -19.792   4.633  0.00  0.00    -0.253 OA
ENDROOT
BRANCH   7  10
ATOM     10  C   LIG    1       25.684 -19.669   3.604  0.00  0.00    +0.131 C 
BRANCH  10  11
ATOM     11  C   LIG    1       26.564 -19.925   4.808  0.00  0.00    -0.039 A 
ATOM     12  C   LIG    1       27.850 -19.371   4.876  0.00  0.00    +0.004 A 
ATOM     13  C   LIG    1       28.653 -19.583   5.998  0.00  0.00    +0.000 A 
ATOM     14  C   LIG    1       28.177 -20.348   7.062  0.00  0.00    +0.000 A 
ATOM     15  C   LIG    1       26.898 -20.899   7.005  0.00  0.00    +0.000 A 
ATOM     16  C   LIG    1       26.092 -20.684   5.886  0.00  0.00    +0.004 A 
ENDBRANCH  10  11
ENDBRANCH   7  10
TORSDOF 2
ENDMDL
MODEL 9
REMARK VINA RESULT:      -4.3      6.131      7.112
REMARK  Name = *****
REMARK                            x       y       z     vdW  Elec       q    Type
REMARK                         _______ _______ _______ _____ _____    ______ ____
ROOT
ATOM      1  N   LIG    1       23.663 -11.452   1.845  0.00  0.00    -0.313 N 
ATOM      2  H   LIG    1       23.121 -10.901   2.495  0.00  0.00    +0.146 HD
ATOM      3  H   LIG    1       24.210 -10.909   1.186  0.00  0.00    +0.146 HD
ATOM      4  C   LIG    1       24.322 -12.556   2.292  0.00  0.00    +0.303 C 
ATOM      5  N   LIG    1       23.641 -13.229   3.271  0.00  0.00    -0.240 N 
ATOM      6  H   LIG    1       22.714 -12.912   3.497  0.00  0.00    +0.159 HD
ATOM      7  C   LIG    1       23.986 -14.389   3.930  0.00  0.00    +0.225 C 
ATOM      8  O   LIG    1       23.174 -14.844   4.738  0.00  0.00    -0.275 OA
ATOM      9  O   LIG    1       25.401 -12.861   1.812  0.00  0.00    -0.253 OA
ENDROOT
BRANCH   7  10
ATOM     10  C   LIG    1       25.330 -15.034   3.619  0.00  0.00    +0.131 C 
BRANCH  10  11
ATOM     11  C   LIG    1       26.512 -14.194   4.048  0.00  0.00    -0.039 A 
ATOM     12  C   LIG    1       27.650 -14.103   3.235  0.00  0.00    +0.004 A 
ATOM     13  C   LIG    1       28.731 -13.306   3.617  0.00  0.00    +0.000 A 
ATOM     14  C   LIG    1       28.682 -12.592   4.813  0.00  0.00    +0.000 A 
ATOM     15  C   LIG    1       27.553 -12.673   5.626  0.00  0.00    +0.000 A 
ATOM     16  C   LIG    1       26.470 -13.465   5.244  0.00  0.00    +0.004 A 
ENDBRANCH  10  11
ENDBRANCH   7  10
TORSDOF 2
ENDMDL
