MODEL 1
REMARK VINA RESULT:      -6.0      0.000      0.000
REMARK  Name = *****
REMARK                            x       y       z     vdW  Elec       q    Type
REMARK                         _______ _______ _______ _____ _____    ______ ____
ROOT
ATOM      1  C   LIG    1       23.609 -15.664   4.282  0.00  0.00    -0.033 A 
ATOM      2  C   LIG    1       22.447 -16.291   4.752  0.00  0.00    +0.008 A 
ATOM      3  C   LIG    1       22.288 -17.679   4.665  0.00  0.00    +0.046 A 
ATOM      4  C   LIG    1       23.274 -18.469   4.074  0.00  0.00    +0.121 A 
ATOM      5  C   LIG    1       24.445 -17.858   3.621  0.00  0.00    +0.046 A 
ATOM      6  C   LIG    1       24.615 -16.468   3.727  0.00  0.00    +0.008 A 
ENDROOT
BRANCH   1   7
ATOM      7  C   LIG    1       23.764 -14.162   4.416  0.00  0.00    +0.117 C 
BRANCH   7   8
ATOM      8  N   LIG    1       24.573 -13.509   3.375  0.00  0.00    -0.302 NA
ATOM      9  H   LIG    1       24.057 -12.686   3.063  0.00  0.00    +0.123 HD
BRANCH   8  11
ATOM     10  C   LIG    1       26.308 -13.433   5.247  0.00  0.00    +0.033 C 
ATOM     11  C   LIG    1       25.918 -13.052   3.818  0.00  0.00    +0.137 C 
BRANCH  11  12
ATOM     12  C   LIG    1       27.023 -13.637   2.905  0.00  0.00    +0.227 C 
ATOM     13  O   LIG    1       26.780 -14.260   1.883  0.00  0.00    -0.274 OA
ATOM     14  N   LIG    1       28.317 -13.335   3.227  0.00  0.00    -0.328 N 
ATOM     15  H   LIG    1       29.033 -13.709   2.619  0.00  0.00    +0.145 HD
ATOM     16  H   LIG    1       28.547 -13.123   4.188  0.00  0.00    +0.145 HD
ENDBRANCH  11  12
ENDBRANCH   8  11
ENDBRANCH   7   8
ENDBRANCH   1   7
BRANCH   4  17
ATOM     17  O   LIG    1       23.196 -19.832   3.923  0.00  0.00    -0.487 OA
BRANCH  17  18
ATOM     18  C   LIG    1       24.430 -20.463   3.569  0.00  0.00    +0.264 C 
BRANCH  18  19
ATOM     19  C   LIG    1       25.316 -20.617   4.782  0.00  0.00    -0.008 A 
ATOM     20  C   LIG    1       26.612 -20.083   4.782  0.00  0.00    +0.045 A 
ATOM     21  C   LIG    1       27.415 -20.202   5.911  0.00  0.00    +0.124 A 
ATOM     22  F   LIG    1       28.647 -19.675   5.903  0.00  0.00    -0.205 F 
ATOM     23  C   LIG    1       26.956 -20.850   7.050  0.00  0.00    +0.038 A 
ATOM     24  C   LIG    1       25.671 -21.388   7.062  0.00  0.00    +0.003 A 
ATOM     25  C   LIG    1       24.855 -21.275   5.932  0.00  0.00    +0.007 A 
ENDBRANCH  18  19
ENDBRANCH  17  18
ENDBRANCH   4  17
TORSDOF 7
ENDMDL
MODEL 2
REMARK VINA RESULT:      -4.8      3.139      6.582
REMARK  Name = *****
REMARK                            x       y       z     vdW  Elec       q    Type
REMARK                         _______ _______ _______ _____ _____    ______ ____
ROOT
ATOM      1  C   LIG    1       22.780 -18.449   4.689  0.00  0.00    -0.033 A 
ATOM      2  C   LIG    1       23.928 -18.098   3.965  0.00  0.00    +0.008 A 
ATOM      3  C   LIG    1       24.218 -16.761   3.672  0.00  0.00    +0.046 A 
ATOM      4  C   LIG    1       23.349 -15.745   4.068  0.00  0.00    +0.121 A 
ATOM      5  C   LIG    1       22.213 -16.079   4.808  0.00  0.00    +0.046 A 
ATOM      6  C   LIG    1       21.931 -17.419   5.121  0.00  0.00    +0.008 A 
ENDROOT
BRANCH   1   7
ATOM      7  C   LIG    1       22.508 -19.904   5.016  0.00  0.00    +0.117 C 
BRANCH   7   8
ATOM      8  N   LIG    1       23.361 -20.494   6.060  0.00  0.00    -0.302 NA
ATOM      9  H   LIG    1       22.773 -21.116   6.615  0.00  0.00    +0.123 HD
BRANCH   8  11
ATOM     10  C   LIG    1       24.541 -21.524   4.042  0.00  0.00    +0.033 C 
ATOM     11  C   LIG    1       24.508 -21.295   5.555  0.00  0.00    +0.137 C 
BRANCH  11  12
ATOM     12  C   LIG    1       25.852 -20.614   5.911  0.00  0.00    +0.227 C 
ATOM     13  O   LIG    1       26.211 -20.415   7.062  0.00  0.00    -0.274 OA
ATOM     14  N   LIG    1       26.697 -20.329   4.875  0.00  0.00    -0.328 N 
ATOM     15  H   LIG    1       27.578 -19.896   5.116  0.00  0.00    +0.145 HD
ATOM     16  H   LIG    1       26.311 -20.182   3.952  0.00  0.00    +0.145 HD
ENDBRANCH  11  12
ENDBRANCH   8  11
ENDBRANCH   7   8
ENDBRANCH   1   7
BRANCH   4  17
ATOM     17  O   LIG    1       23.537 -14.410   3.805  0.00  0.00    -0.487 OA
BRANCH  17  18
ATOM     18  C   LIG    1       24.293 -13.709   4.798  0.00  0.00    +0.264 C 
BRANCH  18  19
ATOM     19  C   LIG    1       25.740 -13.594   4.383  0.00  0.00    -0.008 A 
ATOM     20  C   LIG    1       26.665 -12.953   5.219  0.00  0.00    +0.045 A 
ATOM     21  C   LIG    1       28.003 -12.874   4.847  0.00  0.00    +0.124 A 
ATOM     22  F   LIG    1       28.879 -12.270   5.661  0.00  0.00    -0.205 F 
ATOM     23  C   LIG    1       28.446 -13.419   3.649  0.00  0.00    +0.038 A 
ATOM     24  C   LIG    1       27.535 -14.057   2.808  0.00  0.00    +0.003 A 
ATOM     25  C   LIG    1       26.188 -14.141   3.172  0.00  0.00    +0.007 A 
ENDBRANCH  18  19
ENDBRANCH  17  18
ENDBRANCH   4  17
TORSDOF 7
ENDMDL
MODEL 3
REMARK VINA RESULT:      -4.2      1.278      1.732
REMARK  Name = *****
REMARK                            x       y       z     vdW  Elec       q    Type
REMARK                         _______ _______ _______ _____ _____    ______ ____
ROOT
ATOM      1  C   LIG    1       23.227 -16.232   4.089  0.00  0.00    -0.033 A 
ATOM      2  C   LIG    1       24.335 -16.988   3.682  0.00  0.00    +0.008 A 
ATOM      3  C   LIG    1       24.298 -18.387   3.686  0.00  0.00    +0.046 A 
ATOM      4  C   LIG    1       23.163 -19.063   4.131  0.00  0.00    +0.121 A 
ATOM      5  C   LIG    1       22.045 -18.322   4.519  0.00  0.00    +0.046 A 
ATOM      6  C   LIG    1       22.073 -16.918   4.495  0.00  0.00    +0.008 A 
ENDROOT
BRANCH   1   7
ATOM      7  C   LIG    1       23.287 -14.718   4.045  0.00  0.00    +0.117 C 
BRANCH   7   8
ATOM      8  N   LIG    1       24.306 -14.096   4.905  0.00  0.00    -0.302 NA
ATOM      9  H   LIG    1       24.918 -14.842   5.238  0.00  0.00    +0.123 HD
BRANCH   8  11
ATOM     10  C   LIG    1       26.659 -13.402   4.195  0.00  0.00    +0.033 C 
ATOM     11  C   LIG    1       25.163 -13.083   4.232  0.00  0.00    +0.137 C 
BRANCH  11  12
ATOM     12  C   LIG    1       24.732 -12.894   2.757  0.00  0.00    +0.227 C 
ATOM     13  O   LIG    1       25.070 -13.654   1.863  0.00  0.00    -0.274 OA
ATOM     14  N   LIG    1       23.849 -11.884   2.495  0.00  0.00    -0.328 N 
ATOM     15  H   LIG    1       23.561 -11.774   1.532  0.00  0.00    +0.145 HD
ATOM     16  H   LIG    1       23.819 -11.084   3.113  0.00  0.00    +0.145 HD
ENDBRANCH  11  12
ENDBRANCH   8  11
ENDBRANCH   7   8
ENDBRANCH   1   7
BRANCH   4  17
ATOM     17  O   LIG    1       23.043 -20.430   4.194  0.00  0.00    -0.487 OA
BRANCH  17  18
ATOM     18  C   LIG    1       24.225 -21.149   3.828  0.00  0.00    +0.264 C 
BRANCH  18  19
ATOM     19  C   LIG    1       25.313 -20.940   4.854  0.00  0.00    -0.008 A 
ATOM     20  C   LIG    1       26.393 -20.091   4.575  0.00  0.00    +0.045 A 
ATOM     21  C   LIG    1       27.379 -19.879   5.533  0.00  0.00    +0.124 A 
ATOM     22  F   LIG    1       28.399 -19.054   5.258  0.00  0.00    -0.205 F 
ATOM     23  C   LIG    1       27.317 -20.501   6.773  0.00  0.00    +0.038 A 
ATOM     24  C   LIG    1       26.250 -21.350   7.062  0.00  0.00    +0.003 A 
ATOM     25  C   LIG    1       25.254 -21.571   6.106  0.00  0.00    +0.007 A 
ENDBRANCH  18  19
ENDBRANCH  17  18
ENDBRANCH   4  17
TORSDOF 7
ENDMDL
MODEL 4
REMARK VINA RESULT:      -3.9      2.653      3.529
REMARK  Name = *****
REMARK                            x       y       z     vdW  Elec       q    Type
REMARK                         _______ _______ _______ _____ _____    ______ ____
ROOT
ATOM      1  C   LIG    1       26.762 -15.107   3.339  0.00  0.00    -0.033 A 
ATOM      2  C   LIG    1       25.736 -15.978   2.951  0.00  0.00    +0.008 A 
ATOM      3  C   LIG    1       25.756 -17.329   3.316  0.00  0.00    +0.046 A 
ATOM      4  C   LIG    1       26.822 -17.848   4.049  0.00  0.00    +0.121 A 
ATOM      5  C   LIG    1       27.841 -16.986   4.460  0.00  0.00    +0.046 A 
ATOM      6  C   LIG    1       27.811 -15.625   4.112  0.00  0.00    +0.008 A 
ENDROOT
BRANCH   1   7
ATOM      7  C   LIG    1       26.697 -13.642   2.953  0.00  0.00    +0.117 C 
BRANCH   7   8
ATOM      8  N   LIG    1       26.266 -12.721   4.016  0.00  0.00    -0.302 NA
ATOM      9  H   LIG    1       26.409 -11.772   3.670  0.00  0.00    +0.123 HD
BRANCH   8  11
ATOM     10  C   LIG    1       24.308 -11.739   5.329  0.00  0.00    +0.033 C 
ATOM     11  C   LIG    1       24.836 -12.842   4.410  0.00  0.00    +0.137 C 
BRANCH  11  12
ATOM     12  C   LIG    1       23.920 -12.830   3.161  0.00  0.00    +0.227 C 
ATOM     13  O   LIG    1       23.144 -13.735   2.898  0.00  0.00    -0.274 OA
ATOM     14  N   LIG    1       23.929 -11.696   2.398  0.00  0.00    -0.328 N 
ATOM     15  H   LIG    1       23.319 -11.689   1.591  0.00  0.00    +0.145 HD
ATOM     16  H   LIG    1       24.752 -11.109   2.398  0.00  0.00    +0.145 HD
ENDBRANCH  11  12
ENDBRANCH   8  11
ENDBRANCH   7   8
ENDBRANCH   1   7
BRANCH   4  17
ATOM     17  O   LIG    1       26.941 -19.162   4.432  0.00  0.00    -0.487 OA
BRANCH  17  18
ATOM     18  C   LIG    1       25.990 -20.045   3.830  0.00  0.00    +0.264 C 
BRANCH  18  19
ATOM     19  C   LIG    1       24.914 -20.424   4.819  0.00  0.00    -0.008 A 
ATOM     20  C   LIG    1       23.574 -20.490   4.413  0.00  0.00    +0.045 A 
ATOM     21  C   LIG    1       22.589 -20.866   5.320  0.00  0.00    +0.124 A 
ATOM     22  F   LIG    1       21.313 -20.938   4.916  0.00  0.00    -0.205 F 
ATOM     23  C   LIG    1       22.908 -21.177   6.636  0.00  0.00    +0.038 A 
ATOM     24  C   LIG    1       24.237 -21.113   7.052  0.00  0.00    +0.003 A 
ATOM     25  C   LIG    1       25.235 -20.735   6.149  0.00  0.00    +0.007 A 
ENDBRANCH  18  19
ENDBRANCH  17  18
ENDBRANCH   4  17
TORSDOF 7
ENDMDL
MODEL 5
REMARK VINA RESULT:      -3.3      2.449      3.965
REMARK  Name = *****
REMARK                            x       y       z     vdW  Elec       q    Type
REMARK                         _______ _______ _______ _____ _____    ______ ____
ROOT
ATOM      1  C   LIG    1       26.775 -17.819   3.902  0.00  0.00    -0.033 A 
ATOM      2  C   LIG    1       27.427 -18.525   4.922  0.00  0.00    +0.008 A 
ATOM      3  C   LIG    1       26.978 -19.785   5.332  0.00  0.00    +0.046 A 
ATOM      4  C   LIG    1       25.843 -20.354   4.755  0.00  0.00    +0.121 A 
ATOM      5  C   LIG    1       25.196 -19.670   3.724  0.00  0.00    +0.046 A 
ATOM      6  C   LIG    1       25.659 -18.414   3.296  0.00  0.00    +0.008 A 
ENDROOT
BRANCH   1   7
ATOM      7  C   LIG    1       27.303 -16.468   3.460  0.00  0.00    +0.117 C 
BRANCH   7   8
ATOM      8  N   LIG    1       26.282 -15.461   3.133  0.00  0.00    -0.302 NA
ATOM      9  H   LIG    1       25.710 -15.328   3.967  0.00  0.00    +0.123 HD
BRANCH   8  11
ATOM     10  C   LIG    1       25.768 -13.070   2.395  0.00  0.00    +0.033 C 
ATOM     11  C   LIG    1       26.817 -14.128   2.741  0.00  0.00    +0.137 C 
BRANCH  11  12
ATOM     12  C   LIG    1       27.670 -13.524   3.883  0.00  0.00    +0.227 C 
ATOM     13  O   LIG    1       27.290 -13.476   5.043  0.00  0.00    -0.274 OA
ATOM     14  N   LIG    1       28.941 -13.132   3.567  0.00  0.00    -0.328 N 
ATOM     15  H   LIG    1       29.497 -12.750   4.320  0.00  0.00    +0.145 HD
ATOM     16  H   LIG    1       29.149 -12.863   2.614  0.00  0.00    +0.145 HD
ENDBRANCH  11  12
ENDBRANCH   8  11
ENDBRANCH   7   8
ENDBRANCH   1   7
BRANCH   4  17
ATOM     17  O   LIG    1       25.314 -21.571   5.108  0.00  0.00    -0.487 OA
BRANCH  17  18
ATOM     18  C   LIG    1       24.210 -21.500   6.016  0.00  0.00    +0.264 C 
BRANCH  18  19
ATOM     19  C   LIG    1       23.067 -20.726   5.404  0.00  0.00    -0.008 A 
ATOM     20  C   LIG    1       23.068 -19.324   5.433  0.00  0.00    +0.045 A 
ATOM     21  C   LIG    1       22.028 -18.614   4.843  0.00  0.00    +0.124 A 
ATOM     22  F   LIG    1       22.048 -17.274   4.866  0.00  0.00    -0.205 F 
ATOM     23  C   LIG    1       20.974 -19.272   4.223  0.00  0.00    +0.038 A 
ATOM     24  C   LIG    1       20.960 -20.665   4.190  0.00  0.00    +0.003 A 
ATOM     25  C   LIG    1       22.000 -21.389   4.780  0.00  0.00    +0.007 A 
ENDBRANCH  18  19
ENDBRANCH  17  18
ENDBRANCH   4  17
TORSDOF 7
ENDMDL
MODEL 6
REMARK VINA RESULT:      -3.2      2.560      3.300
REMARK  Name = *****
REMARK                            x       y       z     vdW  Elec       q    Type
REMARK                         _______ _______ _______ _____ _____    ______ ____
ROOT
ATOM      1  C   LIG    1       25.692 -15.473   3.373  0.00  0.00    -0.033 A 
ATOM      2  C   LIG    1       27.014 -15.907   3.537  0.00  0.00    +0.008 A 
ATOM      3  C   LIG    1       27.311 -17.255   3.769  0.00  0.00    +0.046 A 
ATOM      4  C   LIG    1       26.288 -18.196   3.877  0.00  0.00    +0.121 A 
ATOM      5  C   LIG    1       24.967 -17.781   3.695  0.00  0.00    +0.046 A 
ATOM      6  C   LIG    1       24.669 -16.432   3.440  0.00  0.00    +0.008 A 
ENDROOT
BRANCH   1   7
ATOM      7  C   LIG    1       25.404 -14.011   3.094  0.00  0.00    +0.117 C 
BRANCH   7   8
ATOM      8  N   LIG    1       26.584 -13.140   2.981  0.00  0.00    -0.302 NA
ATOM      9  H   LIG    1       26.335 -12.373   2.356  0.00  0.00    +0.123 HD
BRANCH   8  11
ATOM     10  C   LIG    1       26.527 -13.213   5.534  0.00  0.00    +0.033 C 
ATOM     11  C   LIG    1       27.046 -12.540   4.262  0.00  0.00    +0.137 C 
BRANCH  11  12
ATOM     12  C   LIG    1       28.591 -12.579   4.360  0.00  0.00    +0.227 C 
ATOM     13  O   LIG    1       29.296 -13.116   3.519  0.00  0.00    -0.274 OA
ATOM     14  N   LIG    1       29.165 -11.884   5.387  0.00  0.00    -0.328 N 
ATOM     15  H   LIG    1       30.175 -11.903   5.437  0.00  0.00    +0.145 HD
ATOM     16  H   LIG    1       28.632 -11.725   6.232  0.00  0.00    +0.145 HD
ENDBRANCH  11  12
ENDBRANCH   8  11
ENDBRANCH   7   8
ENDBRANCH   1   7
BRANCH   4  17
ATOM     17  O   LIG    1       26.480 -19.533   4.127  0.00  0.00    -0.487 OA
BRANCH  17  18
ATOM     18  C   LIG    1       25.483 -20.393   3.567  0.00  0.00    +0.264 C 
BRANCH  18  19
ATOM     19  C   LIG    1       24.471 -20.787   4.617  0.00  0.00    -0.008 A 
ATOM     20  C   LIG    1       23.112 -20.880   4.287  0.00  0.00    +0.045 A 
ATOM     21  C   LIG    1       22.186 -21.271   5.248  0.00  0.00    +0.124 A 
ATOM     22  F   LIG    1       20.891 -21.368   4.916  0.00  0.00    -0.205 F 
ATOM     23  C   LIG    1       22.584 -21.571   6.545  0.00  0.00    +0.038 A 
ATOM     24  C   LIG    1       23.933 -21.481   6.885  0.00  0.00    +0.003 A 
ATOM     25  C   LIG    1       24.871 -21.088   5.927  0.00  0.00    +0.007 A 
ENDBRANCH  18  19
ENDBRANCH  17  18
ENDBRANCH   4  17
TORSDOF 7
ENDMDL
MODEL 7
REMARK VINA RESULT:      -3.2      1.702      2.132
REMARK  Name = *****
REMARK                            x       y       z     vdW  Elec       q    Type
REMARK                         _______ _______ _______ _____ _____    ______ ____
ROOT
ATOM      1  C   LIG    1       24.436 -14.672   4.035  0.00  0.00    -0.033 A 
ATOM      2  C   LIG    1       23.145 -14.876   4.542  0.00  0.00    +0.008 A 
ATOM      3  C   LIG    1       22.523 -16.126   4.458  0.00  0.00    +0.046 A 
ATOM      4  C   LIG    1       23.164 -17.195   3.832  0.00  0.00    +0.121 A 
ATOM      5  C   LIG    1       24.458 -17.011   3.342  0.00  0.00    +0.046 A 
ATOM      6  C   LIG    1       25.093 -15.762   3.445  0.00  0.00    +0.008 A 
ENDROOT
BRANCH   1   7
ATOM      7  C   LIG    1       25.095 -13.313   4.168  0.00  0.00    +0.117 C 
BRANCH   7   8
ATOM      8  N   LIG    1       26.247 -13.075   3.284  0.00  0.00    -0.302 NA
ATOM      9  H   LIG    1       26.251 -12.082   3.053  0.00  0.00    +0.123 HD
BRANCH   8  11
ATOM     10  C   LIG    1       28.786 -12.846   3.131  0.00  0.00    +0.033 C 
ATOM     11  C   LIG    1       27.572 -13.401   3.878  0.00  0.00    +0.137 C 
BRANCH  11  12
ATOM     12  C   LIG    1       27.674 -12.853   5.323  0.00  0.00    +0.227 C 
ATOM     13  O   LIG    1       26.896 -13.169   6.210  0.00  0.00    -0.274 OA
ATOM     14  N   LIG    1       28.754 -12.067   5.613  0.00  0.00    -0.328 N 
ATOM     15  H   LIG    1       28.822 -11.724   6.561  0.00  0.00    +0.145 HD
ATOM     16  H   LIG    1       29.199 -11.548   4.867  0.00  0.00    +0.145 HD
ENDBRANCH  11  12
ENDBRANCH   8  11
ENDBRANCH   7   8
ENDBRANCH   1   7
BRANCH   4  17
ATOM     17  O   LIG    1       22.624 -18.449   3.681  0.00  0.00    -0.487 OA
BRANCH  17  18
ATOM     18  C   LIG    1       22.212 -19.071   4.901  0.00  0.00    +0.264 C 
BRANCH  18  19
ATOM     19  C   LIG    1       23.330 -19.908   5.476  0.00  0.00    -0.008 A 
ATOM     20  C   LIG    1       24.638 -19.768   4.989  0.00  0.00    +0.045 A 
ATOM     21  C   LIG    1       25.670 -20.520   5.540  0.00  0.00    +0.124 A 
ATOM     22  F   LIG    1       26.918 -20.367   5.074  0.00  0.00    -0.205 F 
ATOM     23  C   LIG    1       25.430 -21.419   6.570  0.00  0.00    +0.038 A 
ATOM     24  C   LIG    1       24.134 -21.569   7.061  0.00  0.00    +0.003 A 
ATOM     25  C   LIG    1       23.088 -20.819   6.514  0.00  0.00    +0.007 A 
ENDBRANCH  18  19
ENDBRANCH  17  18
ENDBRANCH   4  17
TORSDOF 7
ENDMDL
