MODEL 1
REMARK VINA RESULT:      -4.5      0.000      0.000
REMARK  Name = *****
REMARK                            x       y       z     vdW  Elec       q    Type
REMARK                         _______ _______ _______ _____ _____    ______ ____
ROOT
ATOM      1  C   LIG    1       26.834 -18.830   3.978  0.00  0.00    +0.044 C 
ATOM      2  C   LIG    1       25.396 -18.534   3.603  0.00  0.00    -0.050 C 
ATOM      3  C   LIG    1       24.411 -19.447   3.536  0.00  0.00    +0.003 C 
ENDROOT
BRANCH   3   4
ATOM      4  C   LIG    1       24.519 -20.880   3.728  0.00  0.00    +0.001 C 
ATOM      5  C   LIG    1       24.607 -21.552   4.882  0.00  0.00    +0.003 C 
BRANCH   5   6
ATOM      6  C   LIG    1       24.542 -21.095   6.272  0.00  0.00    -0.052 C 
ATOM      7  C   LIG    1       25.635 -21.046   7.062  0.00  0.00    +0.004 C 
ATOM      8  C   LIG    1       23.196 -20.758   6.873  0.00  0.00    +0.043 C 
BRANCH   7   9
ATOM      9  C   LIG    1       27.067 -21.288   6.688  0.00  0.00    +0.183 C 
BRANCH   9  10
ATOM     10  O   LIG    1       27.820 -20.117   6.982  0.00  0.00    -0.391 OA
ATOM     11  H   LIG    1       28.462 -20.352   7.674  0.00  0.00    +0.210 HD
ENDBRANCH   9  10
ENDBRANCH   7   9
ENDBRANCH   5   6
ENDBRANCH   3   4
BRANCH   2  12
ATOM     12  C   LIG    1       25.149 -17.115   3.316  0.00  0.00    +0.003 C 
ATOM     13  C   LIG    1       25.637 -16.077   4.019  0.00  0.00    +0.004 C 
BRANCH  13  14
ATOM     14  C   LIG    1       25.370 -14.665   3.738  0.00  0.00    -0.043 C 
ATOM     15  C   LIG    1       26.603 -13.823   3.306  0.00  0.00    -0.010 C 
ATOM     16  C   LIG    1       27.837 -14.040   4.215  0.00  0.00    +0.016 C 
ATOM     17  C   LIG    1       27.006 -14.196   1.861  0.00  0.00    +0.016 C 
ATOM     18  C   LIG    1       26.298 -12.301   3.368  0.00  0.00    +0.011 C 
ATOM     19  C   LIG    1       24.935 -11.961   2.793  0.00  0.00    +0.005 C 
ATOM     20  C   LIG    1       23.848 -12.663   3.590  0.00  0.00    +0.031 C 
ATOM     21  C   LIG    1       24.137 -14.119   3.891  0.00  0.00    -0.069 C 
ATOM     22  C   LIG    1       22.906 -14.832   4.402  0.00  0.00    +0.039 C 
ENDBRANCH  13  14
ENDBRANCH   2  12
TORSDOF 6
ENDMDL
MODEL 2
REMARK VINA RESULT:      -3.3      2.316      6.902
REMARK  Name = *****
REMARK                            x       y       z     vdW  Elec       q    Type
REMARK                         _______ _______ _______ _____ _____    ______ ____
ROOT
ATOM      1  C   LIG    1       27.906 -16.128   4.078  0.00  0.00    +0.044 C 
ATOM      2  C   LIG    1       26.561 -16.276   3.398  0.00  0.00    -0.050 C 
ATOM      3  C   LIG    1       26.009 -15.372   2.571  0.00  0.00    +0.003 C 
ENDROOT
BRANCH   3   4
ATOM      4  C   LIG    1       26.526 -14.065   2.216  0.00  0.00    +0.001 C 
ATOM      5  C   LIG    1       26.142 -12.872   2.684  0.00  0.00    +0.003 C 
BRANCH   5   6
ATOM      6  C   LIG    1       25.174 -12.509   3.723  0.00  0.00    -0.052 C 
ATOM      7  C   LIG    1       25.366 -12.824   5.021  0.00  0.00    +0.004 C 
ATOM      8  C   LIG    1       23.876 -11.848   3.319  0.00  0.00    +0.043 C 
BRANCH   7   9
ATOM      9  C   LIG    1       26.575 -13.433   5.664  0.00  0.00    +0.183 C 
BRANCH   9  10
ATOM     10  O   LIG    1       27.667 -12.530   5.531  0.00  0.00    -0.391 OA
ATOM     11  H   LIG    1       28.045 -12.662   4.645  0.00  0.00    +0.210 HD
ENDBRANCH   9  10
ENDBRANCH   7   9
ENDBRANCH   5   6
ENDBRANCH   3   4
BRANCH   2  12
ATOM     12  C   LIG    1       25.883 -17.540   3.718  0.00  0.00    +0.003 C 
ATOM     13  C   LIG    1       24.552 -17.728   3.754  0.00  0.00    +0.004 C 
BRANCH  13  14
ATOM     14  C   LIG    1       23.884 -18.986   4.092  0.00  0.00    -0.043 C 
ATOM     15  C   LIG    1       24.749 -20.268   3.936  0.00  0.00    -0.010 C 
ATOM     16  C   LIG    1       25.512 -20.326   2.591  0.00  0.00    +0.016 C 
ATOM     17  C   LIG    1       25.792 -20.332   5.076  0.00  0.00    +0.016 C 
ATOM     18  C   LIG    1       23.873 -21.550   3.980  0.00  0.00    +0.011 C 
ATOM     19  C   LIG    1       22.826 -21.497   5.077  0.00  0.00    +0.005 C 
ATOM     20  C   LIG    1       21.886 -20.327   4.838  0.00  0.00    +0.031 C 
ATOM     21  C   LIG    1       22.581 -19.033   4.472  0.00  0.00    -0.069 C 
ATOM     22  C   LIG    1       21.637 -17.856   4.554  0.00  0.00    +0.039 C 
ENDBRANCH  13  14
ENDBRANCH   2  12
TORSDOF 6
ENDMDL
MODEL 3
REMARK VINA RESULT:      -3.2      2.589      7.086
REMARK  Name = *****
REMARK                            x       y       z     vdW  Elec       q    Type
REMARK                         _______ _______ _______ _____ _____    ______ ____
ROOT
ATOM      1  C   LIG    1       27.802 -16.464   4.068  0.00  0.00    +0.044 C 
ATOM      2  C   LIG    1       26.483 -16.444   3.325  0.00  0.00    -0.050 C 
ATOM      3  C   LIG    1       26.033 -15.424   2.573  0.00  0.00    +0.003 C 
ENDROOT
BRANCH   3   4
ATOM      4  C   LIG    1       26.657 -14.131   2.375  0.00  0.00    +0.001 C 
ATOM      5  C   LIG    1       26.631 -13.070   3.190  0.00  0.00    +0.003 C 
BRANCH   5   6
ATOM      6  C   LIG    1       26.064 -12.896   4.530  0.00  0.00    -0.052 C 
ATOM      7  C   LIG    1       24.859 -12.323   4.728  0.00  0.00    +0.004 C 
ATOM      8  C   LIG    1       26.892 -13.282   5.734  0.00  0.00    +0.043 C 
BRANCH   7   9
ATOM      9  C   LIG    1       23.847 -11.902   3.705  0.00  0.00    +0.183 C 
BRANCH   9  10
ATOM     10  O   LIG    1       23.465 -13.043   2.944  0.00  0.00    -0.391 OA
ATOM     11  H   LIG    1       23.748 -12.887   2.027  0.00  0.00    +0.210 HD
ENDBRANCH   9  10
ENDBRANCH   7   9
ENDBRANCH   5   6
ENDBRANCH   3   4
BRANCH   2  12
ATOM     12  C   LIG    1       25.705 -17.680   3.487  0.00  0.00    +0.003 C 
ATOM     13  C   LIG    1       24.493 -17.773   4.063  0.00  0.00    +0.004 C 
BRANCH  13  14
ATOM     14  C   LIG    1       23.733 -19.012   4.239  0.00  0.00    -0.043 C 
ATOM     15  C   LIG    1       24.569 -20.322   4.212  0.00  0.00    -0.010 C 
ATOM     16  C   LIG    1       25.566 -20.382   3.030  0.00  0.00    +0.016 C 
ATOM     17  C   LIG    1       25.378 -20.447   5.523  0.00  0.00    +0.016 C 
ATOM     18  C   LIG    1       23.658 -21.571   4.059  0.00  0.00    +0.011 C 
ATOM     19  C   LIG    1       22.427 -21.501   4.943  0.00  0.00    +0.005 C 
ATOM     20  C   LIG    1       21.588 -20.292   4.565  0.00  0.00    +0.031 C 
ATOM     21  C   LIG    1       22.381 -19.018   4.369  0.00  0.00    -0.069 C 
ATOM     22  C   LIG    1       21.477 -17.808   4.305  0.00  0.00    +0.039 C 
ENDBRANCH  13  14
ENDBRANCH   2  12
TORSDOF 6
ENDMDL
MODEL 4
REMARK VINA RESULT:      -3.0      1.066      2.390
REMARK  Name = *****
REMARK                            x       y       z     vdW  Elec       q    Type
REMARK                         _______ _______ _______ _____ _____    ______ ____
ROOT
ATOM      1  C   LIG    1       23.441 -18.341   3.728  0.00  0.00    +0.044 C 
ATOM      2  C   LIG    1       24.942 -18.516   3.621  0.00  0.00    -0.050 C 
ATOM      3  C   LIG    1       25.588 -19.694   3.667  0.00  0.00    +0.003 C 
ENDROOT
BRANCH   3   4
ATOM      4  C   LIG    1       25.018 -21.007   3.896  0.00  0.00    +0.001 C 
ATOM      5  C   LIG    1       24.571 -21.522   5.047  0.00  0.00    +0.003 C 
BRANCH   5   6
ATOM      6  C   LIG    1       24.436 -20.930   6.381  0.00  0.00    -0.052 C 
ATOM      7  C   LIG    1       25.497 -20.449   7.061  0.00  0.00    +0.004 C 
ATOM      8  C   LIG    1       23.084 -20.944   7.058  0.00  0.00    +0.043 C 
BRANCH   7   9
ATOM      9  C   LIG    1       26.912 -20.289   6.591  0.00  0.00    +0.183 C 
BRANCH   9  10
ATOM     10  O   LIG    1       27.535 -21.568   6.574  0.00  0.00    -0.391 OA
ATOM     11  H   LIG    1       28.267 -21.525   5.936  0.00  0.00    +0.210 HD
ENDBRANCH   9  10
ENDBRANCH   7   9
ENDBRANCH   5   6
ENDBRANCH   3   4
BRANCH   2  12
ATOM     12  C   LIG    1       25.666 -17.249   3.447  0.00  0.00    +0.003 C 
ATOM     13  C   LIG    1       25.192 -16.028   3.752  0.00  0.00    +0.004 C 
BRANCH  13  14
ATOM     14  C   LIG    1       25.912 -14.769   3.557  0.00  0.00    -0.043 C 
ATOM     15  C   LIG    1       25.027 -13.533   3.234  0.00  0.00    -0.010 C 
ATOM     16  C   LIG    1       23.975 -13.809   2.132  0.00  0.00    +0.016 C 
ATOM     17  C   LIG    1       24.273 -13.087   4.508  0.00  0.00    +0.016 C 
ATOM     18  C   LIG    1       25.881 -12.345   2.711  0.00  0.00    +0.011 C 
ATOM     19  C   LIG    1       27.153 -12.150   3.516  0.00  0.00    +0.005 C 
ATOM     20  C   LIG    1       28.020 -13.395   3.422  0.00  0.00    +0.031 C 
ATOM     21  C   LIG    1       27.267 -14.695   3.609  0.00  0.00    -0.069 C 
ATOM     22  C   LIG    1       28.212 -15.857   3.815  0.00  0.00    +0.039 C 
ENDBRANCH  13  14
ENDBRANCH   2  12
TORSDOF 6
ENDMDL
MODEL 5
REMARK VINA RESULT:      -2.9      2.741      7.255
REMARK  Name = *****
REMARK                            x       y       z     vdW  Elec       q    Type
REMARK                         _______ _______ _______ _____ _____    ______ ____
ROOT
ATOM      1  C   LIG    1       22.621 -14.237   5.830  0.00  0.00    +0.044 C 
ATOM      2  C   LIG    1       23.133 -15.185   4.766  0.00  0.00    -0.050 C 
ATOM      3  C   LIG    1       24.036 -14.872   3.821  0.00  0.00    +0.003 C 
ENDROOT
BRANCH   3   4
ATOM      4  C   LIG    1       24.644 -13.579   3.573  0.00  0.00    +0.001 C 
ATOM      5  C   LIG    1       25.944 -13.262   3.596  0.00  0.00    +0.003 C 
BRANCH   5   6
ATOM      6  C   LIG    1       27.136 -14.092   3.786  0.00  0.00    -0.052 C 
ATOM      7  C   LIG    1       28.357 -13.556   3.991  0.00  0.00    +0.004 C 
ATOM      8  C   LIG    1       27.015 -15.594   3.654  0.00  0.00    +0.043 C 
BRANCH   7   9
ATOM      9  C   LIG    1       28.720 -12.116   4.200  0.00  0.00    +0.183 C 
BRANCH   9  10
ATOM     10  O   LIG    1       29.061 -11.925   5.568  0.00  0.00    -0.391 OA
ATOM     11  H   LIG    1       28.348 -11.403   5.974  0.00  0.00    +0.210 HD
ENDBRANCH   9  10
ENDBRANCH   7   9
ENDBRANCH   5   6
ENDBRANCH   3   4
BRANCH   2  12
ATOM     12  C   LIG    1       22.550 -16.531   4.855  0.00  0.00    +0.003 C 
ATOM     13  C   LIG    1       23.062 -17.645   4.302  0.00  0.00    +0.004 C 
BRANCH  13  14
ATOM     14  C   LIG    1       22.464 -18.979   4.379  0.00  0.00    -0.043 C 
ATOM     15  C   LIG    1       23.371 -20.087   4.984  0.00  0.00    -0.010 C 
ATOM     16  C   LIG    1       24.801 -20.093   4.391  0.00  0.00    +0.016 C 
ATOM     17  C   LIG    1       23.492 -19.881   6.512  0.00  0.00    +0.016 C 
ATOM     18  C   LIG    1       22.795 -21.503   4.710  0.00  0.00    +0.011 C 
ATOM     19  C   LIG    1       21.296 -21.571   4.938  0.00  0.00    +0.005 C 
ATOM     20  C   LIG    1       20.586 -20.614   3.996  0.00  0.00    +0.031 C 
ATOM     21  C   LIG    1       21.218 -19.241   3.909  0.00  0.00    -0.069 C 
ATOM     22  C   LIG    1       20.306 -18.256   3.214  0.00  0.00    +0.039 C 
ENDBRANCH  13  14
ENDBRANCH   2  12
TORSDOF 6
ENDMDL
MODEL 6
REMARK VINA RESULT:      -2.7      2.395      7.090
REMARK  Name = *****
REMARK                            x       y       z     vdW  Elec       q    Type
REMARK                         _______ _______ _______ _____ _____    ______ ____
ROOT
ATOM      1  C   LIG    1       23.406 -14.063   4.112  0.00  0.00    +0.044 C 
ATOM      2  C   LIG    1       24.369 -15.158   3.701  0.00  0.00    -0.050 C 
ATOM      3  C   LIG    1       25.491 -14.972   2.983  0.00  0.00    +0.003 C 
ENDROOT
BRANCH   3   4
ATOM      4  C   LIG    1       25.973 -13.736   2.400  0.00  0.00    +0.001 C 
ATOM      5  C   LIG    1       26.981 -12.964   2.822  0.00  0.00    +0.003 C 
BRANCH   5   6
ATOM      6  C   LIG    1       27.944 -13.145   3.912  0.00  0.00    -0.052 C 
ATOM      7  C   LIG    1       27.555 -13.266   5.198  0.00  0.00    +0.004 C 
ATOM      8  C   LIG    1       29.423 -13.099   3.602  0.00  0.00    +0.043 C 
BRANCH   7   9
ATOM      9  C   LIG    1       26.163 -13.380   5.745  0.00  0.00    +0.183 C 
BRANCH   9  10
ATOM     10  O   LIG    1       25.566 -12.088   5.749  0.00  0.00    -0.391 OA
ATOM     11  H   LIG    1       24.773 -12.138   6.309  0.00  0.00    +0.210 HD
ENDBRANCH   9  10
ENDBRANCH   7   9
ENDBRANCH   5   6
ENDBRANCH   3   4
BRANCH   2  12
ATOM     12  C   LIG    1       23.971 -16.491   4.174  0.00  0.00    +0.003 C 
ATOM     13  C   LIG    1       24.362 -17.661   3.638  0.00  0.00    +0.004 C 
BRANCH  13  14
ATOM     14  C   LIG    1       23.945 -18.985   4.103  0.00  0.00    -0.043 C 
ATOM     15  C   LIG    1       25.038 -20.089   4.051  0.00  0.00    -0.010 C 
ATOM     16  C   LIG    1       25.798 -20.129   2.703  0.00  0.00    +0.016 C 
ATOM     17  C   LIG    1       26.074 -19.848   5.173  0.00  0.00    +0.016 C 
ATOM     18  C   LIG    1       24.422 -21.504   4.228  0.00  0.00    +0.011 C 
ATOM     19  C   LIG    1       23.383 -21.548   5.334  0.00  0.00    +0.005 C 
ATOM     20  C   LIG    1       22.238 -20.604   5.005  0.00  0.00    +0.031 C 
ATOM     21  C   LIG    1       22.675 -19.242   4.509  0.00  0.00    -0.069 C 
ATOM     22  C   LIG    1       21.524 -18.262   4.498  0.00  0.00    +0.039 C 
ENDBRANCH  13  14
ENDBRANCH   2  12
TORSDOF 6
ENDMDL
MODEL 7
REMARK VINA RESULT:      -2.5      1.553      2.921
REMARK  Name = *****
REMARK                            x       y       z     vdW  Elec       q    Type
REMARK                         _______ _______ _______ _____ _____    ______ ____
ROOT
ATOM      1  C   LIG    1       27.307 -18.415   4.134  0.00  0.00    +0.044 C 
ATOM      2  C   LIG    1       25.949 -18.240   3.486  0.00  0.00    -0.050 C 
ATOM      3  C   LIG    1       25.064 -19.228   3.266  0.00  0.00    +0.003 C 
ENDROOT
BRANCH   3   4
ATOM      4  C   LIG    1       25.238 -20.644   3.523  0.00  0.00    +0.001 C 
ATOM      5  C   LIG    1       25.174 -21.282   4.697  0.00  0.00    +0.003 C 
BRANCH   5   6
ATOM      6  C   LIG    1       24.838 -20.801   6.040  0.00  0.00    -0.052 C 
ATOM      7  C   LIG    1       23.583 -20.436   6.376  0.00  0.00    +0.004 C 
ATOM      8  C   LIG    1       25.945 -20.615   7.052  0.00  0.00    +0.043 C 
BRANCH   7   9
ATOM      9  C   LIG    1       22.326 -20.567   5.570  0.00  0.00    +0.183 C 
BRANCH   9  10
ATOM     10  O   LIG    1       22.100 -19.346   4.874  0.00  0.00    -0.391 OA
ATOM     11  H   LIG    1       22.903 -18.806   4.970  0.00  0.00    +0.210 HD
ENDBRANCH   9  10
ENDBRANCH   7   9
ENDBRANCH   5   6
ENDBRANCH   3   4
BRANCH   2  12
ATOM     12  C   LIG    1       25.657 -16.849   3.111  0.00  0.00    +0.003 C 
ATOM     13  C   LIG    1       25.825 -15.773   3.900  0.00  0.00    +0.004 C 
BRANCH  13  14
ATOM     14  C   LIG    1       25.514 -14.393   3.524  0.00  0.00    -0.043 C 
ATOM     15  C   LIG    1       24.118 -13.875   3.972  0.00  0.00    -0.010 C 
ATOM     16  C   LIG    1       22.971 -14.865   3.656  0.00  0.00    +0.016 C 
ATOM     17  C   LIG    1       24.123 -13.625   5.498  0.00  0.00    +0.016 C 
ATOM     18  C   LIG    1       23.745 -12.553   3.245  0.00  0.00    +0.011 C 
ATOM     19  C   LIG    1       24.908 -11.579   3.183  0.00  0.00    +0.005 C 
ATOM     20  C   LIG    1       26.061 -12.200   2.412  0.00  0.00    +0.031 C 
ATOM     21  C   LIG    1       26.368 -13.632   2.793  0.00  0.00    -0.069 C 
ATOM     22  C   LIG    1       27.696 -14.082   2.228  0.00  0.00    +0.039 C 
ENDBRANCH  13  14
ENDBRANCH   2  12
TORSDOF 6
ENDMDL
MODEL 8
REMARK VINA RESULT:      -2.5      1.720      3.194
REMARK  Name = *****
REMARK                            x       y       z     vdW  Elec       q    Type
REMARK                         _______ _______ _______ _____ _____    ______ ____
ROOT
ATOM      1  C   LIG    1       21.237 -16.369   4.129  0.00  0.00    +0.044 C 
ATOM      2  C   LIG    1       22.656 -16.879   4.273  0.00  0.00    -0.050 C 
ATOM      3  C   LIG    1       23.000 -18.165   4.456  0.00  0.00    +0.003 C 
ENDROOT
BRANCH   3   4
ATOM      4  C   LIG    1       22.117 -19.302   4.625  0.00  0.00    +0.001 C 
ATOM      5  C   LIG    1       22.420 -20.520   5.087  0.00  0.00    +0.003 C 
BRANCH   5   6
ATOM      6  C   LIG    1       23.668 -21.062   5.632  0.00  0.00    -0.052 C 
ATOM      7  C   LIG    1       24.775 -21.211   4.874  0.00  0.00    +0.004 C 
ATOM      8  C   LIG    1       23.692 -21.560   7.059  0.00  0.00    +0.043 C 
BRANCH   7   9
ATOM      9  C   LIG    1       25.006 -20.760   3.463  0.00  0.00    +0.183 C 
BRANCH   9  10
ATOM     10  O   LIG    1       25.805 -19.582   3.486  0.00  0.00    -0.391 OA
ATOM     11  H   LIG    1       26.117 -19.427   2.578  0.00  0.00    +0.210 HD
ENDBRANCH   9  10
ENDBRANCH   7   9
ENDBRANCH   5   6
ENDBRANCH   3   4
BRANCH   2  12
ATOM     12  C   LIG    1       23.668 -15.817   4.184  0.00  0.00    +0.003 C 
ATOM     13  C   LIG    1       24.917 -15.963   3.705  0.00  0.00    +0.004 C 
BRANCH  13  14
ATOM     14  C   LIG    1       25.926 -14.905   3.639  0.00  0.00    -0.043 C 
ATOM     15  C   LIG    1       25.394 -13.493   3.265  0.00  0.00    -0.010 C 
ATOM     16  C   LIG    1       24.442 -13.505   2.044  0.00  0.00    +0.016 C 
ATOM     17  C   LIG    1       24.620 -12.897   4.464  0.00  0.00    +0.016 C 
ATOM     18  C   LIG    1       26.554 -12.533   2.885  0.00  0.00    +0.011 C 
ATOM     19  C   LIG    1       27.734 -12.649   3.833  0.00  0.00    +0.005 C 
ATOM     20  C   LIG    1       28.295 -14.061   3.790  0.00  0.00    +0.031 C 
ATOM     21  C   LIG    1       27.245 -15.151   3.843  0.00  0.00    -0.069 C 
ATOM     22  C   LIG    1       27.866 -16.503   4.109  0.00  0.00    +0.039 C 
ENDBRANCH  13  14
ENDBRANCH   2  12
TORSDOF 6
ENDMDL
MODEL 9
REMARK VINA RESULT:      -2.0      2.284      7.077
REMARK  Name = *****
REMARK                            x       y       z     vdW  Elec       q    Type
REMARK                         _______ _______ _______ _____ _____    ______ ____
ROOT
ATOM      1  C   LIG    1       28.092 -16.060   4.202  0.00  0.00    +0.044 C 
ATOM      2  C   LIG    1       26.799 -16.260   3.439  0.00  0.00    -0.050 C 
ATOM      3  C   LIG    1       26.266 -15.377   2.578  0.00  0.00    +0.003 C 
ENDROOT
BRANCH   3   4
ATOM      4  C   LIG    1       26.753 -14.050   2.256  0.00  0.00    +0.001 C 
ATOM      5  C   LIG    1       26.175 -12.873   2.522  0.00  0.00    +0.003 C 
BRANCH   5   6
ATOM      6  C   LIG    1       24.956 -12.542   3.265  0.00  0.00    -0.052 C 
ATOM      7  C   LIG    1       24.760 -12.950   4.536  0.00  0.00    +0.004 C 
ATOM      8  C   LIG    1       23.842 -11.805   2.558  0.00  0.00    +0.043 C 
BRANCH   7   9
ATOM      9  C   LIG    1       25.722 -13.649   5.450  0.00  0.00    +0.183 C 
BRANCH   9  10
ATOM     10  O   LIG    1       26.839 -12.796   5.675  0.00  0.00    -0.391 OA
ATOM     11  H   LIG    1       27.086 -12.884   6.612  0.00  0.00    +0.210 HD
ENDBRANCH   9  10
ENDBRANCH   7   9
ENDBRANCH   5   6
ENDBRANCH   3   4
BRANCH   2  12
ATOM     12  C   LIG    1       26.153 -17.551   3.715  0.00  0.00    +0.003 C 
ATOM     13  C   LIG    1       24.855 -17.727   4.021  0.00  0.00    +0.004 C 
BRANCH  13  14
ATOM     14  C   LIG    1       24.222 -19.014   4.315  0.00  0.00    -0.043 C 
ATOM     15  C   LIG    1       22.675 -19.048   4.176  0.00  0.00    -0.010 C 
ATOM     16  C   LIG    1       21.975 -17.854   4.870  0.00  0.00    +0.016 C 
ATOM     17  C   LIG    1       22.287 -19.021   2.680  0.00  0.00    +0.016 C 
ATOM     18  C   LIG    1       22.076 -20.324   4.830  0.00  0.00    +0.011 C 
ATOM     19  C   LIG    1       22.873 -21.572   4.497  0.00  0.00    +0.005 C 
ATOM     20  C   LIG    1       24.293 -21.431   5.019  0.00  0.00    +0.031 C 
ATOM     21  C   LIG    1       24.937 -20.093   4.726  0.00  0.00    -0.069 C 
ATOM     22  C   LIG    1       26.425 -20.125   4.987  0.00  0.00    +0.039 C 
ENDBRANCH  13  14
ENDBRANCH   2  12
TORSDOF 6
ENDMDL
