MODEL 1
REMARK VINA RESULT:      -3.3      0.000      0.000
REMARK  Name = *****
REMARK                            x       y       z     vdW  Elec       q    Type
REMARK                         _______ _______ _______ _____ _____    ______ ____
ROOT
ATOM      1  C   LIG    1       31.308 -19.518   8.331  0.00  0.00    +0.078 C 
ENDROOT
BRANCH   1   2
ATOM      2  S   LIG    1       30.283 -19.192   6.837  0.00  0.00    -0.172 S 
ATOM      3  H   LIG    1       31.316 -18.906   6.027  0.00  0.00    +0.102 HD
ENDBRANCH   1   2
BRANCH   1   4
ATOM      4  C   LIG    1       31.084 -20.968   8.785  0.00  0.00    +0.170 C 
BRANCH   4   5
ATOM      5  O   LIG    1       32.207 -21.465   9.507  0.00  0.00    -0.394 OA
ATOM      6  H   LIG    1       32.884 -21.715   8.845  0.00  0.00    +0.209 HD
ENDBRANCH   4   5
ENDBRANCH   1   4
BRANCH   1   7
ATOM      7  C   LIG    1       30.970 -18.465   9.397  0.00  0.00    +0.081 C 
BRANCH   7   8
ATOM      8  S   LIG    1       32.081 -17.016   9.338  0.00  0.00    -0.177 S 
ATOM      9  H   LIG    1       33.235 -17.696   9.269  0.00  0.00    +0.102 HD
ENDBRANCH   7   8
ENDBRANCH   1   7
TORSDOF 5
ENDMDL
MODEL 2
REMARK VINA RESULT:      -3.3      1.366      2.809
REMARK  Name = *****
REMARK                            x       y       z     vdW  Elec       q    Type
REMARK                         _______ _______ _______ _____ _____    ______ ____
ROOT
ATOM      1  C   LIG    1       30.455 -19.806   8.306  0.00  0.00    +0.078 C 
ENDROOT
BRANCH   1   2
ATOM      2  S   LIG    1       31.605 -18.488   8.880  0.00  0.00    -0.172 S 
ATOM      3  H   LIG    1       32.727 -19.109   8.478  0.00  0.00    +0.102 HD
ENDBRANCH   1   2
BRANCH   1   4
ATOM      4  C   LIG    1       31.000 -21.173   8.746  0.00  0.00    +0.170 C 
BRANCH   4   5
ATOM      5  O   LIG    1       32.279 -21.047   9.361  0.00  0.00    -0.394 OA
ATOM      6  H   LIG    1       32.126 -20.740  10.278  0.00  0.00    +0.209 HD
ENDBRANCH   4   5
ENDBRANCH   1   4
BRANCH   1   7
ATOM      7  C   LIG    1       30.265 -19.663   6.788  0.00  0.00    +0.081 C 
BRANCH   7   8
ATOM      8  S   LIG    1       28.562 -20.047   6.249  0.00  0.00    -0.177 S 
ATOM      9  H   LIG    1       28.348 -21.066   7.094  0.00  0.00    +0.102 HD
ENDBRANCH   7   8
ENDBRANCH   1   7
TORSDOF 5
ENDMDL
MODEL 3
REMARK VINA RESULT:      -3.2      3.004      4.000
REMARK  Name = *****
REMARK                            x       y       z     vdW  Elec       q    Type
REMARK                         _______ _______ _______ _____ _____    ______ ____
ROOT
ATOM      1  C   LIG    1       32.027 -17.723   9.971  0.00  0.00    +0.078 C 
ENDROOT
BRANCH   1   2
ATOM      2  S   LIG    1       30.422 -17.471  10.836  0.00  0.00    -0.172 S 
ATOM      3  H   LIG    1       29.653 -17.850   9.801  0.00  0.00    +0.102 HD
ENDBRANCH   1   2
BRANCH   1   4
ATOM      4  C   LIG    1       32.847 -16.427  10.049  0.00  0.00    +0.170 C 
BRANCH   4   5
ATOM      5  O   LIG    1       32.820 -15.721   8.812  0.00  0.00    -0.394 OA
ATOM      6  H   LIG    1       33.515 -15.033   8.859  0.00  0.00    +0.209 HD
ENDBRANCH   4   5
ENDBRANCH   1   4
BRANCH   1   7
ATOM      7  C   LIG    1       31.741 -18.202   8.539  0.00  0.00    +0.081 C 
BRANCH   7   8
ATOM      8  S   LIG    1       30.944 -19.845   8.488  0.00  0.00    -0.177 S 
ATOM      9  H   LIG    1       31.435 -20.228   7.300  0.00  0.00    +0.102 HD
ENDBRANCH   7   8
ENDBRANCH   1   7
TORSDOF 5
ENDMDL
MODEL 4
REMARK VINA RESULT:      -3.1      3.307      3.410
REMARK  Name = *****
REMARK                            x       y       z     vdW  Elec       q    Type
REMARK                         _______ _______ _______ _____ _____    ______ ____
ROOT
ATOM      1  C   LIG    1       30.796 -17.218   9.466  0.00  0.00    +0.078 C 
ENDROOT
BRANCH   1   2
ATOM      2  S   LIG    1       30.051 -18.590   8.491  0.00  0.00    -0.172 S 
ATOM      3  H   LIG    1       29.496 -19.214   9.544  0.00  0.00    +0.102 HD
ENDBRANCH   1   2
BRANCH   1   4
ATOM      4  C   LIG    1       32.306 -17.170   9.190  0.00  0.00    +0.170 C 
BRANCH   4   5
ATOM      5  O   LIG    1       32.718 -15.867   8.787  0.00  0.00    -0.394 OA
ATOM      6  H   LIG    1       33.527 -15.652   9.295  0.00  0.00    +0.209 HD
ENDBRANCH   4   5
ENDBRANCH   1   4
BRANCH   1   7
ATOM      7  C   LIG    1       30.434 -17.416  10.946  0.00  0.00    +0.081 C 
BRANCH   7   8
ATOM      8  S   LIG    1       31.681 -16.712  12.080  0.00  0.00    -0.177 S 
ATOM      9  H   LIG    1       32.753 -16.937  11.306  0.00  0.00    +0.102 HD
ENDBRANCH   7   8
ENDBRANCH   1   7
TORSDOF 5
ENDMDL
MODEL 5
REMARK VINA RESULT:      -3.1      2.128      3.077
REMARK  Name = *****
REMARK                            x       y       z     vdW  Elec       q    Type
REMARK                         _______ _______ _______ _____ _____    ______ ____
ROOT
ATOM      1  C   LIG    1       30.062 -19.266   7.900  0.00  0.00    +0.078 C 
ENDROOT
BRANCH   1   2
ATOM      2  S   LIG    1       29.676 -18.700   6.191  0.00  0.00    -0.172 S 
ATOM      3  H   LIG    1       30.802 -17.984   6.032  0.00  0.00    +0.102 HD
ENDBRANCH   1   2
BRANCH   1   4
ATOM      4  C   LIG    1       31.482 -18.810   8.269  0.00  0.00    +0.170 C 
BRANCH   4   5
ATOM      5  O   LIG    1       32.083 -19.697   9.209  0.00  0.00    -0.394 OA
ATOM      6  H   LIG    1       33.052 -19.632   9.085  0.00  0.00    +0.209 HD
ENDBRANCH   4   5
ENDBRANCH   1   4
BRANCH   1   7
ATOM      7  C   LIG    1       29.851 -20.785   7.973  0.00  0.00    +0.081 C 
BRANCH   7   8
ATOM      8  S   LIG    1       28.155 -21.287   7.513  0.00  0.00    -0.177 S 
ATOM      9  H   LIG    1       28.424 -21.632   6.245  0.00  0.00    +0.102 HD
ENDBRANCH   7   8
ENDBRANCH   1   7
TORSDOF 5
ENDMDL
MODEL 6
REMARK VINA RESULT:      -3.1      2.746      3.892
REMARK  Name = *****
REMARK                            x       y       z     vdW  Elec       q    Type
REMARK                         _______ _______ _______ _____ _____    ______ ____
ROOT
ATOM      1  C   LIG    1       31.291 -17.168   9.219  0.00  0.00    +0.078 C 
ENDROOT
BRANCH   1   2
ATOM      2  S   LIG    1       32.676 -16.145   9.869  0.00  0.00    -0.172 S 
ATOM      3  H   LIG    1       32.307 -15.012   9.247  0.00  0.00    +0.102 HD
ENDBRANCH   1   2
BRANCH   1   4
ATOM      4  C   LIG    1       30.313 -17.471  10.364  0.00  0.00    +0.170 C 
BRANCH   4   5
ATOM      5  O   LIG    1       30.227 -16.380  11.276  0.00  0.00    -0.394 OA
ATOM      6  H   LIG    1       29.570 -15.752  10.911  0.00  0.00    +0.209 HD
ENDBRANCH   4   5
ENDBRANCH   1   4
BRANCH   1   7
ATOM      7  C   LIG    1       31.878 -18.417   8.546  0.00  0.00    +0.081 C 
BRANCH   7   8
ATOM      8  S   LIG    1       30.659 -19.305   7.515  0.00  0.00    -0.177 S 
ATOM      9  H   LIG    1       31.499 -20.231   7.029  0.00  0.00    +0.102 HD
ENDBRANCH   7   8
ENDBRANCH   1   7
TORSDOF 5
ENDMDL
MODEL 7
REMARK VINA RESULT:      -3.0      3.267      3.501
REMARK  Name = *****
REMARK                            x       y       z     vdW  Elec       q    Type
REMARK                         _______ _______ _______ _____ _____    ______ ____
ROOT
ATOM      1  C   LIG    1       29.508 -19.437   7.117  0.00  0.00    +0.078 C 
ENDROOT
BRANCH   1   2
ATOM      2  S   LIG    1       28.887 -21.122   7.518  0.00  0.00    -0.172 S 
ATOM      3  H   LIG    1       29.729 -21.332   8.544  0.00  0.00    +0.102 HD
ENDBRANCH   1   2
BRANCH   1   4
ATOM      4  C   LIG    1       28.976 -19.023   5.737  0.00  0.00    +0.170 C 
BRANCH   4   5
ATOM      5  O   LIG    1       29.774 -17.993   5.160  0.00  0.00    -0.394 OA
ATOM      6  H   LIG    1       30.613 -17.965   5.665  0.00  0.00    +0.209 HD
ENDBRANCH   4   5
ENDBRANCH   1   4
BRANCH   1   7
ATOM      7  C   LIG    1       31.040 -19.441   7.224  0.00  0.00    +0.081 C 
BRANCH   7   8
ATOM      8  S   LIG    1       31.659 -18.373   8.572  0.00  0.00    -0.177 S 
ATOM      9  H   LIG    1       31.593 -19.289   9.550  0.00  0.00    +0.102 HD
ENDBRANCH   7   8
ENDBRANCH   1   7
TORSDOF 5
ENDMDL
MODEL 8
REMARK VINA RESULT:      -3.0      3.145      3.728
REMARK  Name = *****
REMARK                            x       y       z     vdW  Elec       q    Type
REMARK                         _______ _______ _______ _____ _____    ______ ____
ROOT
ATOM      1  C   LIG    1       30.579 -19.577   7.212  0.00  0.00    +0.078 C 
ENDROOT
BRANCH   1   2
ATOM      2  S   LIG    1       31.569 -18.593   8.412  0.00  0.00    -0.172 S 
ATOM      3  H   LIG    1       32.582 -19.472   8.498  0.00  0.00    +0.102 HD
ENDBRANCH   1   2
BRANCH   1   4
ATOM      4  C   LIG    1       29.565 -18.653   6.522  0.00  0.00    +0.170 C 
BRANCH   4   5
ATOM      5  O   LIG    1       30.052 -18.194   5.265  0.00  0.00    -0.394 OA
ATOM      6  H   LIG    1       30.989 -18.473   5.202  0.00  0.00    +0.209 HD
ENDBRANCH   4   5
ENDBRANCH   1   4
BRANCH   1   7
ATOM      7  C   LIG    1       29.946 -20.763   7.954  0.00  0.00    +0.081 C 
BRANCH   7   8
ATOM      8  S   LIG    1       31.142 -21.662   9.003  0.00  0.00    -0.177 S 
ATOM      9  H   LIG    1       32.052 -20.681   9.092  0.00  0.00    +0.102 HD
ENDBRANCH   7   8
ENDBRANCH   1   7
TORSDOF 5
ENDMDL
MODEL 9
REMARK VINA RESULT:      -3.0      2.734      3.406
REMARK  Name = *****
REMARK                            x       y       z     vdW  Elec       q    Type
REMARK                         _______ _______ _______ _____ _____    ______ ____
ROOT
ATOM      1  C   LIG    1       31.162 -19.376   7.891  0.00  0.00    +0.078 C 
ENDROOT
BRANCH   1   2
ATOM      2  S   LIG    1       30.949 -21.002   8.727  0.00  0.00    -0.172 S 
ATOM      3  H   LIG    1       30.068 -20.565   9.643  0.00  0.00    +0.102 HD
ENDBRANCH   1   2
BRANCH   1   4
ATOM      4  C   LIG    1       31.705 -18.359   8.906  0.00  0.00    +0.170 C 
BRANCH   4   5
ATOM      5  O   LIG    1       32.276 -17.229   8.254  0.00  0.00    -0.394 OA
ATOM      6  H   LIG    1       31.896 -16.432   8.677  0.00  0.00    +0.209 HD
ENDBRANCH   4   5
ENDBRANCH   1   4
BRANCH   1   7
ATOM      7  C   LIG    1       29.825 -18.974   7.252  0.00  0.00    +0.081 C 
BRANCH   7   8
ATOM      8  S   LIG    1       28.914 -20.400   6.560  0.00  0.00    -0.177 S 
ATOM      9  H   LIG    1       27.963 -20.460   7.504  0.00  0.00    +0.102 HD
ENDBRANCH   7   8
ENDBRANCH   1   7
TORSDOF 5
ENDMDL
