MODEL 1
REMARK VINA RESULT:      17.8      0.000      0.000
REMARK  Name = *****
REMARK                            x       y       z     vdW  Elec       q    Type
REMARK                         _______ _______ _______ _____ _____    ______ ____
ROOT
ATOM      1  C   LIG    1       24.238 -28.372  13.621  0.00  0.00    +0.186 C 
ATOM      2  O   LIG    1       25.716 -28.410  13.554  0.00  0.00    -0.459 OA
ATOM      3  C   LIG    1       26.459 -29.508  13.847  0.00  0.00    +0.328 C 
ATOM      4  O   LIG    1       25.992 -30.630  14.110  0.00  0.00    -0.249 OA
ATOM      5  C   LIG    1       27.986 -29.222  13.877  0.00  0.00    +0.185 C 
ATOM      6  N   LIG    1       28.402 -27.940  13.240  0.00  0.00    -0.281 N 
ATOM      7  C   LIG    1       28.667 -26.836  14.148  0.00  0.00    +0.109 C 
ATOM      8  C   LIG    1       29.883 -27.180  15.005  0.00  0.00    +0.019 C 
ATOM      9  C   LIG    1       29.857 -28.635  15.495  0.00  0.00    +0.004 C 
ATOM     10  C   LIG    1       28.898 -27.830  11.941  0.00  0.00    +0.288 C 
ATOM     11  O   LIG    1       29.289 -26.780  11.436  0.00  0.00    -0.267 OA
ATOM     12  C   LIG    1       28.979 -29.068  11.084  0.00  0.00    +0.276 C 
ATOM     13  O   LIG    1       30.080 -29.587  10.918  0.00  0.00    -0.281 OA
ATOM     14  C   LIG    1       27.636 -29.562  10.518  0.00  0.00    +0.240 C 
ATOM     15  O   LIG    1       27.787 -30.977  10.648  0.00  0.00    -0.339 OA
ATOM     16  C   LIG    1       26.763 -31.817  10.119  0.00  0.00    +0.125 C 
ATOM     17  C   LIG    1       26.200 -31.319   8.774  0.00  0.00    +0.032 C 
ATOM     18  C   LIG    1       26.143 -29.815   8.578  0.00  0.00    +0.011 C 
ATOM     19  C   LIG    1       25.701 -32.150  11.184  0.00  0.00    +0.067 C 
ATOM     20  C   LIG    1       24.932 -33.498  11.054  0.00  0.00    +0.146 C 
ATOM     21  C   LIG    1       23.657 -33.476  11.968  0.00  0.00    -0.044 C 
ATOM     22  C   LIG    1       22.377 -33.738  11.225  0.00  0.00    +0.041 C 
ATOM     23  C   LIG    1       23.665 -33.203  13.299  0.00  0.00    +0.001 C 
ATOM     24  C   LIG    1       22.537 -33.003  14.229  0.00  0.00    +0.000 C 
ATOM     25  C   LIG    1       21.583 -32.064  14.072  0.00  0.00    -0.000 C 
ATOM     26  C   LIG    1       20.523 -31.669  15.007  0.00  0.00    -0.004 C 
ATOM     27  C   LIG    1       19.658 -30.676  14.700  0.00  0.00    -0.024 C 
ATOM     28  C   LIG    1       18.496 -30.101  15.495  0.00  0.00    +0.009 C 
ATOM     29  C   LIG    1       18.318 -28.615  15.126  0.00  0.00    +0.012 C 
ATOM     30  C   LIG    1       17.097 -30.774  15.366  0.00  0.00    +0.018 C 
ATOM     31  C   LIG    1       17.030 -32.078  14.572  0.00  0.00    +0.056 C 
ATOM     32  C   LIG    1       15.777 -32.883  14.941  0.00  0.00    +0.015 C 
ATOM     33  C   LIG    1       17.001 -31.796  13.065  0.00  0.00    +0.167 C 
ATOM     34  O   LIG    1       16.070 -31.140  12.576  0.00  0.00    -0.294 OA
ATOM     35  C   LIG    1       18.106 -32.351  12.129  0.00  0.00    +0.216 C 
ATOM     36  C   LIG    1       18.665 -31.094  11.314  0.00  0.00    +0.176 C 
ATOM     37  C   LIG    1       19.908 -31.333  10.459  0.00  0.00    -0.045 C 
ATOM     38  C   LIG    1       19.739 -32.520   9.519  0.00  0.00    +0.041 C 
ATOM     39  C   LIG    1       21.061 -30.610  10.380  0.00  0.00    -0.015 C 
ATOM     40  C   LIG    1       21.552 -29.246  10.857  0.00  0.00    +0.075 C 
ATOM     41  C   LIG    1       20.565 -28.144  10.456  0.00  0.00    +0.019 C 
ATOM     42  C   LIG    1       22.080 -28.990  12.305  0.00  0.00    +0.143 C 
ATOM     43  O   LIG    1       21.358 -28.446  13.145  0.00  0.00    -0.297 OA
ATOM     44  C   LIG    1       27.439 -29.159   9.055  0.00  0.00    +0.054 C 
ATOM     45  C   LIG    1       27.335 -27.645   8.852  0.00  0.00    +0.013 C 
ATOM     46  C   LIG    1       28.476 -29.279  15.341  0.00  0.00    +0.034 C 
ATOM     47  C   LIG    1       23.534 -29.361  12.651  0.00  0.00    +0.119 C 
ENDROOT
BRANCH   1  48
ATOM     48  C   LIG    1       23.775 -28.268  15.117  0.00  0.00    +0.027 C 
ATOM     49  C   LIG    1       22.711 -29.354  15.342  0.00  0.00    +0.011 C 
BRANCH  48  50
ATOM     50  C   LIG    1       23.290 -26.855  15.500  0.00  0.00    +0.010 C 
BRANCH  50  55
ATOM     51  C   LIG    1       26.213 -25.139  13.771  0.00  0.00    +0.147 C 
ATOM     52  C   LIG    1       25.538 -23.843  13.289  0.00  0.00    +0.147 C 
ATOM     53  C   LIG    1       24.161 -24.166  12.711  0.00  0.00    +0.034 C 
ATOM     54  C   LIG    1       23.429 -25.296  13.445  0.00  0.00    +0.006 C 
ATOM     55  C   LIG    1       23.887 -25.569  14.882  0.00  0.00    -0.008 C 
ATOM     56  C   LIG    1       25.440 -25.701  14.975  0.00  0.00    +0.037 C 
BRANCH  51  58
ATOM     57  C   LIG    1       26.880 -25.737  11.548  0.00  0.00    +0.194 C 
ATOM     58  O   LIG    1       26.283 -26.162  12.765  0.00  0.00    -0.377 OA
ENDBRANCH  51  58
BRANCH  52  59
ATOM     59  O   LIG    1       25.333 -22.896  14.350  0.00  0.00    -0.372 OA
BRANCH  59  60
ATOM     60  C   LIG    1       26.142 -23.109  15.500  0.00  0.00    +0.188 C 
BRANCH  60  61
ATOM     61  C   LIG    1       27.516 -22.499  15.253  0.00  0.00    +0.184 C 
BRANCH  61  62
ATOM     62  O   LIG    1       28.544 -23.454  15.481  0.00  0.00    -0.393 OA
ATOM     63  H   LIG    1       29.316 -22.976  15.830  0.00  0.00    +0.209 HD
ENDBRANCH  61  62
ENDBRANCH  60  61
ENDBRANCH  59  60
ENDBRANCH  52  59
ENDBRANCH  50  55
ENDBRANCH  48  50
ENDBRANCH   1  48
BRANCH  14  64
ATOM     64  O   LIG    1       26.486 -29.183  11.230  0.00  0.00    -0.358 OA
ATOM     65  H   LIG    1       26.624 -28.318  11.656  0.00  0.00    +0.213 HD
ENDBRANCH  14  64
BRANCH  20  66
ATOM     66  O   LIG    1       24.478 -33.698   9.705  0.00  0.00    -0.375 OA
ATOM     67  C   LIG    1       23.570 -32.779   9.122  0.00  0.00    +0.194 C 
ENDBRANCH  20  66
BRANCH  35  68
ATOM     68  O   LIG    1       19.162 -33.068  12.742  0.00  0.00    -0.369 OA
ATOM     69  C   LIG    1       20.026 -33.819  11.900  0.00  0.00    +0.195 C 
ENDBRANCH  35  68
BRANCH  36  70
ATOM     70  O   LIG    1       17.654 -30.629  10.399  0.00  0.00    -0.385 OA
ATOM     71  H   LIG    1       18.123 -30.165   9.675  0.00  0.00    +0.210 HD
ENDBRANCH  36  70
TORSDOF 12
ENDMDL
