MODEL 1
REMARK VINA RESULT:      35.6      0.000      0.000
REMARK  Name = *****
REMARK                            x       y       z     vdW  Elec       q    Type
REMARK                         _______ _______ _______ _____ _____    ______ ____
ROOT
ATOM      1  C   LIG    1       24.958 -25.907   4.060  0.00  0.00    +0.014 C 
ATOM      2  C   LIG    1       24.011 -26.041   5.255  0.00  0.00    +0.056 C 
ATOM      3  C   LIG    1       23.985 -27.515   5.783  0.00  0.00    +0.179 C 
ATOM      4  C   LIG    1       25.303 -27.900   6.454  0.00  0.00    +0.052 C 
ATOM      5  O   LIG    1       23.642 -28.398   4.681  0.00  0.00    -0.461 OA
ATOM      6  C   LIG    1       24.050 -29.694   4.782  0.00  0.00    +0.310 C 
ATOM      7  O   LIG    1       25.129 -30.066   4.337  0.00  0.00    -0.251 OA
ATOM      8  C   LIG    1       22.972 -30.591   5.346  0.00  0.00    +0.152 C 
ATOM      9  C   LIG    1       23.497 -31.801   6.126  0.00  0.00    +0.128 C 
ATOM     10  C   LIG    1       24.343 -32.804   5.311  0.00  0.00    +0.063 C 
ATOM     11  C   LIG    1       25.443 -33.585   6.055  0.00  0.00    +0.117 C 
ATOM     12  C   LIG    1       26.864 -32.974   5.950  0.00  0.00    +0.034 C 
ATOM     13  C   LIG    1       27.560 -32.513   7.247  0.00  0.00    +0.036 C 
ATOM     14  C   LIG    1       27.337 -31.025   7.541  0.00  0.00    +0.143 C 
ATOM     15  C   LIG    1       27.589 -30.613   9.015  0.00  0.00    +0.145 C 
ATOM     16  C   LIG    1       27.046 -29.192   9.254  0.00  0.00    +0.065 C 
ATOM     17  C   LIG    1       26.806 -28.680  10.688  0.00  0.00    +0.122 C 
ATOM     18  C   LIG    1       25.390 -28.066  10.840  0.00  0.00    +0.096 C 
ATOM     19  C   LIG    1       24.193 -29.068  10.832  0.00  0.00    +0.172 C 
ATOM     20  C   LIG    1       23.250 -28.846   9.653  0.00  0.00    +0.097 C 
ATOM     21  C   LIG    1       22.027 -29.765   9.743  0.00  0.00    +0.136 C 
ATOM     22  C   LIG    1       21.356 -29.635  11.111  0.00  0.00    +0.155 C 
ATOM     23  C   LIG    1       22.332 -29.709  12.295  0.00  0.00    +0.141 C 
ATOM     24  C   LIG    1       22.792 -31.076  12.874  0.00  0.00    +0.068 C 
ATOM     25  C   LIG    1       23.424 -30.956  14.291  0.00  0.00    +0.147 C 
ATOM     26  C   LIG    1       24.539 -29.951  14.331  0.00  0.00    +0.004 C 
ATOM     27  C   LIG    1       24.454 -28.806  15.027  0.00  0.00    -0.002 C 
ATOM     28  C   LIG    1       25.432 -27.749  14.963  0.00  0.00    -0.000 C 
ATOM     29  C   LIG    1       25.178 -26.541  15.494  0.00  0.00    +0.000 C 
ATOM     30  C   LIG    1       25.966 -25.383  15.148  0.00  0.00    +0.000 C 
ATOM     31  C   LIG    1       25.491 -24.133  15.272  0.00  0.00    +0.000 C 
ATOM     32  C   LIG    1       26.080 -23.071  14.484  0.00  0.00    +0.000 C 
ATOM     33  C   LIG    1       25.313 -22.107  13.946  0.00  0.00    +0.000 C 
ATOM     34  C   LIG    1       25.731 -21.485  12.705  0.00  0.00    +0.000 C 
ATOM     35  C   LIG    1       24.820 -21.237  11.747  0.00  0.00    +0.000 C 
ATOM     36  C   LIG    1       25.197 -21.220  10.348  0.00  0.00    +0.000 C 
ATOM     37  C   LIG    1       24.310 -21.570   9.403  0.00  0.00    -0.000 C 
ATOM     38  C   LIG    1       24.723 -22.018   8.090  0.00  0.00    -0.004 C 
ATOM     39  C   LIG    1       23.881 -22.691   7.286  0.00  0.00    -0.021 C 
ATOM     40  C   LIG    1       24.239 -23.501   6.041  0.00  0.00    +0.037 C 
ATOM     41  C   LIG    1       25.542 -22.998   5.401  0.00  0.00    +0.014 C 
ATOM     42  O   LIG    1       23.447 -28.841  12.030  0.00  0.00    -0.344 OA
ATOM     43  C   LIG    1       24.306 -25.028   6.401  0.00  0.00    +0.127 C 
ENDROOT
BRANCH   9  44
ATOM     44  O   LIG    1       24.134 -31.364   7.318  0.00  0.00    -0.391 OA
ATOM     45  H   LIG    1       24.849 -32.019   7.483  0.00  0.00    +0.210 HD
ENDBRANCH   9  44
BRANCH  11  46
ATOM     46  O   LIG    1       25.039 -33.820   7.401  0.00  0.00    -0.392 OA
ATOM     47  H   LIG    1       24.133 -33.470   7.496  0.00  0.00    +0.210 HD
ENDBRANCH  11  46
BRANCH  14  48
ATOM     48  O   LIG    1       28.165 -30.228   6.686  0.00  0.00    -0.389 OA
ATOM     49  H   LIG    1       27.581 -29.592   6.235  0.00  0.00    +0.210 HD
ENDBRANCH  14  48
BRANCH  15  50
ATOM     50  O   LIG    1       26.963 -31.523   9.917  0.00  0.00    -0.389 OA
ATOM     51  H   LIG    1       26.096 -31.133  10.166  0.00  0.00    +0.210 HD
ENDBRANCH  15  50
BRANCH  17  52
ATOM     52  O   LIG    1       26.985 -29.654  11.716  0.00  0.00    -0.392 OA
ATOM     53  H   LIG    1       26.413 -29.415  12.476  0.00  0.00    +0.210 HD
ENDBRANCH  17  52
BRANCH  19  54
ATOM     54  O   LIG    1       24.659 -30.403  10.769  0.00  0.00    -0.364 OA
ATOM     55  H   LIG    1       24.062 -30.826  10.114  0.00  0.00    +0.213 HD
ENDBRANCH  19  54
BRANCH  21  56
ATOM     56  O   LIG    1       21.145 -29.368   8.679  0.00  0.00    -0.391 OA
ATOM     57  H   LIG    1       20.770 -28.490   8.876  0.00  0.00    +0.210 HD
ENDBRANCH  21  56
BRANCH  22  58
ATOM     58  C   LIG    1       20.172 -30.558  11.221  0.00  0.00    +0.313 C 
ATOM     59  O   LIG    1       19.795 -31.423  10.438  0.00  0.00    -0.251 OA
BRANCH  58  60
ATOM     60  O   LIG    1       19.449 -30.320  12.335  0.00  0.00    -0.480 OA
ATOM     61  H   LIG    1       19.881 -30.868  13.025  0.00  0.00    +0.295 HD
ENDBRANCH  58  60
ENDBRANCH  22  58
BRANCH  43  62
ATOM     62  O   LIG    1       23.362 -25.343   7.442  0.00  0.00    -0.391 OA
ATOM     63  H   LIG    1       23.831 -25.261   8.292  0.00  0.00    +0.210 HD
ENDBRANCH  43  62
BRANCH  25  64
ATOM     64  O   LIG    1       23.885 -32.260  14.700  0.00  0.00    -0.341 OA
BRANCH  64  65
ATOM     65  C   LIG    1       24.483 -33.025  13.637  0.00  0.00    +0.281 C 
ATOM     66  C   LIG    1       25.018 -32.130  12.492  0.00  0.00    +0.189 C 
ATOM     67  C   LIG    1       26.022 -31.086  13.033  0.00  0.00    +0.116 C 
ATOM     68  C   LIG    1       26.700 -31.590  14.325  0.00  0.00    +0.162 C 
ATOM     69  C   LIG    1       26.839 -33.121  14.256  0.00  0.00    +0.148 C 
ATOM     70  C   LIG    1       27.589 -33.694  15.453  0.00  0.00    +0.040 C 
ATOM     71  O   LIG    1       25.585 -33.813  14.117  0.00  0.00    -0.343 OA
BRANCH  67  72
ATOM     72  N   LIG    1       25.469 -29.722  13.225  0.00  0.00    -0.323 NA
ATOM     73  H   LIG    1       24.512 -29.730  12.857  0.00  0.00    +0.119 HD
ATOM     74  H   LIG    1       25.321 -29.575  14.228  0.00  0.00    +0.119 HD
ENDBRANCH  67  72
BRANCH  66  75
ATOM     75  O   LIG    1       24.022 -31.501  11.678  0.00  0.00    -0.385 OA
ATOM     76  H   LIG    1       23.396 -32.209  11.432  0.00  0.00    +0.210 HD
ENDBRANCH  66  75
BRANCH  68  77
ATOM     77  O   LIG    1       27.964 -30.939  14.463  0.00  0.00    -0.388 OA
ATOM     78  H   LIG    1       28.628 -31.647  14.348  0.00  0.00    +0.210 HD
ENDBRANCH  68  77
ENDBRANCH  64  65
ENDBRANCH  25  64
TORSDOF 15
ENDMDL
