MODEL 1
REMARK VINA RESULT:      -7.7      0.000      0.000
REMARK  Name = *****
REMARK                            x       y       z     vdW  Elec       q    Type
REMARK                         _______ _______ _______ _____ _____    ______ ____
ROOT
ATOM      1  C   LIG    1       25.122 -20.920   7.513  0.00  0.00    +0.021 C 
ATOM      2  C   LIG    1       25.961 -21.438   6.325  0.00  0.00    +0.002 C 
ATOM      3  C   LIG    1       27.039 -22.289   7.003  0.00  0.00    -0.000 C 
ATOM      4  C   LIG    1       28.153 -21.460   7.664  0.00  0.00    +0.043 C 
ATOM      5  C   LIG    1       28.649 -20.292   6.846  0.00  0.00    -0.002 A 
ATOM      6  C   LIG    1       29.885 -19.680   7.166  0.00  0.00    +0.125 A 
ATOM      7  C   LIG    1       30.325 -18.582   6.418  0.00  0.00    +0.046 A 
ATOM      8  C   LIG    1       29.550 -18.080   5.375  0.00  0.00    +0.004 A 
ATOM      9  C   LIG    1       28.327 -18.669   5.071  0.00  0.00    +0.004 A 
ATOM     10  C   LIG    1       27.857 -19.769   5.806  0.00  0.00    -0.040 A 
ATOM     11  C   LIG    1       26.241 -23.066   8.054  0.00  0.00    +0.035 C 
ATOM     12  C   LIG    1       26.556 -20.401   5.375  0.00  0.00    +0.039 C 
ATOM     13  C   LIG    1       25.072 -22.151   8.446  0.00  0.00    +0.118 C 
ENDROOT
BRANCH  13  14
ATOM     14  O   LIG    1       25.168 -21.759   9.808  0.00  0.00    -0.392 OA
ATOM     15  H   LIG    1       24.388 -21.222  10.030  0.00  0.00    +0.210 HD
ENDBRANCH  13  14
BRANCH   1  16
ATOM     16  C   LIG    1       23.715 -20.429   7.121  0.00  0.00    +0.009 C 
BRANCH  16  17
ATOM     17  C   LIG    1       22.889 -21.502   6.383  0.00  0.00    +0.032 C 
BRANCH  17  18
ATOM     18  C   LIG    1       22.528 -21.086   4.948  0.00  0.00    +0.115 C 
BRANCH  18  19
ATOM     19  O   LIG    1       21.187 -21.486   4.669  0.00  0.00    -0.392 OA
ATOM     20  H   LIG    1       20.749 -20.754   4.200  0.00  0.00    +0.210 HD
ENDBRANCH  18  19
BRANCH  18  21
ATOM     21  C   LIG    1       22.677 -19.569   4.738  0.00  0.00    +0.031 C 
BRANCH  21  22
ATOM     22  C   LIG    1       23.756 -19.239   3.704  0.00  0.00    +0.002 C 
BRANCH  22  23
ATOM     23  C   LIG    1       24.259 -17.798   3.829  0.00  0.00    -0.000 C 
BRANCH  23  25
ATOM     24  C   LIG    1       26.171 -16.195   3.351  0.00  0.00    +0.004 C 
ATOM     25  C   LIG    1       25.641 -17.614   3.194  0.00  0.00    -0.003 C 
ENDBRANCH  23  25
ENDBRANCH  22  23
ENDBRANCH  21  22
ENDBRANCH  18  21
ENDBRANCH  17  18
ENDBRANCH  16  17
ENDBRANCH   1  16
BRANCH   6  26
ATOM     26  O   LIG    1       30.580 -20.227   8.221  0.00  0.00    -0.480 OA
BRANCH  26  27
ATOM     27  C   LIG    1       31.679 -19.464   8.730  0.00  0.00    +0.349 C 
BRANCH  27  28
ATOM     28  C   LIG    1       31.221 -18.539   9.850  0.00  0.00    +0.343 C 
ATOM     29  O   LIG    1       30.060 -18.415  10.192  0.00  0.00    -0.247 OA
BRANCH  28  30
ATOM     30  O   LIG    1       32.236 -17.862  10.443  0.00  0.00    -0.478 OA
ATOM     31  H   LIG    1       33.068 -17.981   9.943  0.00  0.00    +0.295 HD
ENDBRANCH  28  30
ENDBRANCH  27  28
ENDBRANCH  26  27
ENDBRANCH   6  26
TORSDOF 13
ENDMDL
MODEL 2
REMARK VINA RESULT:      -7.4      3.892      6.541
REMARK  Name = *****
REMARK                            x       y       z     vdW  Elec       q    Type
REMARK                         _______ _______ _______ _____ _____    ______ ____
ROOT
ATOM      1  C   LIG    1       25.789 -23.302   6.485  0.00  0.00    +0.021 C 
ATOM      2  C   LIG    1       25.797 -22.163   7.526  0.00  0.00    +0.002 C 
ATOM      3  C   LIG    1       25.229 -20.973   6.746  0.00  0.00    -0.000 C 
ATOM      4  C   LIG    1       26.236 -20.337   5.773  0.00  0.00    +0.043 C 
ATOM      5  C   LIG    1       27.631 -20.162   6.323  0.00  0.00    -0.002 A 
ATOM      6  C   LIG    1       28.538 -19.285   5.683  0.00  0.00    +0.125 A 
ATOM      7  C   LIG    1       29.838 -19.148   6.184  0.00  0.00    +0.046 A 
ATOM      8  C   LIG    1       30.246 -19.880   7.297  0.00  0.00    +0.004 A 
ATOM      9  C   LIG    1       29.362 -20.756   7.918  0.00  0.00    +0.004 A 
ATOM     10  C   LIG    1       28.054 -20.917   7.435  0.00  0.00    -0.040 A 
ATOM     11  C   LIG    1       24.057 -21.600   5.985  0.00  0.00    +0.035 C 
ATOM     12  C   LIG    1       27.126 -21.831   8.200  0.00  0.00    +0.039 C 
ATOM     13  C   LIG    1       24.458 -23.061   5.737  0.00  0.00    +0.118 C 
ENDROOT
BRANCH  13  14
ATOM     14  O   LIG    1       24.602 -23.320   4.348  0.00  0.00    -0.392 OA
ATOM     15  H   LIG    1       23.747 -23.624   4.000  0.00  0.00    +0.210 HD
ENDBRANCH  13  14
BRANCH   1  16
ATOM     16  C   LIG    1       25.864 -24.714   7.099  0.00  0.00    +0.009 C 
BRANCH  16  17
ATOM     17  C   LIG    1       24.970 -25.735   6.367  0.00  0.00    +0.032 C 
BRANCH  17  18
ATOM     18  C   LIG    1       25.746 -26.570   5.337  0.00  0.00    +0.115 C 
BRANCH  18  19
ATOM     19  O   LIG    1       27.123 -26.610   5.708  0.00  0.00    -0.392 OA
ATOM     20  H   LIG    1       27.648 -26.350   4.931  0.00  0.00    +0.210 HD
ENDBRANCH  18  19
BRANCH  18  21
ATOM     21  C   LIG    1       25.191 -28.001   5.225  0.00  0.00    +0.031 C 
BRANCH  21  22
ATOM     22  C   LIG    1       24.322 -28.372   6.429  0.00  0.00    +0.002 C 
BRANCH  22  23
ATOM     23  C   LIG    1       24.830 -29.625   7.148  0.00  0.00    -0.000 C 
BRANCH  23  25
ATOM     24  C   LIG    1       26.315 -28.354   8.771  0.00  0.00    +0.004 C 
ATOM     25  C   LIG    1       25.173 -29.347   8.615  0.00  0.00    -0.003 C 
ENDBRANCH  23  25
ENDBRANCH  22  23
ENDBRANCH  21  22
ENDBRANCH  18  21
ENDBRANCH  17  18
ENDBRANCH  16  17
ENDBRANCH   1  16
BRANCH   6  26
ATOM     26  O   LIG    1       28.060 -18.613   4.579  0.00  0.00    -0.480 OA
BRANCH  26  27
ATOM     27  C   LIG    1       28.161 -17.186   4.603  0.00  0.00    +0.349 C 
BRANCH  27  28
ATOM     28  C   LIG    1       27.122 -16.555   3.685  0.00  0.00    +0.343 C 
ATOM     29  O   LIG    1       27.061 -15.363   3.452  0.00  0.00    -0.247 OA
BRANCH  28  30
ATOM     30  O   LIG    1       26.262 -17.453   3.142  0.00  0.00    -0.478 OA
ATOM     31  H   LIG    1       25.568 -16.997   2.626  0.00  0.00    +0.295 HD
ENDBRANCH  28  30
ENDBRANCH  27  28
ENDBRANCH  26  27
ENDBRANCH   6  26
TORSDOF 13
ENDMDL
MODEL 3
REMARK VINA RESULT:      -7.4      1.733      2.340
REMARK  Name = *****
REMARK                            x       y       z     vdW  Elec       q    Type
REMARK                         _______ _______ _______ _____ _____    ______ ____
ROOT
ATOM      1  C   LIG    1       23.810 -20.599   6.163  0.00  0.00    +0.021 C 
ATOM      2  C   LIG    1       24.859 -21.201   5.204  0.00  0.00    +0.002 C 
ATOM      3  C   LIG    1       25.564 -22.249   6.071  0.00  0.00    -0.000 C 
ATOM      4  C   LIG    1       26.560 -21.648   7.077  0.00  0.00    +0.043 C 
ATOM      5  C   LIG    1       27.435 -20.547   6.527  0.00  0.00    -0.002 A 
ATOM      6  C   LIG    1       28.609 -20.166   7.220  0.00  0.00    +0.125 A 
ATOM      7  C   LIG    1       29.401 -19.128   6.717  0.00  0.00    +0.046 A 
ATOM      8  C   LIG    1       29.033 -18.459   5.552  0.00  0.00    +0.004 A 
ATOM      9  C   LIG    1       27.870 -18.819   4.879  0.00  0.00    +0.004 A 
ATOM     10  C   LIG    1       27.054 -19.854   5.362  0.00  0.00    -0.040 A 
ATOM     11  C   LIG    1       24.396 -22.923   6.797  0.00  0.00    +0.035 C 
ATOM     12  C   LIG    1       25.845 -20.240   4.543  0.00  0.00    +0.039 C 
ATOM     13  C   LIG    1       23.316 -21.842   6.938  0.00  0.00    +0.118 C 
ENDROOT
BRANCH  13  14
ATOM     14  O   LIG    1       23.084 -21.529   8.304  0.00  0.00    -0.392 OA
ATOM     15  H   LIG    1       23.223 -20.575   8.430  0.00  0.00    +0.210 HD
ENDBRANCH  13  14
BRANCH   1  16
ATOM     16  C   LIG    1       22.658 -19.862   5.451  0.00  0.00    +0.009 C 
BRANCH  16  17
ATOM     17  C   LIG    1       23.097 -19.195   4.132  0.00  0.00    +0.032 C 
BRANCH  17  18
ATOM     18  C   LIG    1       22.180 -18.032   3.724  0.00  0.00    +0.115 C 
BRANCH  18  19
ATOM     19  O   LIG    1       20.820 -18.460   3.799  0.00  0.00    -0.392 OA
ATOM     20  H   LIG    1       20.768 -19.354   3.418  0.00  0.00    +0.210 HD
ENDBRANCH  18  19
BRANCH  18  21
ATOM     21  C   LIG    1       22.390 -16.797   4.616  0.00  0.00    +0.031 C 
BRANCH  21  22
ATOM     22  C   LIG    1       23.690 -16.063   4.279  0.00  0.00    +0.002 C 
BRANCH  22  23
ATOM     23  C   LIG    1       23.528 -14.541   4.331  0.00  0.00    -0.000 C 
BRANCH  23  25
ATOM     24  C   LIG    1       25.951 -14.726   3.590  0.00  0.00    +0.004 C 
ATOM     25  C   LIG    1       24.743 -13.813   3.749  0.00  0.00    -0.003 C 
ENDBRANCH  23  25
ENDBRANCH  22  23
ENDBRANCH  21  22
ENDBRANCH  18  21
ENDBRANCH  17  18
ENDBRANCH  16  17
ENDBRANCH   1  16
BRANCH   6  26
ATOM     26  O   LIG    1       28.891 -20.867   8.372  0.00  0.00    -0.480 OA
BRANCH  26  27
ATOM     27  C   LIG    1       30.128 -21.586   8.399  0.00  0.00    +0.349 C 
BRANCH  27  28
ATOM     28  C   LIG    1       31.163 -20.849   9.240  0.00  0.00    +0.343 C 
ATOM     29  O   LIG    1       30.979 -19.751   9.728  0.00  0.00    -0.247 OA
BRANCH  28  30
ATOM     30  O   LIG    1       32.320 -21.538   9.401  0.00  0.00    -0.478 OA
ATOM     31  H   LIG    1       32.185 -22.305   9.993  0.00  0.00    +0.295 HD
ENDBRANCH  28  30
ENDBRANCH  27  28
ENDBRANCH  26  27
ENDBRANCH   6  26
TORSDOF 13
ENDMDL
MODEL 4
REMARK VINA RESULT:      -7.3      1.681      3.519
REMARK  Name = *****
REMARK                            x       y       z     vdW  Elec       q    Type
REMARK                         _______ _______ _______ _____ _____    ______ ____
ROOT
ATOM      1  C   LIG    1       25.206 -20.976   7.499  0.00  0.00    +0.021 C 
ATOM      2  C   LIG    1       26.135 -21.525   6.395  0.00  0.00    +0.002 C 
ATOM      3  C   LIG    1       27.249 -22.216   7.190  0.00  0.00    -0.000 C 
ATOM      4  C   LIG    1       28.261 -21.238   7.810  0.00  0.00    +0.043 C 
ATOM      5  C   LIG    1       28.695 -20.111   6.906  0.00  0.00    -0.002 A 
ATOM      6  C   LIG    1       29.861 -19.369   7.211  0.00  0.00    +0.125 A 
ATOM      7  C   LIG    1       30.243 -18.309   6.381  0.00  0.00    +0.046 A 
ATOM      8  C   LIG    1       29.475 -17.971   5.269  0.00  0.00    +0.004 A 
ATOM      9  C   LIG    1       28.319 -18.687   4.976  0.00  0.00    +0.004 A 
ATOM     10  C   LIG    1       27.910 -19.753   5.792  0.00  0.00    -0.040 A 
ATOM     11  C   LIG    1       26.471 -22.960   8.279  0.00  0.00    +0.035 C 
ATOM     12  C   LIG    1       26.685 -20.531   5.376  0.00  0.00    +0.039 C 
ATOM     13  C   LIG    1       25.215 -22.118   8.541  0.00  0.00    +0.118 C 
ENDROOT
BRANCH  13  14
ATOM     14  O   LIG    1       25.218 -21.598   9.863  0.00  0.00    -0.392 OA
ATOM     15  H   LIG    1       26.131 -21.367  10.102  0.00  0.00    +0.210 HD
ENDBRANCH  13  14
BRANCH   1  16
ATOM     16  C   LIG    1       23.781 -20.645   7.012  0.00  0.00    +0.009 C 
BRANCH  16  17
ATOM     17  C   LIG    1       23.255 -21.649   5.966  0.00  0.00    +0.032 C 
BRANCH  17  18
ATOM     18  C   LIG    1       22.538 -22.848   6.605  0.00  0.00    +0.115 C 
BRANCH  18  19
ATOM     19  O   LIG    1       21.298 -23.064   5.933  0.00  0.00    -0.392 OA
ATOM     20  H   LIG    1       21.405 -23.836   5.351  0.00  0.00    +0.210 HD
ENDBRANCH  18  19
BRANCH  18  21
ATOM     21  C   LIG    1       23.395 -24.125   6.546  0.00  0.00    +0.031 C 
BRANCH  21  22
ATOM     22  C   LIG    1       24.423 -24.071   5.414  0.00  0.00    +0.002 C 
BRANCH  22  23
ATOM     23  C   LIG    1       25.005 -25.451   5.092  0.00  0.00    -0.000 C 
BRANCH  23  25
ATOM     24  C   LIG    1       25.932 -26.891   6.968  0.00  0.00    +0.004 C 
ATOM     25  C   LIG    1       24.693 -26.477   6.185  0.00  0.00    -0.003 C 
ENDBRANCH  23  25
ENDBRANCH  22  23
ENDBRANCH  21  22
ENDBRANCH  18  21
ENDBRANCH  17  18
ENDBRANCH  16  17
ENDBRANCH   1  16
BRANCH   6  26
ATOM     26  O   LIG    1       30.552 -19.757   8.338  0.00  0.00    -0.480 OA
BRANCH  26  27
ATOM     27  C   LIG    1       31.400 -18.775   8.941  0.00  0.00    +0.349 C 
BRANCH  27  28
ATOM     28  C   LIG    1       30.620 -17.927   9.939  0.00  0.00    +0.343 C 
ATOM     29  O   LIG    1       30.070 -16.881   9.652  0.00  0.00    -0.247 OA
BRANCH  28  30
ATOM     30  O   LIG    1       30.592 -18.451  11.189  0.00  0.00    -0.478 OA
ATOM     31  H   LIG    1       31.165 -19.242  11.245  0.00  0.00    +0.295 HD
ENDBRANCH  28  30
ENDBRANCH  27  28
ENDBRANCH  26  27
ENDBRANCH   6  26
TORSDOF 13
ENDMDL
MODEL 5
REMARK VINA RESULT:      -7.1      4.077      6.546
REMARK  Name = *****
REMARK                            x       y       z     vdW  Elec       q    Type
REMARK                         _______ _______ _______ _____ _____    ______ ____
ROOT
ATOM      1  C   LIG    1       24.081 -20.085   5.605  0.00  0.00    +0.021 C 
ATOM      2  C   LIG    1       23.257 -19.589   4.397  0.00  0.00    +0.002 C 
ATOM      3  C   LIG    1       24.311 -19.435   3.296  0.00  0.00    -0.000 C 
ATOM      4  C   LIG    1       25.184 -18.177   3.450  0.00  0.00    +0.043 C 
ATOM      5  C   LIG    1       24.433 -16.924   3.828  0.00  0.00    -0.002 A 
ATOM      6  C   LIG    1       25.040 -15.657   3.654  0.00  0.00    +0.125 A 
ATOM      7  C   LIG    1       24.348 -14.501   4.031  0.00  0.00    +0.046 A 
ATOM      8  C   LIG    1       23.075 -14.591   4.589  0.00  0.00    +0.004 A 
ATOM      9  C   LIG    1       22.483 -15.835   4.779  0.00  0.00    +0.004 A 
ATOM     10  C   LIG    1       23.155 -17.012   4.414  0.00  0.00    -0.040 A 
ATOM     11  C   LIG    1       25.152 -20.705   3.457  0.00  0.00    +0.035 C 
ATOM     12  C   LIG    1       22.425 -18.323   4.582  0.00  0.00    +0.039 C 
ATOM     13  C   LIG    1       25.080 -21.064   4.947  0.00  0.00    +0.118 C 
ENDROOT
BRANCH  13  14
ATOM     14  O   LIG    1       26.360 -20.967   5.556  0.00  0.00    -0.392 OA
ATOM     15  H   LIG    1       26.333 -20.256   6.219  0.00  0.00    +0.210 HD
ENDBRANCH  13  14
BRANCH   1  16
ATOM     16  C   LIG    1       23.238 -20.765   6.703  0.00  0.00    +0.009 C 
BRANCH  16  17
ATOM     17  C   LIG    1       23.855 -22.088   7.200  0.00  0.00    +0.032 C 
BRANCH  17  18
ATOM     18  C   LIG    1       22.937 -23.296   6.959  0.00  0.00    +0.115 C 
BRANCH  18  19
ATOM     19  O   LIG    1       21.957 -22.950   5.981  0.00  0.00    -0.392 OA
ATOM     20  H   LIG    1       21.593 -22.080   6.219  0.00  0.00    +0.210 HD
ENDBRANCH  18  19
BRANCH  18  21
ATOM     21  C   LIG    1       23.728 -24.531   6.494  0.00  0.00    +0.031 C 
BRANCH  21  22
ATOM     22  C   LIG    1       25.240 -24.312   6.593  0.00  0.00    +0.002 C 
BRANCH  22  23
ATOM     23  C   LIG    1       26.036 -25.521   6.094  0.00  0.00    -0.000 C 
BRANCH  23  25
ATOM     24  C   LIG    1       24.999 -27.840   6.144  0.00  0.00    +0.004 C 
ATOM     25  C   LIG    1       25.758 -26.777   6.926  0.00  0.00    -0.003 C 
ENDBRANCH  23  25
ENDBRANCH  22  23
ENDBRANCH  21  22
ENDBRANCH  18  21
ENDBRANCH  17  18
ENDBRANCH  16  17
ENDBRANCH   1  16
BRANCH   6  26
ATOM     26  O   LIG    1       26.306 -15.658   3.111  0.00  0.00    -0.480 OA
BRANCH  26  27
ATOM     27  C   LIG    1       26.823 -14.394   2.684  0.00  0.00    +0.349 C 
BRANCH  27  28
ATOM     28  C   LIG    1       27.789 -13.829   3.717  0.00  0.00    +0.343 C 
ATOM     29  O   LIG    1       27.486 -13.602   4.873  0.00  0.00    -0.247 OA
BRANCH  28  30
ATOM     30  O   LIG    1       29.034 -13.601   3.228  0.00  0.00    -0.478 OA
ATOM     31  H   LIG    1       29.364 -14.386   2.747  0.00  0.00    +0.295 HD
ENDBRANCH  28  30
ENDBRANCH  27  28
ENDBRANCH  26  27
ENDBRANCH   6  26
TORSDOF 13
ENDMDL
MODEL 6
REMARK VINA RESULT:      -7.1      7.450     11.191
REMARK  Name = *****
REMARK                            x       y       z     vdW  Elec       q    Type
REMARK                         _______ _______ _______ _____ _____    ______ ____
ROOT
ATOM      1  C   LIG    1       25.057 -28.462   7.217  0.00  0.00    +0.021 C 
ATOM      2  C   LIG    1       25.706 -29.548   8.101  0.00  0.00    +0.002 C 
ATOM      3  C   LIG    1       24.942 -30.818   7.711  0.00  0.00    -0.000 C 
ATOM      4  C   LIG    1       23.534 -30.902   8.324  0.00  0.00    +0.043 C 
ATOM      5  C   LIG    1       23.445 -30.495   9.775  0.00  0.00    -0.002 A 
ATOM      6  C   LIG    1       22.313 -30.859  10.543  0.00  0.00    +0.125 A 
ATOM      7  C   LIG    1       22.227 -30.456  11.880  0.00  0.00    +0.046 A 
ATOM      8  C   LIG    1       23.238 -29.688  12.453  0.00  0.00    +0.004 A 
ATOM      9  C   LIG    1       24.342 -29.314  11.696  0.00  0.00    +0.004 A 
ATOM     10  C   LIG    1       24.455 -29.700  10.351  0.00  0.00    -0.040 A 
ATOM     11  C   LIG    1       24.867 -30.709   6.186  0.00  0.00    +0.035 C 
ATOM     12  C   LIG    1       25.714 -29.319   9.610  0.00  0.00    +0.039 C 
ATOM     13  C   LIG    1       24.845 -29.205   5.878  0.00  0.00    +0.118 C 
ENDROOT
BRANCH  13  14
ATOM     14  O   LIG    1       23.615 -28.827   5.277  0.00  0.00    -0.392 OA
ATOM     15  H   LIG    1       23.753 -28.742   4.318  0.00  0.00    +0.210 HD
ENDBRANCH  13  14
BRANCH   1  16
ATOM     16  C   LIG    1       25.916 -27.194   7.048  0.00  0.00    +0.009 C 
BRANCH  16  17
ATOM     17  C   LIG    1       25.922 -26.659   5.602  0.00  0.00    +0.032 C 
BRANCH  17  18
ATOM     18  C   LIG    1       25.010 -25.437   5.419  0.00  0.00    +0.115 C 
BRANCH  18  19
ATOM     19  O   LIG    1       23.650 -25.869   5.378  0.00  0.00    -0.392 OA
ATOM     20  H   LIG    1       23.485 -26.408   6.171  0.00  0.00    +0.210 HD
ENDBRANCH  18  19
BRANCH  18  21
ATOM     21  C   LIG    1       25.199 -24.409   6.548  0.00  0.00    +0.031 C 
BRANCH  21  22
ATOM     22  C   LIG    1       24.699 -23.020   6.146  0.00  0.00    +0.002 C 
BRANCH  22  23
ATOM     23  C   LIG    1       23.424 -22.621   6.896  0.00  0.00    -0.000 C 
BRANCH  23  25
ATOM     24  C   LIG    1       22.982 -20.313   5.931  0.00  0.00    +0.004 C 
ATOM     25  C   LIG    1       23.363 -21.115   7.168  0.00  0.00    -0.003 C 
ENDBRANCH  23  25
ENDBRANCH  22  23
ENDBRANCH  21  22
ENDBRANCH  18  21
ENDBRANCH  17  18
ENDBRANCH  16  17
ENDBRANCH   1  16
BRANCH   6  26
ATOM     26  O   LIG    1       21.352 -31.604   9.895  0.00  0.00    -0.480 OA
BRANCH  26  27
ATOM     27  C   LIG    1       20.283 -32.111  10.700  0.00  0.00    +0.349 C 
BRANCH  27  28
ATOM     28  C   LIG    1       18.935 -31.657  10.155  0.00  0.00    +0.343 C 
ATOM     29  O   LIG    1       17.975 -32.393  10.027  0.00  0.00    -0.247 OA
BRANCH  28  30
ATOM     30  O   LIG    1       18.899 -30.342   9.824  0.00  0.00    -0.478 OA
ATOM     31  H   LIG    1       19.743 -30.066   9.414  0.00  0.00    +0.295 HD
ENDBRANCH  28  30
ENDBRANCH  27  28
ENDBRANCH  26  27
ENDBRANCH   6  26
TORSDOF 13
ENDMDL
MODEL 7
REMARK VINA RESULT:      -7.1      4.294      7.789
REMARK  Name = *****
REMARK                            x       y       z     vdW  Elec       q    Type
REMARK                         _______ _______ _______ _____ _____    ______ ____
ROOT
ATOM      1  C   LIG    1       25.321 -24.567   6.593  0.00  0.00    +0.021 C 
ATOM      2  C   LIG    1       25.177 -23.324   7.498  0.00  0.00    +0.002 C 
ATOM      3  C   LIG    1       23.910 -22.649   6.964  0.00  0.00    -0.000 C 
ATOM      4  C   LIG    1       24.125 -21.889   5.644  0.00  0.00    +0.043 C 
ATOM      5  C   LIG    1       25.389 -21.067   5.581  0.00  0.00    -0.002 A 
ATOM      6  C   LIG    1       25.528 -20.061   4.595  0.00  0.00    +0.125 A 
ATOM      7  C   LIG    1       26.714 -19.320   4.527  0.00  0.00    +0.046 A 
ATOM      8  C   LIG    1       27.759 -19.578   5.411  0.00  0.00    +0.004 A 
ATOM      9  C   LIG    1       27.632 -20.578   6.369  0.00  0.00    +0.004 A 
ATOM     10  C   LIG    1       26.457 -21.340   6.458  0.00  0.00    -0.040 A 
ATOM     11  C   LIG    1       22.959 -23.833   6.764  0.00  0.00    +0.035 C 
ATOM     12  C   LIG    1       26.360 -22.361   7.567  0.00  0.00    +0.039 C 
ATOM     13  C   LIG    1       23.856 -25.034   6.434  0.00  0.00    +0.118 C 
ENDROOT
BRANCH  13  14
ATOM     14  O   LIG    1       23.614 -25.504   5.116  0.00  0.00    -0.392 OA
ATOM     15  H   LIG    1       22.854 -25.020   4.750  0.00  0.00    +0.210 HD
ENDBRANCH  13  14
BRANCH   1  16
ATOM     16  C   LIG    1       26.223 -25.670   7.182  0.00  0.00    +0.009 C 
BRANCH  16  17
ATOM     17  C   LIG    1       25.789 -27.089   6.761  0.00  0.00    +0.032 C 
BRANCH  17  18
ATOM     18  C   LIG    1       26.007 -27.354   5.264  0.00  0.00    +0.115 C 
BRANCH  18  19
ATOM     19  O   LIG    1       27.408 -27.400   4.995  0.00  0.00    -0.392 OA
ATOM     20  H   LIG    1       27.852 -26.812   5.631  0.00  0.00    +0.210 HD
ENDBRANCH  18  19
BRANCH  18  21
ATOM     21  C   LIG    1       25.344 -28.668   4.813  0.00  0.00    +0.031 C 
BRANCH  21  22
ATOM     22  C   LIG    1       24.258 -29.124   5.790  0.00  0.00    +0.002 C 
BRANCH  22  23
ATOM     23  C   LIG    1       24.485 -30.556   6.284  0.00  0.00    -0.000 C 
BRANCH  23  25
ATOM     24  C   LIG    1       26.493 -32.105   6.141  0.00  0.00    +0.004 C 
ATOM     25  C   LIG    1       25.429 -31.339   5.367  0.00  0.00    -0.003 C 
ENDBRANCH  23  25
ENDBRANCH  22  23
ENDBRANCH  21  22
ENDBRANCH  18  21
ENDBRANCH  17  18
ENDBRANCH  16  17
ENDBRANCH   1  16
BRANCH   6  26
ATOM     26  O   LIG    1       24.455 -19.883   3.751  0.00  0.00    -0.480 OA
BRANCH  26  27
ATOM     27  C   LIG    1       23.811 -18.605   3.792  0.00  0.00    +0.349 C 
BRANCH  27  28
ATOM     28  C   LIG    1       22.418 -18.721   4.397  0.00  0.00    +0.343 C 
ATOM     29  O   LIG    1       21.397 -18.430   3.802  0.00  0.00    -0.247 OA
BRANCH  28  30
ATOM     30  O   LIG    1       22.417 -19.186   5.671  0.00  0.00    -0.478 OA
ATOM     31  H   LIG    1       22.068 -18.509   6.285  0.00  0.00    +0.295 HD
ENDBRANCH  28  30
ENDBRANCH  27  28
ENDBRANCH  26  27
ENDBRANCH   6  26
TORSDOF 13
ENDMDL
MODEL 8
REMARK VINA RESULT:      -7.0      6.138      9.444
REMARK  Name = *****
REMARK                            x       y       z     vdW  Elec       q    Type
REMARK                         _______ _______ _______ _____ _____    ______ ____
ROOT
ATOM      1  C   LIG    1       25.327 -25.691   6.724  0.00  0.00    +0.021 C 
ATOM      2  C   LIG    1       26.438 -26.761   6.788  0.00  0.00    +0.002 C 
ATOM      3  C   LIG    1       26.120 -27.665   5.593  0.00  0.00    -0.000 C 
ATOM      4  C   LIG    1       24.936 -28.617   5.838  0.00  0.00    +0.043 C 
ATOM      5  C   LIG    1       24.922 -29.282   7.192  0.00  0.00    -0.002 A 
ATOM      6  C   LIG    1       24.115 -30.424   7.411  0.00  0.00    +0.125 A 
ATOM      7  C   LIG    1       24.088 -31.019   8.677  0.00  0.00    +0.046 A 
ATOM      8  C   LIG    1       24.838 -30.486   9.724  0.00  0.00    +0.004 A 
ATOM      9  C   LIG    1       25.618 -29.354   9.517  0.00  0.00    +0.004 A 
ATOM     10  C   LIG    1       25.661 -28.733   8.259  0.00  0.00    -0.040 A 
ATOM     11  C   LIG    1       25.790 -26.657   4.489  0.00  0.00    +0.035 C 
ATOM     12  C   LIG    1       26.584 -27.550   8.087  0.00  0.00    +0.039 C 
ATOM     13  C   LIG    1       25.197 -25.436   5.205  0.00  0.00    +0.118 C 
ENDROOT
BRANCH  13  14
ATOM     14  O   LIG    1       23.838 -25.241   4.838  0.00  0.00    -0.392 OA
ATOM     15  H   LIG    1       23.361 -24.881   5.605  0.00  0.00    +0.210 HD
ENDBRANCH  13  14
BRANCH   1  16
ATOM     16  C   LIG    1       25.652 -24.402   7.504  0.00  0.00    +0.009 C 
BRANCH  16  17
ATOM     17  C   LIG    1       25.815 -23.171   6.590  0.00  0.00    +0.032 C 
BRANCH  17  18
ATOM     18  C   LIG    1       25.242 -21.890   7.214  0.00  0.00    +0.115 C 
BRANCH  18  19
ATOM     19  O   LIG    1       25.810 -20.756   6.560  0.00  0.00    -0.392 OA
ATOM     20  H   LIG    1       25.801 -20.014   7.190  0.00  0.00    +0.210 HD
ENDBRANCH  18  19
BRANCH  18  21
ATOM     21  C   LIG    1       23.707 -21.841   7.111  0.00  0.00    +0.031 C 
BRANCH  21  22
ATOM     22  C   LIG    1       23.209 -20.467   6.657  0.00  0.00    +0.002 C 
BRANCH  22  23
ATOM     23  C   LIG    1       22.553 -20.514   5.274  0.00  0.00    -0.000 C 
BRANCH  23  25
ATOM     24  C   LIG    1       22.122 -18.134   4.496  0.00  0.00    +0.004 C 
ATOM     25  C   LIG    1       23.015 -19.361   4.377  0.00  0.00    -0.003 C 
ENDBRANCH  23  25
ENDBRANCH  22  23
ENDBRANCH  21  22
ENDBRANCH  18  21
ENDBRANCH  17  18
ENDBRANCH  16  17
ENDBRANCH   1  16
BRANCH   6  26
ATOM     26  O   LIG    1       23.393 -30.875   6.328  0.00  0.00    -0.480 OA
BRANCH  26  27
ATOM     27  C   LIG    1       23.571 -32.248   5.965  0.00  0.00    +0.349 C 
BRANCH  27  28
ATOM     28  C   LIG    1       24.962 -32.478   5.388  0.00  0.00    +0.343 C 
ATOM     29  O   LIG    1       25.815 -33.154   5.930  0.00  0.00    -0.247 OA
BRANCH  28  30
ATOM     30  O   LIG    1       25.165 -31.856   4.199  0.00  0.00    -0.478 OA
ATOM     31  H   LIG    1       24.334 -31.458   3.872  0.00  0.00    +0.295 HD
ENDBRANCH  28  30
ENDBRANCH  27  28
ENDBRANCH  26  27
ENDBRANCH   6  26
TORSDOF 13
ENDMDL
MODEL 9
REMARK VINA RESULT:      -6.9      6.251      9.738
REMARK  Name = *****
REMARK                            x       y       z     vdW  Elec       q    Type
REMARK                         _______ _______ _______ _____ _____    ______ ____
ROOT
ATOM      1  C   LIG    1       25.129 -25.984   6.655  0.00  0.00    +0.021 C 
ATOM      2  C   LIG    1       26.283 -27.001   6.785  0.00  0.00    +0.002 C 
ATOM      3  C   LIG    1       25.864 -28.127   5.835  0.00  0.00    -0.000 C 
ATOM      4  C   LIG    1       24.758 -29.033   6.402  0.00  0.00    +0.043 C 
ATOM      5  C   LIG    1       24.933 -29.420   7.850  0.00  0.00    -0.002 A 
ATOM      6  C   LIG    1       24.205 -30.511   8.383  0.00  0.00    +0.125 A 
ATOM      7  C   LIG    1       24.353 -30.848   9.733  0.00  0.00    +0.046 A 
ATOM      8  C   LIG    1       25.198 -30.107  10.557  0.00  0.00    +0.004 A 
ATOM      9  C   LIG    1       25.900 -29.023  10.041  0.00  0.00    +0.004 A 
ATOM     10  C   LIG    1       25.769 -28.660   8.692  0.00  0.00    -0.040 A 
ATOM     11  C   LIG    1       25.365 -27.360   4.607  0.00  0.00    +0.035 C 
ATOM     12  C   LIG    1       26.615 -27.518   8.183  0.00  0.00    +0.039 C 
ATOM     13  C   LIG    1       24.810 -26.034   5.143  0.00  0.00    +0.118 C 
ENDROOT
BRANCH  13  14
ATOM     14  O   LIG    1       23.411 -25.938   4.917  0.00  0.00    -0.392 OA
ATOM     15  H   LIG    1       23.220 -25.067   4.529  0.00  0.00    +0.210 HD
ENDBRANCH  13  14
BRANCH   1  16
ATOM     16  C   LIG    1       25.490 -24.561   7.127  0.00  0.00    +0.009 C 
BRANCH  16  17
ATOM     17  C   LIG    1       25.150 -23.478   6.083  0.00  0.00    +0.032 C 
BRANCH  17  18
ATOM     18  C   LIG    1       23.835 -22.748   6.397  0.00  0.00    +0.115 C 
BRANCH  18  19
ATOM     19  O   LIG    1       22.794 -23.709   6.562  0.00  0.00    -0.392 OA
ATOM     20  H   LIG    1       22.168 -23.600   5.824  0.00  0.00    +0.210 HD
ENDBRANCH  18  19
BRANCH  18  21
ATOM     21  C   LIG    1       23.952 -21.878   7.661  0.00  0.00    +0.031 C 
BRANCH  21  22
ATOM     22  C   LIG    1       24.912 -20.704   7.461  0.00  0.00    +0.002 C 
BRANCH  22  23
ATOM     23  C   LIG    1       26.027 -20.680   8.510  0.00  0.00    -0.000 C 
BRANCH  23  25
ATOM     24  C   LIG    1       27.352 -20.381   6.363  0.00  0.00    +0.004 C 
ATOM     25  C   LIG    1       27.401 -20.420   7.884  0.00  0.00    -0.003 C 
ENDBRANCH  23  25
ENDBRANCH  22  23
ENDBRANCH  21  22
ENDBRANCH  18  21
ENDBRANCH  17  18
ENDBRANCH  16  17
ENDBRANCH   1  16
BRANCH   6  26
ATOM     26  O   LIG    1       23.380 -31.179   7.504  0.00  0.00    -0.480 OA
BRANCH  26  27
ATOM     27  C   LIG    1       23.740 -32.526   7.183  0.00  0.00    +0.349 C 
BRANCH  27  28
ATOM     28  C   LIG    1       23.559 -32.793   5.694  0.00  0.00    +0.343 C 
ATOM     29  O   LIG    1       22.668 -33.483   5.235  0.00  0.00    -0.247 OA
BRANCH  28  30
ATOM     30  O   LIG    1       24.487 -32.182   4.916  0.00  0.00    -0.478 OA
ATOM     31  H   LIG    1       24.659 -31.273   5.234  0.00  0.00    +0.295 HD
ENDBRANCH  28  30
ENDBRANCH  27  28
ENDBRANCH  26  27
ENDBRANCH   6  26
TORSDOF 13
ENDMDL
