MODEL 1
REMARK VINA RESULT:      -5.1      0.000      0.000
REMARK  Name = *****
REMARK                            x       y       z     vdW  Elec       q    Type
REMARK                         _______ _______ _______ _____ _____    ______ ____
ROOT
ATOM      1  C   LIG    1       20.959 -30.358  11.607  0.00  0.00    +0.169 C 
ATOM      2  C   LIG    1       21.971 -30.664  10.460  0.00  0.00    +0.175 C 
ATOM      3  C   LIG    1       21.951 -32.156  10.015  0.00  0.00    +0.169 C 
ATOM      4  C   LIG    1       21.478 -33.136  11.110  0.00  0.00    +0.084 C 
ATOM      5  C   LIG    1       20.070 -32.746  11.610  0.00  0.00    +0.042 C 
ATOM      6  C   LIG    1       19.720 -31.267  11.344  0.00  0.00    +0.084 C 
ENDROOT
BRANCH   4   7
ATOM      7  N   LIG    1       22.449 -33.250  12.201  0.00  0.00    -0.325 NA
ATOM      8  H   LIG    1       23.342 -33.575  11.819  0.00  0.00    +0.118 HD
ATOM      9  H   LIG    1       22.663 -32.302  12.540  0.00  0.00    +0.118 HD
ENDBRANCH   4   7
BRANCH   6  10
ATOM     10  N   LIG    1       18.466 -30.901  12.013  0.00  0.00    -0.325 NA
ATOM     11  H   LIG    1       18.626 -30.204  12.735  0.00  0.00    +0.118 HD
ATOM     12  H   LIG    1       17.830 -30.480  11.336  0.00  0.00    +0.118 HD
ENDBRANCH   6  10
BRANCH   2  13
ATOM     13  O   LIG    1       23.295 -30.216  10.772  0.00  0.00    -0.387 OA
ATOM     14  H   LIG    1       23.816 -31.031  10.927  0.00  0.00    +0.210 HD
ENDBRANCH   2  13
BRANCH   1  15
ATOM     15  O   LIG    1       21.623 -30.589  12.866  0.00  0.00    -0.342 OA
BRANCH  15  18
ATOM     16  C   LIG    1       19.944 -27.783  14.337  0.00  0.00    +0.138 C 
ATOM     17  O   LIG    1       20.055 -29.091  13.771  0.00  0.00    -0.345 OA
ATOM     18  C   LIG    1       21.373 -29.631  13.898  0.00  0.00    +0.268 C 
ATOM     19  C   LIG    1       22.503 -28.535  13.886  0.00  0.00    +0.107 C 
ATOM     20  C   LIG    1       22.082 -27.339  13.030  0.00  0.00    +0.026 C 
ATOM     21  C   LIG    1       20.713 -26.791  13.454  0.00  0.00    +0.035 C 
BRANCH  19  22
ATOM     22  N   LIG    1       23.830 -29.021  13.487  0.00  0.00    -0.323 NA
ATOM     23  H   LIG    1       23.932 -28.985  12.475  0.00  0.00    +0.119 HD
ATOM     24  H   LIG    1       23.892 -30.011  13.739  0.00  0.00    +0.119 HD
ENDBRANCH  19  22
BRANCH  16  25
ATOM     25  C   LIG    1       18.450 -27.420  14.571  0.00  0.00    +0.079 C 
ATOM     26  C   LIG    1       18.047 -26.081  13.941  0.00  0.00    +0.026 C 
BRANCH  25  28
ATOM     27  C   LIG    1       16.130 -28.200  14.302  0.00  0.00    +0.101 C 
ATOM     28  N   LIG    1       17.533 -28.428  13.991  0.00  0.00    -0.314 NA
ATOM     29  H   LIG    1       17.812 -29.342  14.348  0.00  0.00    +0.122 HD
ENDBRANCH  25  28
ENDBRANCH  16  25
ENDBRANCH  15  18
ENDBRANCH   1  15
BRANCH   3  30
ATOM     30  O   LIG    1       23.219 -32.481   9.431  0.00  0.00    -0.341 OA
BRANCH  30  31
ATOM     31  C   LIG    1       23.322 -32.330   8.010  0.00  0.00    +0.281 C 
ATOM     32  C   LIG    1       24.318 -31.245   7.515  0.00  0.00    +0.190 C 
ATOM     33  C   LIG    1       25.717 -31.474   8.163  0.00  0.00    +0.121 C 
ATOM     34  C   LIG    1       26.023 -33.010   8.227  0.00  0.00    +0.104 C 
ATOM     35  C   LIG    1       27.482 -33.291   7.857  0.00  0.00    +0.045 C 
ATOM     36  C   LIG    1       25.093 -33.822   7.296  0.00  0.00    +0.199 C 
ATOM     37  O   LIG    1       23.687 -33.602   7.465  0.00  0.00    -0.346 OA
BRANCH  33  38
ATOM     38  N   LIG    1       25.792 -30.766   9.472  0.00  0.00    -0.311 NA
ATOM     39  H   LIG    1       25.046 -30.061   9.461  0.00  0.00    +0.122 HD
ATOM     40  C   LIG    1       27.055 -30.120   9.775  0.00  0.00    +0.101 C 
ENDBRANCH  33  38
BRANCH  32  41
ATOM     41  O   LIG    1       23.861 -29.896   7.705  0.00  0.00    -0.385 OA
ATOM     42  H   LIG    1       24.345 -29.335   7.089  0.00  0.00    +0.210 HD
ENDBRANCH  32  41
BRANCH  34  43
ATOM     43  O   LIG    1       25.842 -33.508   9.565  0.00  0.00    -0.385 OA
ATOM     44  H   LIG    1       24.900 -33.775   9.614  0.00  0.00    +0.210 HD
ENDBRANCH  34  43
ENDBRANCH  30  31
ENDBRANCH   3  30
TORSDOF 13
ENDMDL
MODEL 2
REMARK VINA RESULT:      -4.8      3.297      4.498
REMARK  Name = *****
REMARK                            x       y       z     vdW  Elec       q    Type
REMARK                         _______ _______ _______ _____ _____    ______ ____
ROOT
ATOM      1  C   LIG    1       24.875 -31.288  11.888  0.00  0.00    +0.169 C 
ATOM      2  C   LIG    1       24.407 -30.898  10.452  0.00  0.00    +0.175 C 
ATOM      3  C   LIG    1       24.618 -32.039   9.414  0.00  0.00    +0.169 C 
ATOM      4  C   LIG    1       25.751 -33.022   9.777  0.00  0.00    +0.084 C 
ATOM      5  C   LIG    1       25.495 -33.651  11.164  0.00  0.00    +0.042 C 
ATOM      6  C   LIG    1       24.555 -32.805  12.049  0.00  0.00    +0.084 C 
ENDROOT
BRANCH   4   7
ATOM      7  N   LIG    1       27.072 -32.397   9.680  0.00  0.00    -0.325 NA
ATOM      8  H   LIG    1       26.975 -31.484   9.227  0.00  0.00    +0.118 HD
ATOM      9  H   LIG    1       27.386 -32.163  10.631  0.00  0.00    +0.118 HD
ENDBRANCH   4   7
BRANCH   6  10
ATOM     10  N   LIG    1       24.508 -33.339  13.416  0.00  0.00    -0.325 NA
ATOM     11  H   LIG    1       23.558 -33.585  13.680  0.00  0.00    +0.118 HD
ATOM     12  H   LIG    1       25.057 -34.197  13.464  0.00  0.00    +0.118 HD
ENDBRANCH   6  10
BRANCH   2  13
ATOM     13  O   LIG    1       24.982 -29.662  10.012  0.00  0.00    -0.387 OA
ATOM     14  H   LIG    1       25.212 -29.174  10.829  0.00  0.00    +0.210 HD
ENDBRANCH   2  13
BRANCH   1  15
ATOM     15  O   LIG    1       26.269 -30.946  12.015  0.00  0.00    -0.342 OA
BRANCH  15  18
ATOM     16  C   LIG    1       25.710 -27.808  13.657  0.00  0.00    +0.138 C 
ATOM     17  O   LIG    1       25.409 -29.148  13.259  0.00  0.00    -0.345 OA
ATOM     18  C   LIG    1       26.582 -29.898  12.937  0.00  0.00    +0.268 C 
ATOM     19  C   LIG    1       27.751 -29.018  12.358  0.00  0.00    +0.107 C 
ATOM     20  C   LIG    1       27.190 -27.820  11.588  0.00  0.00    +0.026 C 
ATOM     21  C   LIG    1       26.191 -27.020  12.432  0.00  0.00    +0.035 C 
BRANCH  19  22
ATOM     22  N   LIG    1       28.732 -29.749  11.545  0.00  0.00    -0.323 NA
ATOM     23  H   LIG    1       29.239 -30.419  12.119  0.00  0.00    +0.119 HD
ATOM     24  H   LIG    1       29.430 -29.078  11.215  0.00  0.00    +0.119 HD
ENDBRANCH  19  22
BRANCH  16  25
ATOM     25  C   LIG    1       24.496 -27.178  14.399  0.00  0.00    +0.079 C 
ATOM     26  C   LIG    1       24.422 -25.654  14.250  0.00  0.00    +0.026 C 
BRANCH  25  28
ATOM     27  C   LIG    1       22.388 -26.693  13.223  0.00  0.00    +0.101 C 
ATOM     28  N   LIG    1       23.204 -27.694  13.892  0.00  0.00    -0.314 NA
ATOM     29  H   LIG    1       22.687 -28.071  14.688  0.00  0.00    +0.122 HD
ENDBRANCH  25  28
ENDBRANCH  16  25
ENDBRANCH  15  18
ENDBRANCH   1  15
BRANCH   3  30
ATOM     30  O   LIG    1       24.726 -31.462   8.106  0.00  0.00    -0.341 OA
BRANCH  30  31
ATOM     31  C   LIG    1       23.870 -32.009   7.097  0.00  0.00    +0.281 C 
ATOM     32  C   LIG    1       23.852 -31.252   5.741  0.00  0.00    +0.190 C 
ATOM     33  C   LIG    1       25.308 -31.074   5.213  0.00  0.00    +0.121 C 
ATOM     34  C   LIG    1       26.137 -32.373   5.504  0.00  0.00    +0.104 C 
ATOM     35  C   LIG    1       27.029 -32.729   4.313  0.00  0.00    +0.045 C 
ATOM     36  C   LIG    1       25.224 -33.576   5.838  0.00  0.00    +0.199 C 
ATOM     37  O   LIG    1       24.266 -33.368   6.884  0.00  0.00    -0.346 OA
BRANCH  33  38
ATOM     38  N   LIG    1       25.898 -29.821   5.762  0.00  0.00    -0.311 NA
ATOM     39  H   LIG    1       25.482 -29.690   6.692  0.00  0.00    +0.122 HD
ATOM     40  C   LIG    1       25.690 -28.621   4.974  0.00  0.00    +0.101 C 
ENDBRANCH  33  38
BRANCH  32  41
ATOM     41  O   LIG    1       23.145 -30.002   5.774  0.00  0.00    -0.385 OA
ATOM     42  H   LIG    1       22.216 -30.187   5.594  0.00  0.00    +0.210 HD
ENDBRANCH  32  41
BRANCH  34  43
ATOM     43  O   LIG    1       27.017 -32.172   6.624  0.00  0.00    -0.385 OA
ATOM     44  H   LIG    1       27.361 -31.260   6.520  0.00  0.00    +0.210 HD
ENDBRANCH  34  43
ENDBRANCH  30  31
ENDBRANCH   3  30
TORSDOF 13
ENDMDL
MODEL 3
REMARK VINA RESULT:      -4.8      4.629      8.026
REMARK  Name = *****
REMARK                            x       y       z     vdW  Elec       q    Type
REMARK                         _______ _______ _______ _____ _____    ______ ____
ROOT
ATOM      1  C   LIG    1       26.603 -30.900   8.986  0.00  0.00    +0.169 C 
ATOM      2  C   LIG    1       27.084 -30.127  10.252  0.00  0.00    +0.175 C 
ATOM      3  C   LIG    1       26.245 -30.460  11.522  0.00  0.00    +0.169 C 
ATOM      4  C   LIG    1       24.806 -30.931  11.223  0.00  0.00    +0.084 C 
ATOM      5  C   LIG    1       24.825 -32.168  10.299  0.00  0.00    +0.042 C 
ATOM      6  C   LIG    1       26.131 -32.298   9.487  0.00  0.00    +0.084 C 
ENDROOT
BRANCH   4   7
ATOM      7  N   LIG    1       23.973 -29.848  10.693  0.00  0.00    -0.325 NA
ATOM      8  H   LIG    1       24.580 -29.095  10.358  0.00  0.00    +0.118 HD
ATOM      9  H   LIG    1       23.514 -30.187   9.838  0.00  0.00    +0.118 HD
ENDBRANCH   4   7
BRANCH   6  10
ATOM     10  N   LIG    1       26.017 -33.365   8.486  0.00  0.00    -0.325 NA
ATOM     11  H   LIG    1       25.348 -33.118   7.761  0.00  0.00    +0.118 HD
ATOM     12  H   LIG    1       26.916 -33.494   8.022  0.00  0.00    +0.118 HD
ENDBRANCH   6  10
BRANCH   2  13
ATOM     13  O   LIG    1       27.171 -28.715  10.025  0.00  0.00    -0.387 OA
ATOM     14  H   LIG    1       27.739 -28.612   9.234  0.00  0.00    +0.210 HD
ENDBRANCH   2  13
BRANCH   1  15
ATOM     15  O   LIG    1       25.583 -30.112   8.339  0.00  0.00    -0.342 OA
BRANCH  15  18
ATOM     16  C   LIG    1       25.608 -27.587   5.794  0.00  0.00    +0.138 C 
ATOM     17  O   LIG    1       25.874 -28.149   7.081  0.00  0.00    -0.345 OA
ATOM     18  C   LIG    1       25.917 -29.577   7.055  0.00  0.00    +0.268 C 
ATOM     19  C   LIG    1       24.981 -30.213   5.960  0.00  0.00    +0.107 C 
ATOM     20  C   LIG    1       23.755 -29.329   5.723  0.00  0.00    +0.026 C 
ATOM     21  C   LIG    1       24.151 -27.880   5.413  0.00  0.00    +0.035 C 
BRANCH  19  22
ATOM     22  N   LIG    1       24.581 -31.602   6.219  0.00  0.00    -0.323 NA
ATOM     23  H   LIG    1       24.330 -32.067   5.349  0.00  0.00    +0.119 HD
ATOM     24  H   LIG    1       23.728 -31.583   6.784  0.00  0.00    +0.119 HD
ENDBRANCH  19  22
BRANCH  16  25
ATOM     25  C   LIG    1       25.994 -26.080   5.772  0.00  0.00    +0.079 C 
ATOM     26  C   LIG    1       25.138 -25.251   4.806  0.00  0.00    +0.026 C 
BRANCH  25  28
ATOM     27  C   LIG    1       25.781 -23.989   7.054  0.00  0.00    +0.101 C 
ATOM     28  N   LIG    1       25.834 -25.442   7.099  0.00  0.00    -0.314 NA
ATOM     29  H   LIG    1       26.622 -25.733   7.679  0.00  0.00    +0.122 HD
ENDBRANCH  25  28
ENDBRANCH  16  25
ENDBRANCH  15  18
ENDBRANCH   1  15
BRANCH   3  30
ATOM     30  O   LIG    1       26.335 -29.360  12.437  0.00  0.00    -0.341 OA
BRANCH  30  31
ATOM     31  C   LIG    1       26.062 -29.654  13.812  0.00  0.00    +0.281 C 
ATOM     32  C   LIG    1       27.290 -30.052  14.676  0.00  0.00    +0.190 C 
ATOM     33  C   LIG    1       28.407 -28.974  14.539  0.00  0.00    +0.121 C 
ATOM     34  C   LIG    1       27.760 -27.546  14.503  0.00  0.00    +0.104 C 
ATOM     35  C   LIG    1       28.577 -26.556  15.338  0.00  0.00    +0.045 C 
ATOM     36  C   LIG    1       26.300 -27.562  15.012  0.00  0.00    +0.199 C 
ATOM     37  O   LIG    1       25.425 -28.505  14.382  0.00  0.00    -0.346 OA
BRANCH  33  38
ATOM     38  N   LIG    1       29.281 -29.293  13.375  0.00  0.00    -0.311 NA
ATOM     39  H   LIG    1       28.838 -30.084  12.892  0.00  0.00    +0.122 HD
ATOM     40  C   LIG    1       30.656 -29.634  13.686  0.00  0.00    +0.101 C 
ENDBRANCH  33  38
BRANCH  32  41
ATOM     41  O   LIG    1       27.793 -31.372  14.412  0.00  0.00    -0.385 OA
ATOM     42  H   LIG    1       27.750 -31.870  15.236  0.00  0.00    +0.210 HD
ENDBRANCH  32  41
BRANCH  34  43
ATOM     43  O   LIG    1       27.747 -27.029  13.161  0.00  0.00    -0.385 OA
ATOM     44  H   LIG    1       26.872 -26.599  13.060  0.00  0.00    +0.210 HD
ENDBRANCH  34  43
ENDBRANCH  30  31
ENDBRANCH   3  30
TORSDOF 13
ENDMDL
MODEL 4
REMARK VINA RESULT:      -4.6      2.660      7.604
REMARK  Name = *****
REMARK                            x       y       z     vdW  Elec       q    Type
REMARK                         _______ _______ _______ _____ _____    ______ ____
ROOT
ATOM      1  C   LIG    1       24.890 -31.246  10.592  0.00  0.00    +0.169 C 
ATOM      2  C   LIG    1       24.037 -30.521  11.678  0.00  0.00    +0.175 C 
ATOM      3  C   LIG    1       22.829 -31.372  12.168  0.00  0.00    +0.169 C 
ATOM      4  C   LIG    1       22.323 -32.403  11.138  0.00  0.00    +0.084 C 
ATOM      5  C   LIG    1       23.466 -33.354  10.721  0.00  0.00    +0.042 C 
ATOM      6  C   LIG    1       24.868 -32.759  10.965  0.00  0.00    +0.084 C 
ENDROOT
BRANCH   4   7
ATOM      7  N   LIG    1       21.680 -31.761   9.989  0.00  0.00    -0.325 NA
ATOM      8  H   LIG    1       21.397 -32.483   9.320  0.00  0.00    +0.118 HD
ATOM      9  H   LIG    1       20.787 -31.361  10.304  0.00  0.00    +0.118 HD
ENDBRANCH   4   7
BRANCH   6  10
ATOM     10  N   LIG    1       25.905 -33.610  10.369  0.00  0.00    -0.325 NA
ATOM     11  H   LIG    1       25.782 -34.582  10.641  0.00  0.00    +0.118 HD
ATOM     12  H   LIG    1       25.828 -33.579   9.352  0.00  0.00    +0.118 HD
ENDBRANCH   6  10
BRANCH   2  13
ATOM     13  O   LIG    1       23.634 -29.210  11.266  0.00  0.00    -0.387 OA
ATOM     14  H   LIG    1       23.236 -28.797  12.060  0.00  0.00    +0.210 HD
ENDBRANCH   2  13
BRANCH   1  15
ATOM     15  O   LIG    1       24.334 -30.932   9.300  0.00  0.00    -0.342 OA
BRANCH  15  18
ATOM     16  C   LIG    1       25.317 -28.615   6.746  0.00  0.00    +0.138 C 
ATOM     17  O   LIG    1       24.884 -29.022   8.046  0.00  0.00    -0.345 OA
ATOM     18  C   LIG    1       25.237 -30.376   8.340  0.00  0.00    +0.268 C 
ATOM     19  C   LIG    1       25.289 -31.301   7.068  0.00  0.00    +0.107 C 
ATOM     20  C   LIG    1       24.285 -30.823   6.016  0.00  0.00    +0.026 C 
ATOM     21  C   LIG    1       24.469 -29.336   5.690  0.00  0.00    +0.035 C 
BRANCH  19  22
ATOM     22  N   LIG    1       25.120 -32.734   7.339  0.00  0.00    -0.323 NA
ATOM     23  H   LIG    1       24.132 -32.966   7.418  0.00  0.00    +0.119 HD
ATOM     24  H   LIG    1       25.529 -32.931   8.256  0.00  0.00    +0.119 HD
ENDBRANCH  19  22
BRANCH  16  25
ATOM     25  C   LIG    1       25.311 -27.064   6.634  0.00  0.00    +0.079 C 
ATOM     26  C   LIG    1       26.375 -26.522   5.672  0.00  0.00    +0.026 C 
BRANCH  25  28
ATOM     27  C   LIG    1       23.863 -25.104   6.274  0.00  0.00    +0.101 C 
ATOM     28  N   LIG    1       24.017 -26.544   6.135  0.00  0.00    -0.314 NA
ATOM     29  H   LIG    1       23.273 -27.013   6.654  0.00  0.00    +0.122 HD
ENDBRANCH  25  28
ENDBRANCH  16  25
ENDBRANCH  15  18
ENDBRANCH   1  15
BRANCH   3  30
ATOM     30  O   LIG    1       21.818 -30.492  12.677  0.00  0.00    -0.341 OA
BRANCH  30  31
ATOM     31  C   LIG    1       21.509 -30.616  14.070  0.00  0.00    +0.281 C 
ATOM     32  C   LIG    1       22.105 -29.519  14.996  0.00  0.00    +0.190 C 
ATOM     33  C   LIG    1       21.727 -28.107  14.456  0.00  0.00    +0.121 C 
ATOM     34  C   LIG    1       20.255 -28.124  13.918  0.00  0.00    +0.104 C 
ATOM     35  C   LIG    1       19.512 -26.848  14.322  0.00  0.00    +0.045 C 
ATOM     36  C   LIG    1       19.470 -29.356  14.427  0.00  0.00    +0.199 C 
ATOM     37  O   LIG    1       20.083 -30.630  14.198  0.00  0.00    -0.346 OA
BRANCH  33  38
ATOM     38  N   LIG    1       22.747 -27.651  13.470  0.00  0.00    -0.311 NA
ATOM     39  H   LIG    1       23.557 -28.272  13.586  0.00  0.00    +0.122 HD
ATOM     40  C   LIG    1       23.181 -26.273  13.593  0.00  0.00    +0.101 C 
ENDBRANCH  33  38
BRANCH  32  41
ATOM     41  O   LIG    1       23.519 -29.641  15.217  0.00  0.00    -0.385 OA
ATOM     42  H   LIG    1       23.967 -29.170  14.505  0.00  0.00    +0.210 HD
ENDBRANCH  32  41
BRANCH  34  43
ATOM     43  O   LIG    1       20.240 -28.163  12.480  0.00  0.00    -0.385 OA
ATOM     44  H   LIG    1       21.098 -28.564  12.225  0.00  0.00    +0.210 HD
ENDBRANCH  34  43
ENDBRANCH  30  31
ENDBRANCH   3  30
TORSDOF 13
ENDMDL
MODEL 5
REMARK VINA RESULT:      -4.6      2.460      5.895
REMARK  Name = *****
REMARK                            x       y       z     vdW  Elec       q    Type
REMARK                         _______ _______ _______ _____ _____    ______ ____
ROOT
ATOM      1  C   LIG    1       25.359 -31.961  10.842  0.00  0.00    +0.169 C 
ATOM      2  C   LIG    1       23.867 -32.365  11.052  0.00  0.00    +0.175 C 
ATOM      3  C   LIG    1       23.080 -32.494   9.714  0.00  0.00    +0.169 C 
ATOM      4  C   LIG    1       23.649 -31.641   8.561  0.00  0.00    +0.084 C 
ATOM      5  C   LIG    1       25.129 -31.999   8.305  0.00  0.00    +0.042 C 
ATOM      6  C   LIG    1       25.813 -32.655   9.523  0.00  0.00    +0.084 C 
ENDROOT
BRANCH   4   7
ATOM      7  N   LIG    1       23.450 -30.208   8.789  0.00  0.00    -0.325 NA
ATOM      8  H   LIG    1       22.619 -30.076   9.372  0.00  0.00    +0.118 HD
ATOM      9  H   LIG    1       24.218 -29.868   9.383  0.00  0.00    +0.118 HD
ENDBRANCH   4   7
BRANCH   6  10
ATOM     10  N   LIG    1       27.258 -32.788   9.299  0.00  0.00    -0.325 NA
ATOM     11  H   LIG    1       27.451 -33.222   8.401  0.00  0.00    +0.118 HD
ATOM     12  H   LIG    1       27.684 -31.862   9.273  0.00  0.00    +0.118 HD
ENDBRANCH   6  10
BRANCH   2  13
ATOM     13  O   LIG    1       23.199 -31.507  11.984  0.00  0.00    -0.387 OA
ATOM     14  H   LIG    1       23.909 -31.009  12.437  0.00  0.00    +0.210 HD
ENDBRANCH   2  13
BRANCH   1  15
ATOM     15  O   LIG    1       25.437 -30.522  10.828  0.00  0.00    -0.342 OA
BRANCH  15  18
ATOM     16  C   LIG    1       25.446 -27.931  13.307  0.00  0.00    +0.138 C 
ATOM     17  O   LIG    1       24.882 -28.969  12.502  0.00  0.00    -0.345 OA
ATOM     18  C   LIG    1       25.865 -29.899  12.043  0.00  0.00    +0.268 C 
ATOM     19  C   LIG    1       27.287 -29.257  11.834  0.00  0.00    +0.107 C 
ATOM     20  C   LIG    1       27.157 -27.787  11.429  0.00  0.00    +0.026 C 
ATOM     21  C   LIG    1       26.278 -27.003  12.412  0.00  0.00    +0.035 C 
BRANCH  19  22
ATOM     22  N   LIG    1       28.161 -29.980  10.901  0.00  0.00    -0.323 NA
ATOM     23  H   LIG    1       28.687 -29.324  10.327  0.00  0.00    +0.119 HD
ATOM     24  H   LIG    1       27.565 -30.503  10.254  0.00  0.00    +0.119 HD
ENDBRANCH  19  22
BRANCH  16  25
ATOM     25  C   LIG    1       24.333 -27.216  14.125  0.00  0.00    +0.079 C 
ATOM     26  C   LIG    1       24.250 -25.710  13.847  0.00  0.00    +0.026 C 
BRANCH  25  28
ATOM     27  C   LIG    1       22.078 -26.782  13.236  0.00  0.00    +0.101 C 
ATOM     28  N   LIG    1       22.986 -27.754  13.826  0.00  0.00    -0.314 NA
ATOM     29  H   LIG    1       22.588 -28.098  14.701  0.00  0.00    +0.122 HD
ENDBRANCH  25  28
ENDBRANCH  16  25
ENDBRANCH  15  18
ENDBRANCH   1  15
BRANCH   3  30
ATOM     30  O   LIG    1       21.686 -32.290   9.976  0.00  0.00    -0.341 OA
BRANCH  30  31
ATOM     31  C   LIG    1       20.921 -33.457  10.296  0.00  0.00    +0.281 C 
ATOM     32  C   LIG    1       20.346 -33.515  11.739  0.00  0.00    +0.190 C 
ATOM     33  C   LIG    1       19.546 -32.213  12.044  0.00  0.00    +0.121 C 
ATOM     34  C   LIG    1       18.736 -31.781  10.773  0.00  0.00    +0.104 C 
ATOM     35  C   LIG    1       17.335 -31.300  11.157  0.00  0.00    +0.045 C 
ATOM     36  C   LIG    1       18.620 -32.932   9.746  0.00  0.00    +0.199 C 
ATOM     37  O   LIG    1       19.851 -33.548   9.349  0.00  0.00    -0.346 OA
BRANCH  33  38
ATOM     38  N   LIG    1       20.462 -31.169  12.586  0.00  0.00    -0.311 NA
ATOM     39  H   LIG    1       21.275 -31.669  12.965  0.00  0.00    +0.122 HD
ATOM     40  C   LIG    1       19.910 -30.308  13.613  0.00  0.00    +0.101 C 
ENDBRANCH  33  38
BRANCH  32  41
ATOM     41  O   LIG    1       21.328 -33.783  12.753  0.00  0.00    -0.385 OA
ATOM     42  H   LIG    1       20.860 -34.085  13.540  0.00  0.00    +0.210 HD
ENDBRANCH  32  41
BRANCH  34  43
ATOM     43  O   LIG    1       19.378 -30.675  10.115  0.00  0.00    -0.385 OA
ATOM     44  H   LIG    1       20.339 -30.842  10.209  0.00  0.00    +0.210 HD
ENDBRANCH  34  43
ENDBRANCH  30  31
ENDBRANCH   3  30
TORSDOF 13
ENDMDL
MODEL 6
REMARK VINA RESULT:      -4.6      2.868      7.480
REMARK  Name = *****
REMARK                            x       y       z     vdW  Elec       q    Type
REMARK                         _______ _______ _______ _____ _____    ______ ____
ROOT
ATOM      1  C   LIG    1       24.231 -30.378  10.540  0.00  0.00    +0.169 C 
ATOM      2  C   LIG    1       22.820 -30.553  11.181  0.00  0.00    +0.175 C 
ATOM      3  C   LIG    1       22.688 -31.866  12.007  0.00  0.00    +0.169 C 
ATOM      4  C   LIG    1       23.641 -32.994  11.559  0.00  0.00    +0.084 C 
ATOM      5  C   LIG    1       25.108 -32.514  11.616  0.00  0.00    +0.042 C 
ATOM      6  C   LIG    1       25.246 -30.978  11.560  0.00  0.00    +0.084 C 
ENDROOT
BRANCH   4   7
ATOM      7  N   LIG    1       23.277 -33.530  10.245  0.00  0.00    -0.325 NA
ATOM      8  H   LIG    1       24.081 -34.032   9.858  0.00  0.00    +0.118 HD
ATOM      9  H   LIG    1       22.575 -34.269  10.384  0.00  0.00    +0.118 HD
ENDBRANCH   4   7
BRANCH   6  10
ATOM     10  N   LIG    1       26.653 -30.588  11.413  0.00  0.00    -0.325 NA
ATOM     11  H   LIG    1       27.074 -31.029  10.601  0.00  0.00    +0.118 HD
ATOM     12  H   LIG    1       26.712 -29.580  11.263  0.00  0.00    +0.118 HD
ENDBRANCH   6  10
BRANCH   2  13
ATOM     13  O   LIG    1       21.767 -30.419  10.219  0.00  0.00    -0.387 OA
ATOM     14  H   LIG    1       22.204 -30.132   9.391  0.00  0.00    +0.210 HD
ENDBRANCH   2  13
BRANCH   1  15
ATOM     15  O   LIG    1       24.221 -31.016   9.248  0.00  0.00    -0.342 OA
BRANCH  15  18
ATOM     16  C   LIG    1       25.232 -28.710   6.696  0.00  0.00    +0.138 C 
ATOM     17  O   LIG    1       24.816 -29.115   8.002  0.00  0.00    -0.345 OA
ATOM     18  C   LIG    1       25.122 -30.484   8.272  0.00  0.00    +0.268 C 
ATOM     19  C   LIG    1       25.107 -31.396   6.989  0.00  0.00    +0.107 C 
ATOM     20  C   LIG    1       24.097 -30.867   5.967  0.00  0.00    +0.026 C 
ATOM     21  C   LIG    1       24.331 -29.384   5.654  0.00  0.00    +0.035 C 
BRANCH  19  22
ATOM     22  N   LIG    1       24.888 -32.825   7.248  0.00  0.00    -0.323 NA
ATOM     23  H   LIG    1       24.891 -33.008   8.249  0.00  0.00    +0.119 HD
ATOM     24  H   LIG    1       25.686 -33.339   6.866  0.00  0.00    +0.119 HD
ENDBRANCH  19  22
BRANCH  16  25
ATOM     25  C   LIG    1       25.284 -27.158   6.602  0.00  0.00    +0.079 C 
ATOM     26  C   LIG    1       26.365 -26.646   5.642  0.00  0.00    +0.026 C 
BRANCH  25  28
ATOM     27  C   LIG    1       23.933 -25.135   6.216  0.00  0.00    +0.101 C 
ATOM     28  N   LIG    1       24.009 -26.584   6.112  0.00  0.00    -0.314 NA
ATOM     29  H   LIG    1       23.253 -27.001   6.657  0.00  0.00    +0.122 HD
ENDBRANCH  25  28
ENDBRANCH  16  25
ENDBRANCH  15  18
ENDBRANCH   1  15
BRANCH   3  30
ATOM     30  O   LIG    1       21.305 -32.241  12.063  0.00  0.00    -0.341 OA
BRANCH  30  31
ATOM     31  C   LIG    1       20.575 -31.809  13.217  0.00  0.00    +0.281 C 
ATOM     32  C   LIG    1       19.378 -30.857  12.943  0.00  0.00    +0.190 C 
ATOM     33  C   LIG    1       18.431 -31.489  11.878  0.00  0.00    +0.121 C 
ATOM     34  C   LIG    1       18.311 -33.032  12.128  0.00  0.00    +0.104 C 
ATOM     35  C   LIG    1       16.867 -33.504  11.940  0.00  0.00    +0.045 C 
ATOM     36  C   LIG    1       18.800 -33.426  13.541  0.00  0.00    +0.199 C 
ATOM     37  O   LIG    1       20.113 -32.978  13.900  0.00  0.00    -0.346 OA
BRANCH  33  38
ATOM     38  N   LIG    1       18.882 -31.110  10.509  0.00  0.00    -0.311 NA
ATOM     39  H   LIG    1       19.358 -30.205  10.604  0.00  0.00    +0.122 HD
ATOM     40  C   LIG    1       17.843 -31.000   9.504  0.00  0.00    +0.101 C 
ENDBRANCH  33  38
BRANCH  32  41
ATOM     41  O   LIG    1       19.759 -29.519  12.585  0.00  0.00    -0.385 OA
ATOM     42  H   LIG    1       20.385 -29.580  11.854  0.00  0.00    +0.210 HD
ENDBRANCH  32  41
BRANCH  34  43
ATOM     43  O   LIG    1       19.103 -33.762  11.175  0.00  0.00    -0.385 OA
ATOM     44  H   LIG    1       18.912 -33.345  10.308  0.00  0.00    +0.210 HD
ENDBRANCH  34  43
ENDBRANCH  30  31
ENDBRANCH   3  30
TORSDOF 13
ENDMDL
MODEL 7
REMARK VINA RESULT:      -4.6      1.869      2.560
REMARK  Name = *****
REMARK                            x       y       z     vdW  Elec       q    Type
REMARK                         _______ _______ _______ _____ _____    ______ ____
ROOT
ATOM      1  C   LIG    1       22.636 -31.058  12.109  0.00  0.00    +0.169 C 
ATOM      2  C   LIG    1       22.755 -31.416  10.596  0.00  0.00    +0.175 C 
ATOM      3  C   LIG    1       24.223 -31.680  10.149  0.00  0.00    +0.169 C 
ATOM      4  C   LIG    1       25.285 -30.965  11.010  0.00  0.00    +0.084 C 
ATOM      5  C   LIG    1       25.136 -31.367  12.494  0.00  0.00    +0.042 C 
ATOM      6  C   LIG    1       23.728 -31.896  12.839  0.00  0.00    +0.084 C 
ENDROOT
BRANCH   4   7
ATOM      7  N   LIG    1       25.260 -29.513  10.818  0.00  0.00    -0.325 NA
ATOM      8  H   LIG    1       24.315 -29.169  11.009  0.00  0.00    +0.118 HD
ATOM      9  H   LIG    1       25.828 -29.082  11.560  0.00  0.00    +0.118 HD
ENDBRANCH   4   7
BRANCH   6  10
ATOM     10  N   LIG    1       23.579 -32.072  14.289  0.00  0.00    -0.325 NA
ATOM     11  H   LIG    1       23.603 -33.055  14.544  0.00  0.00    +0.118 HD
ATOM     12  H   LIG    1       24.364 -31.627  14.767  0.00  0.00    +0.118 HD
ENDBRANCH   6  10
BRANCH   2  13
ATOM     13  O   LIG    1       22.106 -30.454   9.757  0.00  0.00    -0.387 OA
ATOM     14  H   LIG    1       22.824 -29.890   9.402  0.00  0.00    +0.210 HD
ENDBRANCH   2  13
BRANCH   1  15
ATOM     15  O   LIG    1       22.778 -29.629  12.244  0.00  0.00    -0.342 OA
BRANCH  15  18
ATOM     16  C   LIG    1       20.530 -27.737  14.299  0.00  0.00    +0.138 C 
ATOM     17  O   LIG    1       20.921 -28.789  13.414  0.00  0.00    -0.345 OA
ATOM     18  C   LIG    1       22.323 -29.062  13.476  0.00  0.00    +0.268 C 
ATOM     19  C   LIG    1       23.192 -27.798  13.828  0.00  0.00    +0.107 C 
ATOM     20  C   LIG    1       22.530 -26.525  13.296  0.00  0.00    +0.026 C 
ATOM     21  C   LIG    1       21.073 -26.407  13.762  0.00  0.00    +0.035 C 
BRANCH  19  22
ATOM     22  N   LIG    1       24.595 -27.875  13.400  0.00  0.00    -0.323 NA
ATOM     23  H   LIG    1       25.210 -27.542  14.140  0.00  0.00    +0.119 HD
ATOM     24  H   LIG    1       24.721 -27.226  12.618  0.00  0.00    +0.119 HD
ENDBRANCH  19  22
BRANCH  16  25
ATOM     25  C   LIG    1       18.991 -27.765  14.525  0.00  0.00    +0.079 C 
ATOM     26  C   LIG    1       18.298 -26.455  14.129  0.00  0.00    +0.026 C 
BRANCH  25  28
ATOM     27  C   LIG    1       17.067 -29.284  14.291  0.00  0.00    +0.101 C 
ATOM     28  N   LIG    1       18.328 -28.825  13.730  0.00  0.00    -0.314 NA
ATOM     29  H   LIG    1       18.974 -29.613  13.666  0.00  0.00    +0.122 HD
ENDBRANCH  25  28
ENDBRANCH  16  25
ENDBRANCH  15  18
ENDBRANCH   1  15
BRANCH   3  30
ATOM     30  O   LIG    1       24.330 -31.430   8.741  0.00  0.00    -0.341 OA
BRANCH  30  31
ATOM     31  C   LIG    1       23.979 -32.514   7.874  0.00  0.00    +0.281 C 
ATOM     32  C   LIG    1       24.169 -32.255   6.354  0.00  0.00    +0.190 C 
ATOM     33  C   LIG    1       25.620 -31.758   6.078  0.00  0.00    +0.121 C 
ATOM     34  C   LIG    1       26.628 -32.542   6.987  0.00  0.00    +0.104 C 
ATOM     35  C   LIG    1       27.892 -32.912   6.207  0.00  0.00    +0.045 C 
ATOM     36  C   LIG    1       25.995 -33.825   7.575  0.00  0.00    +0.199 C 
ATOM     37  O   LIG    1       24.753 -33.652   8.268  0.00  0.00    -0.346 OA
BRANCH  33  38
ATOM     38  N   LIG    1       25.683 -30.275   6.211  0.00  0.00    -0.311 NA
ATOM     39  H   LIG    1       24.938 -30.013   6.868  0.00  0.00    +0.122 HD
ATOM     40  C   LIG    1       25.524 -29.518   4.984  0.00  0.00    +0.101 C 
ENDBRANCH  33  38
BRANCH  32  41
ATOM     41  O   LIG    1       23.189 -31.374   5.780  0.00  0.00    -0.385 OA
ATOM     42  H   LIG    1       23.333 -31.361   4.826  0.00  0.00    +0.210 HD
ENDBRANCH  32  41
BRANCH  34  43
ATOM     43  O   LIG    1       27.058 -31.725   8.090  0.00  0.00    -0.385 OA
ATOM     44  H   LIG    1       26.233 -31.389   8.498  0.00  0.00    +0.210 HD
ENDBRANCH  34  43
ENDBRANCH  30  31
ENDBRANCH   3  30
TORSDOF 13
ENDMDL
MODEL 8
REMARK VINA RESULT:      -4.5      3.599      7.571
REMARK  Name = *****
REMARK                            x       y       z     vdW  Elec       q    Type
REMARK                         _______ _______ _______ _____ _____    ______ ____
ROOT
ATOM      1  C   LIG    1       26.316 -30.097   8.777  0.00  0.00    +0.169 C 
ATOM      2  C   LIG    1       25.949 -29.977  10.288  0.00  0.00    +0.175 C 
ATOM      3  C   LIG    1       24.988 -31.103  10.771  0.00  0.00    +0.169 C 
ATOM      4  C   LIG    1       24.106 -31.702   9.656  0.00  0.00    +0.084 C 
ATOM      5  C   LIG    1       24.984 -32.253   8.511  0.00  0.00    +0.042 C 
ATOM      6  C   LIG    1       26.392 -31.623   8.471  0.00  0.00    +0.084 C 
ENDROOT
BRANCH   4   7
ATOM      7  N   LIG    1       23.099 -30.749   9.181  0.00  0.00    -0.325 NA
ATOM      8  H   LIG    1       22.922 -30.921   8.188  0.00  0.00    +0.118 HD
ATOM      9  H   LIG    1       22.203 -30.980   9.630  0.00  0.00    +0.118 HD
ENDBRANCH   4   7
BRANCH   6  10
ATOM     10  N   LIG    1       27.109 -32.027   7.255  0.00  0.00    -0.325 NA
ATOM     11  H   LIG    1       28.096 -31.799   7.318  0.00  0.00    +0.118 HD
ATOM     12  H   LIG    1       27.049 -33.040   7.147  0.00  0.00    +0.118 HD
ENDBRANCH   6  10
BRANCH   2  13
ATOM     13  O   LIG    1       25.459 -28.675  10.626  0.00  0.00    -0.387 OA
ATOM     14  H   LIG    1       24.633 -28.565  10.112  0.00  0.00    +0.210 HD
ENDBRANCH   2  13
BRANCH   1  15
ATOM     15  O   LIG    1       25.326 -29.375   8.016  0.00  0.00    -0.342 OA
BRANCH  15  18
ATOM     16  C   LIG    1       25.180 -26.194   6.368  0.00  0.00    +0.138 C 
ATOM     17  O   LIG    1       25.214 -27.090   7.482  0.00  0.00    -0.345 OA
ATOM     18  C   LIG    1       25.818 -28.343   7.157  0.00  0.00    +0.268 C 
ATOM     19  C   LIG    1       25.614 -28.767   5.654  0.00  0.00    +0.107 C 
ATOM     20  C   LIG    1       24.287 -28.224   5.119  0.00  0.00    +0.026 C 
ATOM     21  C   LIG    1       24.161 -26.711   5.344  0.00  0.00    +0.035 C 
BRANCH  19  22
ATOM     22  N   LIG    1       25.730 -30.209   5.398  0.00  0.00    -0.323 NA
ATOM     23  H   LIG    1       26.447 -30.387   4.697  0.00  0.00    +0.119 HD
ATOM     24  H   LIG    1       24.849 -30.526   4.984  0.00  0.00    +0.119 HD
ENDBRANCH  19  22
BRANCH  16  25
ATOM     25  C   LIG    1       24.930 -24.738   6.853  0.00  0.00    +0.079 C 
ATOM     26  C   LIG    1       26.188 -23.862   6.811  0.00  0.00    +0.026 C 
BRANCH  25  28
ATOM     27  C   LIG    1       22.826 -23.460   6.779  0.00  0.00    +0.101 C 
ATOM     28  N   LIG    1       23.925 -24.036   6.020  0.00  0.00    -0.314 NA
ATOM     29  H   LIG    1       23.554 -24.710   5.349  0.00  0.00    +0.122 HD
ENDBRANCH  25  28
ENDBRANCH  16  25
ENDBRANCH  15  18
ENDBRANCH   1  15
BRANCH   3  30
ATOM     30  O   LIG    1       24.265 -30.635  11.917  0.00  0.00    -0.341 OA
BRANCH  30  31
ATOM     31  C   LIG    1       24.899 -30.819  13.188  0.00  0.00    +0.281 C 
ATOM     32  C   LIG    1       25.106 -29.532  14.033  0.00  0.00    +0.190 C 
ATOM     33  C   LIG    1       23.753 -28.771  14.181  0.00  0.00    +0.121 C 
ATOM     34  C   LIG    1       22.589 -29.800  14.384  0.00  0.00    +0.104 C 
ATOM     35  C   LIG    1       21.603 -29.306  15.445  0.00  0.00    +0.045 C 
ATOM     36  C   LIG    1       23.118 -31.196  14.786  0.00  0.00    +0.199 C 
ATOM     37  O   LIG    1       24.118 -31.761  13.930  0.00  0.00    -0.346 OA
BRANCH  33  38
ATOM     38  N   LIG    1       23.569 -27.836  13.034  0.00  0.00    -0.311 NA
ATOM     39  H   LIG    1       24.492 -27.736  12.594  0.00  0.00    +0.122 HD
ATOM     40  C   LIG    1       23.050 -26.522  13.361  0.00  0.00    +0.101 C 
ENDBRANCH  33  38
BRANCH  32  41
ATOM     41  O   LIG    1       26.148 -28.670  13.549  0.00  0.00    -0.385 OA
ATOM     42  H   LIG    1       26.692 -28.417  14.304  0.00  0.00    +0.210 HD
ENDBRANCH  32  41
BRANCH  34  43
ATOM     43  O   LIG    1       21.832 -29.955  13.170  0.00  0.00    -0.385 OA
ATOM     44  H   LIG    1       21.120 -29.284  13.223  0.00  0.00    +0.210 HD
ENDBRANCH  34  43
ENDBRANCH  30  31
ENDBRANCH   3  30
TORSDOF 13
ENDMDL
MODEL 9
REMARK VINA RESULT:      -4.5      3.579      7.948
REMARK  Name = *****
REMARK                            x       y       z     vdW  Elec       q    Type
REMARK                         _______ _______ _______ _____ _____    ______ ____
ROOT
ATOM      1  C   LIG    1       26.051 -30.592   9.633  0.00  0.00    +0.169 C 
ATOM      2  C   LIG    1       25.983 -29.844  11.000  0.00  0.00    +0.175 C 
ATOM      3  C   LIG    1       24.870 -30.396  11.939  0.00  0.00    +0.169 C 
ATOM      4  C   LIG    1       23.694 -31.067  11.199  0.00  0.00    +0.084 C 
ATOM      5  C   LIG    1       24.207 -32.217  10.305  0.00  0.00    +0.042 C 
ATOM      6  C   LIG    1       25.699 -32.080   9.937  0.00  0.00    +0.084 C 
ENDROOT
BRANCH   4   7
ATOM      7  N   LIG    1       22.886 -30.097  10.457  0.00  0.00    -0.325 NA
ATOM      8  H   LIG    1       23.494 -29.342  10.127  0.00  0.00    +0.118 HD
ATOM      9  H   LIG    1       22.565 -30.545   9.589  0.00  0.00    +0.118 HD
ENDBRANCH   4   7
BRANCH   6  10
ATOM     10  N   LIG    1       26.081 -33.077   8.930  0.00  0.00    -0.325 NA
ATOM     11  H   LIG    1       26.669 -32.666   8.211  0.00  0.00    +0.118 HD
ATOM     12  H   LIG    1       26.631 -33.813   9.373  0.00  0.00    +0.118 HD
ENDBRANCH   6  10
BRANCH   2  13
ATOM     13  O   LIG    1       25.889 -28.424  10.837  0.00  0.00    -0.387 OA
ATOM     14  H   LIG    1       26.732 -28.152  10.419  0.00  0.00    +0.210 HD
ENDBRANCH   2  13
BRANCH   1  15
ATOM     15  O   LIG    1       25.155 -29.933   8.716  0.00  0.00    -0.342 OA
BRANCH  15  18
ATOM     16  C   LIG    1       25.643 -27.711   5.944  0.00  0.00    +0.138 C 
ATOM     17  O   LIG    1       25.675 -28.120   7.314  0.00  0.00    -0.345 OA
ATOM     18  C   LIG    1       25.713 -29.542   7.458  0.00  0.00    +0.268 C 
ATOM     19  C   LIG    1       24.981 -30.310   6.295  0.00  0.00    +0.107 C 
ATOM     20  C   LIG    1       23.821 -29.475   5.747  0.00  0.00    +0.026 C 
ATOM     21  C   LIG    1       24.275 -28.065   5.349  0.00  0.00    +0.035 C 
BRANCH  19  22
ATOM     22  N   LIG    1       24.533 -31.666   6.636  0.00  0.00    -0.323 NA
ATOM     23  H   LIG    1       23.529 -31.753   6.499  0.00  0.00    +0.119 HD
ATOM     24  H   LIG    1       24.693 -31.808   7.637  0.00  0.00    +0.119 HD
ENDBRANCH  19  22
BRANCH  16  25
ATOM     25  C   LIG    1       26.036 -26.211   5.819  0.00  0.00    +0.079 C 
ATOM     26  C   LIG    1       25.171 -25.441   4.814  0.00  0.00    +0.026 C 
BRANCH  25  28
ATOM     27  C   LIG    1       25.779 -24.045   6.962  0.00  0.00    +0.101 C 
ATOM     28  N   LIG    1       25.898 -25.488   7.104  0.00  0.00    -0.314 NA
ATOM     29  H   LIG    1       26.719 -25.703   7.671  0.00  0.00    +0.122 HD
ENDBRANCH  25  28
ENDBRANCH  16  25
ENDBRANCH  15  18
ENDBRANCH   1  15
BRANCH   3  30
ATOM     30  O   LIG    1       24.486 -29.364  12.858  0.00  0.00    -0.341 OA
BRANCH  30  31
ATOM     31  C   LIG    1       24.775 -29.603  14.240  0.00  0.00    +0.281 C 
ATOM     32  C   LIG    1       25.891 -28.718  14.861  0.00  0.00    +0.190 C 
ATOM     33  C   LIG    1       25.582 -27.212  14.599  0.00  0.00    +0.121 C 
ATOM     34  C   LIG    1       24.043 -26.956  14.754  0.00  0.00    +0.104 C 
ATOM     35  C   LIG    1       23.782 -25.641  15.494  0.00  0.00    +0.045 C 
ATOM     36  C   LIG    1       23.338 -28.113  15.500  0.00  0.00    +0.199 C 
ATOM     37  O   LIG    1       23.558 -29.427  14.973  0.00  0.00    -0.346 OA
BRANCH  33  38
ATOM     38  N   LIG    1       26.156 -26.797  13.288  0.00  0.00    -0.311 NA
ATOM     39  H   LIG    1       26.708 -27.594  12.951  0.00  0.00    +0.122 HD
ATOM     40  C   LIG    1       26.990 -25.611  13.306  0.00  0.00    +0.101 C 
ENDBRANCH  33  38
BRANCH  32  41
ATOM     41  O   LIG    1       27.220 -29.066  14.441  0.00  0.00    -0.385 OA
ATOM     42  H   LIG    1       27.150 -29.824  13.849  0.00  0.00    +0.210 HD
ENDBRANCH  32  41
BRANCH  34  43
ATOM     43  O   LIG    1       23.418 -26.825  13.464  0.00  0.00    -0.385 OA
ATOM     44  H   LIG    1       24.155 -26.672  12.836  0.00  0.00    +0.210 HD
ENDBRANCH  34  43
ENDBRANCH  30  31
ENDBRANCH   3  30
TORSDOF 13
ENDMDL
