MODEL 1
REMARK VINA RESULT:      -7.6      0.000      0.000
REMARK  Name = *****
REMARK                            x       y       z     vdW  Elec       q    Type
REMARK                         _______ _______ _______ _____ _____    ______ ____
ROOT
ATOM      1  C   LIG    1       25.563 -21.836   6.541  0.00  0.00    -0.004 C 
ATOM      2  C   LIG    1       25.233 -23.144   6.755  0.00  0.00    -0.016 C 
ATOM      3  C   LIG    1       23.901 -23.679   6.449  0.00  0.00    +0.015 C 
ATOM      4  C   LIG    1       23.739 -24.972   6.141  0.00  0.00    +0.078 C 
ATOM      5  C   LIG    1       24.938 -25.878   6.132  0.00  0.00    +0.202 C 
ATOM      6  N   LIG    1       25.003 -26.962   5.422  0.00  0.00    -0.234 N 
ATOM      7  C   LIG    1       26.242 -27.802   5.347  0.00  0.00    +0.432 C 
ATOM      8  C   LIG    1       23.873 -27.422   4.554  0.00  0.00    +0.432 C 
ATOM      9  C   LIG    1       26.051 -25.420   7.037  0.00  0.00    +0.078 C 
ATOM     10  C   LIG    1       26.167 -24.118   7.330  0.00  0.00    +0.015 C 
ENDROOT
BRANCH   1  14
ATOM     11  C   LIG    1       22.749 -19.145   4.545  0.00  0.00    +0.029 A 
ATOM     12  C   LIG    1       23.895 -19.653   3.902  0.00  0.00    +0.024 A 
ATOM     13  C   LIG    1       24.795 -20.535   4.529  0.00  0.00    +0.010 A 
ATOM     14  C   LIG    1       24.595 -20.929   5.850  0.00  0.00    -0.017 A 
ATOM     15  C   LIG    1       23.474 -20.431   6.520  0.00  0.00    +0.010 A 
ATOM     16  C   LIG    1       22.578 -19.553   5.878  0.00  0.00    +0.024 A 
BRANCH  11  18
ATOM     17  C   LIG    1       21.857 -16.846   4.358  0.00  0.00    +0.129 C 
ATOM     18  N   LIG    1       21.873 -18.246   3.918  0.00  0.00    -0.336 N 
ATOM     19  C   LIG    1       20.563 -18.740   3.480  0.00  0.00    +0.129 C 
ENDBRANCH  11  18
ENDBRANCH   1  14
BRANCH   1  20
ATOM     20  C   LIG    1       26.934 -21.341   6.861  0.00  0.00    -0.017 A 
ATOM     21  C   LIG    1       27.593 -21.765   8.015  0.00  0.00    +0.010 A 
ATOM     22  C   LIG    1       28.886 -21.301   8.319  0.00  0.00    +0.024 A 
ATOM     23  C   LIG    1       29.584 -20.408   7.486  0.00  0.00    +0.029 A 
ATOM     24  C   LIG    1       28.883 -19.975   6.347  0.00  0.00    +0.024 A 
ATOM     25  C   LIG    1       27.590 -20.436   6.028  0.00  0.00    +0.010 A 
BRANCH  23  26
ATOM     26  N   LIG    1       30.869 -19.937   7.797  0.00  0.00    -0.336 N 
ATOM     27  C   LIG    1       31.129 -18.495   7.702  0.00  0.00    +0.129 C 
ATOM     28  C   LIG    1       31.601 -20.582   8.894  0.00  0.00    +0.129 C 
ENDBRANCH  23  26
ENDBRANCH   1  20
TORSDOF 4
ENDMDL
MODEL 2
REMARK VINA RESULT:      -6.7      0.897      7.367
REMARK  Name = *****
REMARK                            x       y       z     vdW  Elec       q    Type
REMARK                         _______ _______ _______ _____ _____    ______ ____
ROOT
ATOM      1  C   LIG    1       25.347 -21.975   6.792  0.00  0.00    -0.004 C 
ATOM      2  C   LIG    1       26.378 -21.521   7.563  0.00  0.00    -0.016 C 
ATOM      3  C   LIG    1       27.243 -22.424   8.331  0.00  0.00    +0.015 C 
ATOM      4  C   LIG    1       28.505 -22.082   8.618  0.00  0.00    +0.078 C 
ATOM      5  C   LIG    1       29.023 -20.748   8.160  0.00  0.00    +0.202 C 
ATOM      6  N   LIG    1       30.282 -20.509   7.951  0.00  0.00    -0.234 N 
ATOM      7  C   LIG    1       30.773 -19.205   7.400  0.00  0.00    +0.432 C 
ATOM      8  C   LIG    1       31.342 -21.545   8.165  0.00  0.00    +0.432 C 
ATOM      9  C   LIG    1       27.949 -19.708   7.984  0.00  0.00    +0.078 C 
ATOM     10  C   LIG    1       26.696 -20.096   7.711  0.00  0.00    +0.015 C 
ENDROOT
BRANCH   1  14
ATOM     11  C   LIG    1       24.792 -26.285   6.281  0.00  0.00    +0.029 A 
ATOM     12  C   LIG    1       23.709 -25.392   6.398  0.00  0.00    +0.024 A 
ATOM     13  C   LIG    1       23.878 -24.002   6.543  0.00  0.00    +0.010 A 
ATOM     14  C   LIG    1       25.153 -23.446   6.601  0.00  0.00    -0.017 A 
ATOM     15  C   LIG    1       26.249 -24.307   6.502  0.00  0.00    +0.010 A 
ATOM     16  C   LIG    1       26.066 -25.696   6.352  0.00  0.00    +0.024 A 
BRANCH  11  18
ATOM     17  C   LIG    1       25.008 -28.537   7.280  0.00  0.00    +0.129 C 
ATOM     18  N   LIG    1       24.613 -27.672   6.163  0.00  0.00    -0.336 N 
ATOM     19  C   LIG    1       24.800 -28.289   4.845  0.00  0.00    +0.129 C 
ENDBRANCH  11  18
ENDBRANCH   1  14
BRANCH   1  20
ATOM     20  C   LIG    1       24.501 -21.017   6.022  0.00  0.00    -0.017 A 
ATOM     21  C   LIG    1       23.310 -20.527   6.560  0.00  0.00    +0.010 A 
ATOM     22  C   LIG    1       22.511 -19.623   5.838  0.00  0.00    +0.024 A 
ATOM     23  C   LIG    1       22.863 -19.156   4.559  0.00  0.00    +0.029 A 
ATOM     24  C   LIG    1       24.052 -19.690   4.030  0.00  0.00    +0.024 A 
ATOM     25  C   LIG    1       24.865 -20.591   4.745  0.00  0.00    +0.010 A 
BRANCH  23  26
ATOM     26  N   LIG    1       22.057 -18.263   3.835  0.00  0.00    -0.336 N 
ATOM     27  C   LIG    1       20.729 -18.714   3.399  0.00  0.00    +0.129 C 
ATOM     28  C   LIG    1       22.092 -16.841   4.198  0.00  0.00    +0.129 C 
ENDBRANCH  23  26
ENDBRANCH   1  20
TORSDOF 4
ENDMDL
MODEL 3
REMARK VINA RESULT:      -6.5      7.189     10.127
REMARK  Name = *****
REMARK                            x       y       z     vdW  Elec       q    Type
REMARK                         _______ _______ _______ _____ _____    ______ ____
ROOT
ATOM      1  C   LIG    1       24.967 -28.954  11.930  0.00  0.00    -0.004 C 
ATOM      2  C   LIG    1       25.321 -29.208  10.637  0.00  0.00    -0.016 C 
ATOM      3  C   LIG    1       24.508 -30.047   9.749  0.00  0.00    +0.015 C 
ATOM      4  C   LIG    1       24.533 -29.864   8.423  0.00  0.00    +0.078 C 
ATOM      5  C   LIG    1       25.422 -28.798   7.849  0.00  0.00    +0.202 C 
ATOM      6  N   LIG    1       25.192 -28.219   6.710  0.00  0.00    -0.234 N 
ATOM      7  C   LIG    1       26.032 -27.089   6.197  0.00  0.00    +0.432 C 
ATOM      8  C   LIG    1       24.019 -28.576   5.850  0.00  0.00    +0.432 C 
ATOM      9  C   LIG    1       26.616 -28.476   8.708  0.00  0.00    +0.078 C 
ATOM     10  C   LIG    1       26.551 -28.688  10.029  0.00  0.00    +0.015 C 
ENDROOT
BRANCH   1  14
ATOM     11  C   LIG    1       21.116 -30.333  13.483  0.00  0.00    +0.029 A 
ATOM     12  C   LIG    1       21.313 -29.023  13.005  0.00  0.00    +0.024 A 
ATOM     13  C   LIG    1       22.542 -28.576  12.486  0.00  0.00    +0.010 A 
ATOM     14  C   LIG    1       23.644 -29.426  12.446  0.00  0.00    -0.017 A 
ATOM     15  C   LIG    1       23.485 -30.729  12.926  0.00  0.00    +0.010 A 
ATOM     16  C   LIG    1       22.248 -31.165  13.439  0.00  0.00    +0.024 A 
BRANCH  11  18
ATOM     17  C   LIG    1       19.501 -32.166  13.870  0.00  0.00    +0.129 C 
ATOM     18  N   LIG    1       19.893 -30.760  14.023  0.00  0.00    -0.336 N 
ATOM     19  C   LIG    1       18.760 -29.828  14.007  0.00  0.00    +0.129 C 
ENDBRANCH  11  18
ENDBRANCH   1  14
BRANCH   1  20
ATOM     20  C   LIG    1       25.823 -28.087  12.792  0.00  0.00    -0.017 A 
ATOM     21  C   LIG    1       26.847 -28.638  13.562  0.00  0.00    +0.010 A 
ATOM     22  C   LIG    1       27.657 -27.823  14.374  0.00  0.00    +0.024 A 
ATOM     23  C   LIG    1       27.496 -26.428  14.446  0.00  0.00    +0.029 A 
ATOM     24  C   LIG    1       26.437 -25.905  13.683  0.00  0.00    +0.024 A 
ATOM     25  C   LIG    1       25.622 -26.709  12.861  0.00  0.00    +0.010 A 
BRANCH  23  26
ATOM     26  N   LIG    1       28.297 -25.618  15.267  0.00  0.00    -0.336 N 
ATOM     27  C   LIG    1       29.690 -26.019  15.500  0.00  0.00    +0.129 C 
ATOM     28  C   LIG    1       28.121 -24.163  15.194  0.00  0.00    +0.129 C 
ENDBRANCH  23  26
ENDBRANCH   1  20
TORSDOF 4
ENDMDL
MODEL 4
REMARK VINA RESULT:      -6.3      6.701     10.501
REMARK  Name = *****
REMARK                            x       y       z     vdW  Elec       q    Type
REMARK                         _______ _______ _______ _____ _____    ______ ____
ROOT
ATOM      1  C   LIG    1       24.618 -29.895  10.239  0.00  0.00    -0.004 C 
ATOM      2  C   LIG    1       25.067 -29.407   9.046  0.00  0.00    -0.016 C 
ATOM      3  C   LIG    1       24.369 -29.659   7.780  0.00  0.00    +0.015 C 
ATOM      4  C   LIG    1       24.464 -28.793   6.763  0.00  0.00    +0.078 C 
ATOM      5  C   LIG    1       25.313 -27.564   6.926  0.00  0.00    +0.202 C 
ATOM      6  N   LIG    1       25.116 -26.471   6.255  0.00  0.00    -0.234 N 
ATOM      7  C   LIG    1       25.908 -25.223   6.499  0.00  0.00    +0.432 C 
ATOM      8  C   LIG    1       24.025 -26.340   5.238  0.00  0.00    +0.432 C 
ATOM      9  C   LIG    1       26.427 -27.725   7.926  0.00  0.00    +0.078 C 
ATOM     10  C   LIG    1       26.295 -28.614   8.920  0.00  0.00    +0.015 C 
ENDROOT
BRANCH   1  14
ATOM     11  C   LIG    1       20.780 -31.984  10.471  0.00  0.00    +0.029 A 
ATOM     12  C   LIG    1       20.926 -30.630  10.830  0.00  0.00    +0.024 A 
ATOM     13  C   LIG    1       22.152 -29.944  10.740  0.00  0.00    +0.010 A 
ATOM     14  C   LIG    1       23.301 -30.601  10.305  0.00  0.00    -0.017 A 
ATOM     15  C   LIG    1       23.191 -31.949   9.955  0.00  0.00    +0.010 A 
ATOM     16  C   LIG    1       21.957 -32.623  10.045  0.00  0.00    +0.024 A 
BRANCH  11  18
ATOM     17  C   LIG    1       19.018 -33.363   9.418  0.00  0.00    +0.129 C 
ATOM     18  N   LIG    1       19.558 -32.664  10.590  0.00  0.00    -0.336 N 
ATOM     19  C   LIG    1       18.527 -32.097  11.464  0.00  0.00    +0.129 C 
ENDBRANCH  11  18
ENDBRANCH   1  14
BRANCH   1  20
ATOM     20  C   LIG    1       25.359 -29.605  11.502  0.00  0.00    -0.017 A 
ATOM     21  C   LIG    1       26.331 -30.486  11.975  0.00  0.00    +0.010 A 
ATOM     22  C   LIG    1       27.032 -30.215  13.164  0.00  0.00    +0.024 A 
ATOM     23  C   LIG    1       26.810 -29.053  13.925  0.00  0.00    +0.029 A 
ATOM     24  C   LIG    1       25.804 -28.200  13.440  0.00  0.00    +0.024 A 
ATOM     25  C   LIG    1       25.098 -28.456  12.248  0.00  0.00    +0.010 A 
BRANCH  23  26
ATOM     26  N   LIG    1       27.503 -28.791  15.118  0.00  0.00    -0.336 N 
ATOM     27  C   LIG    1       28.604 -29.683  15.500  0.00  0.00    +0.129 C 
ATOM     28  C   LIG    1       27.739 -27.392  15.493  0.00  0.00    +0.129 C 
ENDBRANCH  23  26
ENDBRANCH   1  20
TORSDOF 4
ENDMDL
MODEL 5
REMARK VINA RESULT:      -6.3      1.249      6.067
REMARK  Name = *****
REMARK                            x       y       z     vdW  Elec       q    Type
REMARK                         _______ _______ _______ _____ _____    ______ ____
ROOT
ATOM      1  C   LIG    1       26.069 -21.402   5.624  0.00  0.00    -0.004 C 
ATOM      2  C   LIG    1       25.310 -20.665   4.762  0.00  0.00    -0.016 C 
ATOM      3  C   LIG    1       24.218 -21.252   3.976  0.00  0.00    +0.015 C 
ATOM      4  C   LIG    1       23.179 -20.503   3.585  0.00  0.00    +0.078 C 
ATOM      5  C   LIG    1       23.152 -19.044   3.944  0.00  0.00    +0.202 C 
ATOM      6  N   LIG    1       22.055 -18.360   4.052  0.00  0.00    -0.234 N 
ATOM      7  C   LIG    1       22.037 -16.932   4.506  0.00  0.00    +0.432 C 
ATOM      8  C   LIG    1       20.705 -18.963   3.810  0.00  0.00    +0.432 C 
ATOM      9  C   LIG    1       24.518 -18.445   4.148  0.00  0.00    +0.078 C 
ATOM     10  C   LIG    1       25.533 -19.234   4.526  0.00  0.00    +0.015 C 
ENDROOT
BRANCH   1  14
ATOM     11  C   LIG    1       25.058 -25.591   6.382  0.00  0.00    +0.029 A 
ATOM     12  C   LIG    1       25.805 -24.817   7.292  0.00  0.00    +0.024 A 
ATOM     13  C   LIG    1       26.118 -23.464   7.066  0.00  0.00    +0.010 A 
ATOM     14  C   LIG    1       25.712 -22.829   5.894  0.00  0.00    -0.017 A 
ATOM     15  C   LIG    1       24.981 -23.575   4.965  0.00  0.00    +0.010 A 
ATOM     16  C   LIG    1       24.670 -24.928   5.206  0.00  0.00    +0.024 A 
BRANCH  11  18
ATOM     17  C   LIG    1       25.665 -27.725   7.475  0.00  0.00    +0.129 C 
ATOM     18  N   LIG    1       24.775 -26.947   6.607  0.00  0.00    -0.336 N 
ATOM     19  C   LIG    1       24.192 -27.728   5.510  0.00  0.00    +0.129 C 
ENDBRANCH  11  18
ENDBRANCH   1  14
BRANCH   1  20
ATOM     20  C   LIG    1       27.163 -20.758   6.407  0.00  0.00    -0.017 A 
ATOM     21  C   LIG    1       28.377 -20.433   5.801  0.00  0.00    +0.010 A 
ATOM     22  C   LIG    1       29.410 -19.824   6.536  0.00  0.00    +0.024 A 
ATOM     23  C   LIG    1       29.280 -19.500   7.898  0.00  0.00    +0.029 A 
ATOM     24  C   LIG    1       28.058 -19.867   8.489  0.00  0.00    +0.024 A 
ATOM     25  C   LIG    1       27.013 -20.471   7.763  0.00  0.00    +0.010 A 
BRANCH  23  26
ATOM     26  N   LIG    1       30.317 -18.904   8.633  0.00  0.00    -0.336 N 
ATOM     27  C   LIG    1       31.655 -18.839   8.032  0.00  0.00    +0.129 C 
ATOM     28  C   LIG    1       30.001 -17.734   9.461  0.00  0.00    +0.129 C 
ENDBRANCH  23  26
ENDBRANCH   1  20
TORSDOF 4
ENDMDL
MODEL 6
REMARK VINA RESULT:      -6.1      1.211      7.228
REMARK  Name = *****
REMARK                            x       y       z     vdW  Elec       q    Type
REMARK                         _______ _______ _______ _____ _____    ______ ____
ROOT
ATOM      1  C   LIG    1       25.540 -22.650   6.807  0.00  0.00    -0.004 C 
ATOM      2  C   LIG    1       24.388 -21.919   6.762  0.00  0.00    -0.016 C 
ATOM      3  C   LIG    1       24.359 -20.479   7.039  0.00  0.00    +0.015 C 
ATOM      4  C   LIG    1       23.420 -19.696   6.492  0.00  0.00    +0.078 C 
ATOM      5  C   LIG    1       22.379 -20.316   5.602  0.00  0.00    +0.202 C 
ATOM      6  N   LIG    1       21.753 -19.657   4.676  0.00  0.00    -0.234 N 
ATOM      7  C   LIG    1       20.791 -20.311   3.732  0.00  0.00    +0.432 C 
ATOM      8  C   LIG    1       22.002 -18.202   4.419  0.00  0.00    +0.432 C 
ATOM      9  C   LIG    1       22.116 -21.769   5.898  0.00  0.00    +0.078 C 
ATOM     10  C   LIG    1       23.080 -22.511   6.459  0.00  0.00    +0.015 C 
ENDROOT
BRANCH   1  14
ATOM     11  C   LIG    1       29.351 -20.587   7.419  0.00  0.00    +0.029 A 
ATOM     12  C   LIG    1       28.801 -21.459   8.379  0.00  0.00    +0.024 A 
ATOM     13  C   LIG    1       27.586 -22.142   8.183  0.00  0.00    +0.010 A 
ATOM     14  C   LIG    1       26.851 -21.959   7.014  0.00  0.00    -0.017 A 
ATOM     15  C   LIG    1       27.363 -21.089   6.048  0.00  0.00    +0.010 A 
ATOM     16  C   LIG    1       28.583 -20.415   6.255  0.00  0.00    +0.024 A 
BRANCH  11  18
ATOM     17  C   LIG    1       31.373 -20.241   8.800  0.00  0.00    +0.129 C 
ATOM     18  N   LIG    1       30.550 -19.891   7.637  0.00  0.00    -0.336 N 
ATOM     19  C   LIG    1       30.604 -18.469   7.283  0.00  0.00    +0.129 C 
ENDBRANCH  11  18
ENDBRANCH   1  14
BRANCH   1  20
ATOM     20  C   LIG    1       25.520 -24.112   6.510  0.00  0.00    -0.017 A 
ATOM     21  C   LIG    1       25.849 -25.044   7.495  0.00  0.00    +0.010 A 
ATOM     22  C   LIG    1       25.830 -26.423   7.218  0.00  0.00    +0.024 A 
ATOM     23  C   LIG    1       25.471 -26.937   5.959  0.00  0.00    +0.029 A 
ATOM     24  C   LIG    1       25.175 -25.973   4.978  0.00  0.00    +0.024 A 
ATOM     25  C   LIG    1       25.185 -24.590   5.243  0.00  0.00    +0.010 A 
BRANCH  23  26
ATOM     26  N   LIG    1       25.465 -28.313   5.681  0.00  0.00    -0.336 N 
ATOM     27  C   LIG    1       25.411 -29.255   6.806  0.00  0.00    +0.129 C 
ATOM     28  C   LIG    1       24.728 -28.783   4.502  0.00  0.00    +0.129 C 
ENDBRANCH  23  26
ENDBRANCH   1  20
TORSDOF 4
ENDMDL
MODEL 7
REMARK VINA RESULT:      -6.0      8.637     12.714
REMARK  Name = *****
REMARK                            x       y       z     vdW  Elec       q    Type
REMARK                         _______ _______ _______ _____ _____    ______ ____
ROOT
ATOM      1  C   LIG    1       23.735 -30.824  10.921  0.00  0.00    -0.004 C 
ATOM      2  C   LIG    1       24.327 -30.073  11.895  0.00  0.00    -0.016 C 
ATOM      3  C   LIG    1       25.720 -29.622  11.803  0.00  0.00    +0.015 C 
ATOM      4  C   LIG    1       26.118 -28.503  12.422  0.00  0.00    +0.078 C 
ATOM      5  C   LIG    1       25.123 -27.721  13.232  0.00  0.00    +0.202 C 
ATOM      6  N   LIG    1       25.236 -26.449  13.460  0.00  0.00    -0.234 N 
ATOM      7  C   LIG    1       24.186 -25.664  14.185  0.00  0.00    +0.432 C 
ATOM      8  C   LIG    1       26.388 -25.641  12.947  0.00  0.00    +0.432 C 
ATOM      9  C   LIG    1       23.991 -28.555  13.770  0.00  0.00    +0.078 C 
ATOM     10  C   LIG    1       23.635 -29.675  13.126  0.00  0.00    +0.015 C 
ENDROOT
BRANCH   1  14
ATOM     11  C   LIG    1       25.845 -31.659   7.180  0.00  0.00    +0.029 A 
ATOM     12  C   LIG    1       25.019 -30.531   7.346  0.00  0.00    +0.024 A 
ATOM     13  C   LIG    1       24.352 -30.243   8.551  0.00  0.00    +0.010 A 
ATOM     14  C   LIG    1       24.467 -31.097   9.645  0.00  0.00    -0.017 A 
ATOM     15  C   LIG    1       25.269 -32.233   9.508  0.00  0.00    +0.010 A 
ATOM     16  C   LIG    1       25.936 -32.506   8.297  0.00  0.00    +0.024 A 
BRANCH  11  18
ATOM     17  C   LIG    1       25.756 -31.734   4.710  0.00  0.00    +0.129 C 
ATOM     18  N   LIG    1       26.485 -31.949   5.965  0.00  0.00    -0.336 N 
ATOM     19  C   LIG    1       27.413 -33.084   5.920  0.00  0.00    +0.129 C 
ENDBRANCH  11  18
ENDBRANCH   1  14
BRANCH   1  20
ATOM     20  C   LIG    1       22.312 -31.252  11.056  0.00  0.00    -0.017 A 
ATOM     21  C   LIG    1       21.276 -30.439  10.595  0.00  0.00    +0.010 A 
ATOM     22  C   LIG    1       19.934 -30.840  10.720  0.00  0.00    +0.024 A 
ATOM     23  C   LIG    1       19.562 -32.069  11.294  0.00  0.00    +0.029 A 
ATOM     24  C   LIG    1       20.625 -32.853  11.777  0.00  0.00    +0.024 A 
ATOM     25  C   LIG    1       21.974 -32.466  11.653  0.00  0.00    +0.010 A 
BRANCH  23  26
ATOM     26  N   LIG    1       18.221 -32.462  11.429  0.00  0.00    -0.336 N 
ATOM     27  C   LIG    1       17.218 -31.435  11.739  0.00  0.00    +0.129 C 
ATOM     28  C   LIG    1       17.711 -33.515  10.543  0.00  0.00    +0.129 C 
ENDBRANCH  23  26
ENDBRANCH   1  20
TORSDOF 4
ENDMDL
MODEL 8
REMARK VINA RESULT:      -5.9      8.790     11.225
REMARK  Name = *****
REMARK                            x       y       z     vdW  Elec       q    Type
REMARK                         _______ _______ _______ _____ _____    ______ ____
ROOT
ATOM      1  C   LIG    1       23.998 -29.746  11.990  0.00  0.00    -0.004 C 
ATOM      2  C   LIG    1       22.960 -30.349  12.640  0.00  0.00    -0.016 C 
ATOM      3  C   LIG    1       22.473 -29.883  13.944  0.00  0.00    +0.015 C 
ATOM      4  C   LIG    1       21.199 -30.083  14.308  0.00  0.00    +0.078 C 
ATOM      5  C   LIG    1       20.277 -30.810  13.371  0.00  0.00    +0.202 C 
ATOM      6  N   LIG    1       18.989 -30.652  13.378  0.00  0.00    -0.234 N 
ATOM      7  C   LIG    1       18.091 -31.308  12.374  0.00  0.00    +0.432 C 
ATOM      8  C   LIG    1       18.298 -29.733  14.339  0.00  0.00    +0.432 C 
ATOM      9  C   LIG    1       20.983 -31.756  12.437  0.00  0.00    +0.078 C 
ATOM     10  C   LIG    1       22.262 -31.525  12.110  0.00  0.00    +0.015 C 
ENDROOT
BRANCH   1  14
ATOM     11  C   LIG    1       25.732 -26.044  13.550  0.00  0.00    +0.029 A 
ATOM     12  C   LIG    1       24.348 -26.305  13.587  0.00  0.00    +0.024 A 
ATOM     13  C   LIG    1       23.783 -27.501  13.106  0.00  0.00    +0.010 A 
ATOM     14  C   LIG    1       24.588 -28.486  12.538  0.00  0.00    -0.017 A 
ATOM     15  C   LIG    1       25.964 -28.251  12.474  0.00  0.00    +0.010 A 
ATOM     16  C   LIG    1       26.517 -27.051  12.964  0.00  0.00    +0.024 A 
BRANCH  11  18
ATOM     17  C   LIG    1       27.711 -24.785  14.332  0.00  0.00    +0.129 C 
ATOM     18  N   LIG    1       26.281 -24.837  14.009  0.00  0.00    -0.336 N 
ATOM     19  C   LIG    1       25.454 -23.973  14.858  0.00  0.00    +0.129 C 
ENDBRANCH  11  18
ENDBRANCH   1  14
BRANCH   1  20
ATOM     20  C   LIG    1       24.453 -30.252  10.661  0.00  0.00    -0.017 A 
ATOM     21  C   LIG    1       25.486 -31.185  10.571  0.00  0.00    +0.010 A 
ATOM     22  C   LIG    1       25.916 -31.666   9.321  0.00  0.00    +0.024 A 
ATOM     23  C   LIG    1       25.333 -31.252   8.110  0.00  0.00    +0.029 A 
ATOM     24  C   LIG    1       24.316 -30.289   8.231  0.00  0.00    +0.024 A 
ATOM     25  C   LIG    1       23.871 -29.804   9.477  0.00  0.00    +0.010 A 
BRANCH  23  26
ATOM     26  N   LIG    1       25.773 -31.723   6.863  0.00  0.00    -0.336 N 
ATOM     27  C   LIG    1       25.523 -30.898   5.674  0.00  0.00    +0.129 C 
ATOM     28  C   LIG    1       27.048 -32.448   6.801  0.00  0.00    +0.129 C 
ENDBRANCH  23  26
ENDBRANCH   1  20
TORSDOF 4
ENDMDL
MODEL 9
REMARK VINA RESULT:      -5.7      8.988     12.311
REMARK  Name = *****
REMARK                            x       y       z     vdW  Elec       q    Type
REMARK                         _______ _______ _______ _____ _____    ______ ____
ROOT
ATOM      1  C   LIG    1       23.148 -28.582  13.103  0.00  0.00    -0.004 C 
ATOM      2  C   LIG    1       24.133 -28.044  13.880  0.00  0.00    -0.016 C 
ATOM      3  C   LIG    1       25.558 -28.232  13.584  0.00  0.00    +0.015 C 
ATOM      4  C   LIG    1       26.461 -27.320  13.969  0.00  0.00    +0.078 C 
ATOM      5  C   LIG    1       25.999 -26.108  14.727  0.00  0.00    +0.202 C 
ATOM      6  N   LIG    1       26.646 -24.983  14.730  0.00  0.00    -0.234 N 
ATOM      7  C   LIG    1       26.123 -23.755  15.409  0.00  0.00    +0.432 C 
ATOM      8  C   LIG    1       27.932 -24.795  13.984  0.00  0.00    +0.432 C 
ATOM      9  C   LIG    1       24.725 -26.325  15.500  0.00  0.00    +0.078 C 
ATOM     10  C   LIG    1       23.856 -27.257  15.087  0.00  0.00    +0.015 C 
ENDROOT
BRANCH   1  14
ATOM     11  C   LIG    1       24.214 -30.653   9.398  0.00  0.00    +0.029 A 
ATOM     12  C   LIG    1       22.922 -30.715   9.953  0.00  0.00    +0.024 A 
ATOM     13  C   LIG    1       22.564 -30.036  11.134  0.00  0.00    +0.010 A 
ATOM     14  C   LIG    1       23.504 -29.279  11.828  0.00  0.00    -0.017 A 
ATOM     15  C   LIG    1       24.800 -29.209  11.309  0.00  0.00    +0.010 A 
ATOM     16  C   LIG    1       25.143 -29.889  10.124  0.00  0.00    +0.024 A 
BRANCH  11  18
ATOM     17  C   LIG    1       23.615 -32.319   7.672  0.00  0.00    +0.129 C 
ATOM     18  N   LIG    1       24.566 -31.354   8.235  0.00  0.00    -0.336 N 
ATOM     19  C   LIG    1       25.971 -31.735   8.048  0.00  0.00    +0.129 C 
ENDBRANCH  11  18
ENDBRANCH   1  14
BRANCH   1  20
ATOM     20  C   LIG    1       21.712 -28.357  13.440  0.00  0.00    -0.017 A 
ATOM     21  C   LIG    1       21.058 -27.194  13.031  0.00  0.00    +0.010 A 
ATOM     22  C   LIG    1       19.704 -26.980  13.345  0.00  0.00    +0.024 A 
ATOM     23  C   LIG    1       18.937 -27.913  14.065  0.00  0.00    +0.029 A 
ATOM     24  C   LIG    1       19.631 -29.061  14.490  0.00  0.00    +0.024 A 
ATOM     25  C   LIG    1       20.985 -29.291  14.177  0.00  0.00    +0.010 A 
BRANCH  23  26
ATOM     26  N   LIG    1       17.589 -27.691  14.389  0.00  0.00    -0.336 N 
ATOM     27  C   LIG    1       16.943 -28.590  15.353  0.00  0.00    +0.129 C 
ATOM     28  C   LIG    1       17.115 -26.305  14.487  0.00  0.00    +0.129 C 
ENDBRANCH  23  26
ENDBRANCH   1  20
TORSDOF 4
ENDMDL
