MODEL 1
REMARK VINA RESULT:      -2.0      0.000      0.000
REMARK  Name = *****
REMARK                            x       y       z     vdW  Elec       q    Type
REMARK                         _______ _______ _______ _____ _____    ______ ____
ROOT
ATOM      1  C   LIG    1       24.087 -19.863   4.964  0.00  0.00    +0.075 A 
ATOM      2  N   LIG    1       23.598 -18.770   4.230  0.00  0.00    -0.232 N 
ATOM      3  N   LIG    1       22.354 -19.019   3.729  0.00  0.00    -0.162 NA
ATOM      4  C   LIG    1       21.960 -20.172   4.293  0.00  0.00    +0.166 A 
ATOM      5  C   LIG    1       23.010 -20.734   5.049  0.00  0.00    +0.062 A 
ENDROOT
BRANCH   1  10
ATOM      6  C   LIG    1       29.468 -20.795   6.987  0.00  0.00    +0.044 C 
ATOM      7  C   LIG    1       28.078 -20.553   6.480  0.00  0.00    -0.050 A 
ATOM      8  C   LIG    1       27.875 -19.735   5.369  0.00  0.00    +0.004 A 
ATOM      9  C   LIG    1       26.591 -19.552   4.846  0.00  0.00    +0.010 A 
ATOM     10  C   LIG    1       25.460 -20.095   5.469  0.00  0.00    +0.001 A 
ATOM     11  C   LIG    1       25.680 -20.934   6.575  0.00  0.00    +0.010 A 
ATOM     12  C   LIG    1       26.973 -21.179   7.061  0.00  0.00    +0.004 A 
ENDBRANCH   1  10
BRANCH   2  13
ATOM     13  C   LIG    1       24.165 -17.478   3.988  0.00  0.00    +0.066 A 
ATOM     14  C   LIG    1       23.427 -16.311   4.226  0.00  0.00    +0.029 A 
ATOM     15  C   LIG    1       24.008 -15.055   4.040  0.00  0.00    +0.030 A 
ATOM     16  C   LIG    1       25.315 -14.961   3.559  0.00  0.00    +0.105 A 
ATOM     17  C   LIG    1       26.053 -16.112   3.277  0.00  0.00    +0.030 A 
ATOM     18  C   LIG    1       25.475 -17.371   3.484  0.00  0.00    +0.029 A 
BRANCH  16  19
ATOM     19  S   LIG    1       26.037 -13.354   3.344  0.00  0.00    +0.056 S 
ATOM     20  O   LIG    1       26.475 -12.872   4.635  0.00  0.00    -0.153 OA
ATOM     21  O   LIG    1       25.181 -12.583   2.477  0.00  0.00    -0.153 OA
BRANCH  19  22
ATOM     22  N   LIG    1       27.405 -13.717   2.437  0.00  0.00    -0.203 NA
ATOM     23  H   LIG    1       27.887 -14.560   2.737  0.00  0.00    +0.144 HD
ATOM     24  H   LIG    1       27.145 -13.752   1.446  0.00  0.00    +0.144 HD
ENDBRANCH  19  22
ENDBRANCH  16  19
ENDBRANCH   2  13
BRANCH   4  25
ATOM     25  C   LIG    1       20.588 -20.762   4.085  0.00  0.00    +0.436 C 
ATOM     26  F   LIG    1       19.630 -19.815   3.900  0.00  0.00    -0.164 F 
ATOM     27  F   LIG    1       20.193 -21.532   5.134  0.00  0.00    -0.164 F 
ATOM     28  F   LIG    1       20.548 -21.568   2.987  0.00  0.00    -0.164 F 
ENDBRANCH   4  25
TORSDOF 5
ENDMDL
MODEL 2
REMARK VINA RESULT:      -1.9      0.201      1.223
REMARK  Name = *****
REMARK                            x       y       z     vdW  Elec       q    Type
REMARK                         _______ _______ _______ _____ _____    ______ ____
ROOT
ATOM      1  C   LIG    1       24.099 -19.950   4.992  0.00  0.00    +0.075 A 
ATOM      2  N   LIG    1       23.639 -18.849   4.250  0.00  0.00    -0.232 N 
ATOM      3  N   LIG    1       22.395 -19.075   3.740  0.00  0.00    -0.162 NA
ATOM      4  C   LIG    1       21.972 -20.217   4.304  0.00  0.00    +0.166 A 
ATOM      5  C   LIG    1       23.004 -20.798   5.072  0.00  0.00    +0.062 A 
ENDROOT
BRANCH   1  10
ATOM      6  C   LIG    1       29.444 -20.988   7.062  0.00  0.00    +0.044 C 
ATOM      7  C   LIG    1       28.062 -20.720   6.543  0.00  0.00    -0.050 A 
ATOM      8  C   LIG    1       27.877 -19.829   5.486  0.00  0.00    +0.004 A 
ATOM      9  C   LIG    1       26.603 -19.617   4.950  0.00  0.00    +0.010 A 
ATOM     10  C   LIG    1       25.463 -20.209   5.509  0.00  0.00    +0.001 A 
ATOM     11  C   LIG    1       25.666 -21.120   6.560  0.00  0.00    +0.010 A 
ATOM     12  C   LIG    1       26.950 -21.391   7.055  0.00  0.00    +0.004 A 
ENDBRANCH   1  10
BRANCH   2  13
ATOM     13  C   LIG    1       24.235 -17.570   4.008  0.00  0.00    +0.066 A 
ATOM     14  C   LIG    1       25.547 -17.467   3.527  0.00  0.00    +0.029 A 
ATOM     15  C   LIG    1       26.100 -16.217   3.241  0.00  0.00    +0.030 A 
ATOM     16  C   LIG    1       25.361 -15.059   3.489  0.00  0.00    +0.105 A 
ATOM     17  C   LIG    1       24.066 -15.140   4.007  0.00  0.00    +0.030 A 
ATOM     18  C   LIG    1       23.506 -16.396   4.273  0.00  0.00    +0.029 A 
BRANCH  16  19
ATOM     19  S   LIG    1       26.079 -13.483   3.103  0.00  0.00    +0.056 S 
ATOM     20  O   LIG    1       26.813 -13.019   4.259  0.00  0.00    -0.153 OA
ATOM     21  O   LIG    1       25.082 -12.678   2.442  0.00  0.00    -0.153 OA
BRANCH  19  22
ATOM     22  N   LIG    1       27.195 -13.902   1.916  0.00  0.00    -0.203 NA
ATOM     23  H   LIG    1       27.822 -13.146   1.656  0.00  0.00    +0.144 HD
ATOM     24  H   LIG    1       27.702 -14.739   2.221  0.00  0.00    +0.144 HD
ENDBRANCH  19  22
ENDBRANCH  16  19
ENDBRANCH   2  13
BRANCH   4  25
ATOM     25  C   LIG    1       20.590 -20.779   4.088  0.00  0.00    +0.436 C 
ATOM     26  F   LIG    1       20.160 -21.534   5.133  0.00  0.00    -0.164 F 
ATOM     27  F   LIG    1       20.517 -21.556   2.975  0.00  0.00    -0.164 F 
ATOM     28  F   LIG    1       19.665 -19.792   3.921  0.00  0.00    -0.164 F 
ENDBRANCH   4  25
TORSDOF 5
ENDMDL
MODEL 3
REMARK VINA RESULT:      -1.1      1.403      1.998
REMARK  Name = *****
REMARK                            x       y       z     vdW  Elec       q    Type
REMARK                         _______ _______ _______ _____ _____    ______ ____
ROOT
ATOM      1  C   LIG    1       23.625 -18.927   4.639  0.00  0.00    +0.075 A 
ATOM      2  N   LIG    1       23.587 -17.703   3.952  0.00  0.00    -0.232 N 
ATOM      3  N   LIG    1       22.399 -17.527   3.307  0.00  0.00    -0.162 NA
ATOM      4  C   LIG    1       21.604 -18.523   3.730  0.00  0.00    +0.166 A 
ATOM      5  C   LIG    1       22.331 -19.420   4.541  0.00  0.00    +0.062 A 
ENDROOT
BRANCH   1  10
ATOM      6  C   LIG    1       28.222 -21.572   7.046  0.00  0.00    +0.044 C 
ATOM      7  C   LIG    1       27.043 -20.895   6.412  0.00  0.00    -0.050 A 
ATOM      8  C   LIG    1       25.782 -21.001   7.000  0.00  0.00    +0.004 A 
ATOM      9  C   LIG    1       24.686 -20.324   6.457  0.00  0.00    +0.010 A 
ATOM     10  C   LIG    1       24.788 -19.602   5.261  0.00  0.00    +0.001 A 
ATOM     11  C   LIG    1       26.068 -19.486   4.690  0.00  0.00    +0.010 A 
ATOM     12  C   LIG    1       27.185 -20.105   5.271  0.00  0.00    +0.004 A 
ENDBRANCH   1  10
BRANCH   2  13
ATOM     13  C   LIG    1       24.548 -16.644   3.877  0.00  0.00    +0.066 A 
ATOM     14  C   LIG    1       24.173 -15.314   4.107  0.00  0.00    +0.029 A 
ATOM     15  C   LIG    1       25.127 -14.295   4.087  0.00  0.00    +0.030 A 
ATOM     16  C   LIG    1       26.455 -14.595   3.778  0.00  0.00    +0.105 A 
ATOM     17  C   LIG    1       26.841 -15.910   3.505  0.00  0.00    +0.030 A 
ATOM     18  C   LIG    1       25.885 -16.933   3.547  0.00  0.00    +0.029 A 
BRANCH  16  19
ATOM     19  S   LIG    1       27.652 -13.286   3.773  0.00  0.00    +0.056 S 
ATOM     20  O   LIG    1       28.883 -13.792   3.207  0.00  0.00    -0.153 OA
ATOM     21  O   LIG    1       27.602 -12.618   5.049  0.00  0.00    -0.153 OA
BRANCH  19  22
ATOM     22  N   LIG    1       26.976 -12.215   2.666  0.00  0.00    -0.203 NA
ATOM     23  H   LIG    1       26.269 -12.633   2.068  0.00  0.00    +0.144 HD
ATOM     24  H   LIG    1       26.622 -11.397   3.172  0.00  0.00    +0.144 HD
ENDBRANCH  19  22
ENDBRANCH  16  19
ENDBRANCH   2  13
BRANCH   4  25
ATOM     25  C   LIG    1       20.155 -18.643   3.335  0.00  0.00    +0.436 C 
ATOM     26  F   LIG    1       19.939 -18.345   2.027  0.00  0.00    -0.164 F 
ATOM     27  F   LIG    1       19.350 -17.829   4.069  0.00  0.00    -0.164 F 
ATOM     28  F   LIG    1       19.685 -19.909   3.523  0.00  0.00    -0.164 F 
ENDBRANCH   4  25
TORSDOF 5
ENDMDL
