MODEL 1
REMARK VINA RESULT:       6.9      0.000      0.000
REMARK  Name = *****
REMARK                            x       y       z     vdW  Elec       q    Type
REMARK                         _______ _______ _______ _____ _____    ______ ____
ROOT
ATOM      1  C   LIG    1       24.698 -20.086   3.257  0.00  0.00    +0.169 C 
ATOM      2  C   LIG    1       25.866 -19.372   2.526  0.00  0.00    +0.175 C 
ATOM      3  C   LIG    1       26.445 -18.174   3.317  0.00  0.00    +0.169 C 
ATOM      4  C   LIG    1       26.764 -18.532   4.813  0.00  0.00    +0.084 C 
ATOM      5  C   LIG    1       25.609 -19.304   5.488  0.00  0.00    +0.042 C 
ATOM      6  C   LIG    1       25.124 -20.525   4.692  0.00  0.00    +0.084 C 
ENDROOT
BRANCH   6   7
ATOM      7  N   LIG    1       26.170 -21.572   4.699  0.00  0.00    -0.325 NA
ATOM      8  H   LIG    1       26.076 -22.146   3.855  0.00  0.00    +0.118 HD
ATOM      9  H   LIG    1       25.969 -22.227   5.466  0.00  0.00    +0.118 HD
ENDBRANCH   6   7
BRANCH   4  10
ATOM     10  N   LIG    1       28.043 -19.253   4.967  0.00  0.00    -0.325 NA
ATOM     11  H   LIG    1       28.827 -18.617   4.757  0.00  0.00    +0.118 HD
ATOM     12  H   LIG    1       28.180 -19.516   5.943  0.00  0.00    +0.118 HD
ENDBRANCH   4  10
BRANCH   2  13
ATOM     13  O   LIG    1       26.892 -20.309   2.185  0.00  0.00    -0.387 OA
ATOM     14  H   LIG    1       27.586 -20.221   2.875  0.00  0.00    +0.210 HD
ENDBRANCH   2  13
BRANCH   3  15
ATOM     15  O   LIG    1       25.559 -17.029   3.316  0.00  0.00    -0.341 OA
BRANCH  15  16
ATOM     16  C   LIG    1       26.065 -15.741   3.743  0.00  0.00    +0.281 C 
ATOM     17  C   LIG    1       24.944 -14.803   4.204  0.00  0.00    +0.189 C 
ATOM     18  C   LIG    1       25.473 -13.377   4.478  0.00  0.00    +0.116 C 
ATOM     19  C   LIG    1       26.187 -12.859   3.209  0.00  0.00    +0.165 C 
ATOM     20  C   LIG    1       27.197 -13.859   2.620  0.00  0.00    +0.177 C 
ATOM     21  O   LIG    1       26.729 -15.221   2.584  0.00  0.00    -0.341 OA
BRANCH  18  22
ATOM     22  N   LIG    1       26.298 -13.260   5.691  0.00  0.00    -0.323 NA
ATOM     23  H   LIG    1       26.015 -13.945   6.391  0.00  0.00    +0.119 HD
ATOM     24  H   LIG    1       27.291 -13.429   5.483  0.00  0.00    +0.119 HD
ENDBRANCH  18  22
BRANCH  17  25
ATOM     25  O   LIG    1       23.946 -14.750   3.164  0.00  0.00    -0.385 OA
ATOM     26  H   LIG    1       24.010 -13.844   2.790  0.00  0.00    +0.210 HD
ENDBRANCH  17  25
BRANCH  19  27
ATOM     27  O   LIG    1       25.200 -12.571   2.195  0.00  0.00    -0.388 OA
ATOM     28  H   LIG    1       25.689 -12.424   1.359  0.00  0.00    +0.210 HD
ENDBRANCH  19  27
BRANCH  20  29
ATOM     29  C   LIG    1       28.607 -13.699   3.216  0.00  0.00    +0.190 C 
BRANCH  29  30
ATOM     30  O   LIG    1       28.786 -12.458   3.895  0.00  0.00    -0.392 OA
ATOM     31  H   LIG    1       29.742 -12.261   3.815  0.00  0.00    +0.209 HD
ENDBRANCH  29  30
ENDBRANCH  20  29
ENDBRANCH  15  16
ENDBRANCH   3  15
BRANCH   1  32
ATOM     32  O   LIG    1       23.501 -19.287   3.373  0.00  0.00    -0.342 OA
BRANCH  32  37
ATOM     33  C   LIG    1       21.680 -17.254   4.375  0.00  0.00    +0.163 C 
ATOM     34  C   LIG    1       20.401 -18.073   4.055  0.00  0.00    +0.146 C 
ATOM     35  C   LIG    1       20.637 -19.553   3.759  0.00  0.00    +0.057 C 
ATOM     36  C   LIG    1       21.614 -20.114   4.764  0.00  0.00    +0.110 C 
ATOM     37  C   LIG    1       22.917 -19.273   4.678  0.00  0.00    +0.268 C 
ATOM     38  O   LIG    1       22.648 -17.960   5.151  0.00  0.00    -0.343 OA
BRANCH  36  39
ATOM     39  N   LIG    1       21.754 -21.571   4.615  0.00  0.00    -0.323 NA
ATOM     40  H   LIG    1       21.993 -21.833   3.647  0.00  0.00    +0.119 HD
ATOM     41  H   LIG    1       22.497 -21.949   5.203  0.00  0.00    +0.119 HD
ENDBRANCH  36  39
BRANCH  34  42
ATOM     42  O   LIG    1       19.720 -17.495   2.937  0.00  0.00    -0.389 OA
ATOM     43  H   LIG    1       19.004 -16.939   3.268  0.00  0.00    +0.210 HD
ENDBRANCH  34  42
BRANCH  33  44
ATOM     44  C   LIG    1       21.309 -15.993   5.195  0.00  0.00    +0.112 C 
BRANCH  44  45
ATOM     45  N   LIG    1       22.466 -15.175   5.598  0.00  0.00    -0.328 NA
ATOM     46  H   LIG    1       23.229 -15.790   5.890  0.00  0.00    +0.118 HD
ATOM     47  H   LIG    1       22.223 -14.661   6.444  0.00  0.00    +0.118 HD
ENDBRANCH  44  45
ENDBRANCH  33  44
ENDBRANCH  32  37
ENDBRANCH   1  32
TORSDOF 16
ENDMDL
MODEL 2
REMARK VINA RESULT:       7.7      1.149      1.988
REMARK  Name = *****
REMARK                            x       y       z     vdW  Elec       q    Type
REMARK                         _______ _______ _______ _____ _____    ______ ____
ROOT
ATOM      1  C   LIG    1       24.639 -20.238   3.245  0.00  0.00    +0.169 C 
ATOM      2  C   LIG    1       25.785 -19.450   2.558  0.00  0.00    +0.175 C 
ATOM      3  C   LIG    1       26.225 -18.193   3.346  0.00  0.00    +0.169 C 
ATOM      4  C   LIG    1       26.488 -18.492   4.866  0.00  0.00    +0.084 C 
ATOM      5  C   LIG    1       25.362 -19.339   5.499  0.00  0.00    +0.042 C 
ATOM      6  C   LIG    1       25.018 -20.611   4.711  0.00  0.00    +0.084 C 
ENDROOT
BRANCH   6   7
ATOM      7  N   LIG    1       26.141 -21.571   4.799  0.00  0.00    -0.325 NA
ATOM      8  H   LIG    1       25.769 -22.507   4.989  0.00  0.00    +0.118 HD
ATOM      9  H   LIG    1       26.691 -21.350   5.641  0.00  0.00    +0.118 HD
ENDBRANCH   6   7
BRANCH   4  10
ATOM     10  N   LIG    1       27.810 -19.105   5.105  0.00  0.00    -0.325 NA
ATOM     11  H   LIG    1       28.074 -19.688   4.297  0.00  0.00    +0.118 HD
ATOM     12  H   LIG    1       28.528 -18.381   5.144  0.00  0.00    +0.118 HD
ENDBRANCH   4  10
BRANCH   2  13
ATOM     13  O   LIG    1       26.898 -20.310   2.296  0.00  0.00    -0.387 OA
ATOM     14  H   LIG    1       26.533 -21.219   2.217  0.00  0.00    +0.210 HD
ENDBRANCH   2  13
BRANCH   3  15
ATOM     15  O   LIG    1       25.253 -17.123   3.269  0.00  0.00    -0.341 OA
BRANCH  15  16
ATOM     16  C   LIG    1       25.714 -15.754   3.151  0.00  0.00    +0.281 C 
ATOM     17  C   LIG    1       27.202 -15.614   3.489  0.00  0.00    +0.189 C 
ATOM     18  C   LIG    1       27.635 -14.132   3.541  0.00  0.00    +0.116 C 
ATOM     19  C   LIG    1       26.731 -13.383   4.547  0.00  0.00    +0.165 C 
ATOM     20  C   LIG    1       25.229 -13.648   4.339  0.00  0.00    +0.177 C 
ATOM     21  O   LIG    1       24.902 -15.027   4.081  0.00  0.00    -0.341 OA
BRANCH  18  22
ATOM     22  N   LIG    1       27.701 -13.473   2.226  0.00  0.00    -0.323 NA
ATOM     23  H   LIG    1       26.874 -12.898   2.066  0.00  0.00    +0.119 HD
ATOM     24  H   LIG    1       28.520 -12.855   2.161  0.00  0.00    +0.119 HD
ENDBRANCH  18  22
BRANCH  17  25
ATOM     25  O   LIG    1       27.430 -16.222   4.777  0.00  0.00    -0.385 OA
ATOM     26  H   LIG    1       27.826 -17.099   4.583  0.00  0.00    +0.210 HD
ENDBRANCH  17  25
BRANCH  19  27
ATOM     27  O   LIG    1       27.076 -13.793   5.888  0.00  0.00    -0.388 OA
ATOM     28  H   LIG    1       26.941 -14.762   5.930  0.00  0.00    +0.210 HD
ENDBRANCH  19  27
BRANCH  20  29
ATOM     29  C   LIG    1       24.584 -12.658   3.354  0.00  0.00    +0.190 C 
BRANCH  29  30
ATOM     30  O   LIG    1       23.440 -13.196   2.693  0.00  0.00    -0.392 OA
ATOM     31  H   LIG    1       23.000 -13.755   3.364  0.00  0.00    +0.209 HD
ENDBRANCH  29  30
ENDBRANCH  20  29
ENDBRANCH  15  16
ENDBRANCH   3  15
BRANCH   1  32
ATOM     32  O   LIG    1       23.377 -19.535   3.277  0.00  0.00    -0.342 OA
BRANCH  32  37
ATOM     33  C   LIG    1       21.671 -17.318   4.068  0.00  0.00    +0.163 C 
ATOM     34  C   LIG    1       20.352 -18.115   3.891  0.00  0.00    +0.146 C 
ATOM     35  C   LIG    1       20.521 -19.630   3.776  0.00  0.00    +0.057 C 
ATOM     36  C   LIG    1       21.509 -20.103   4.814  0.00  0.00    +0.110 C 
ATOM     37  C   LIG    1       22.839 -19.334   4.586  0.00  0.00    +0.268 C 
ATOM     38  O   LIG    1       22.637 -17.962   4.898  0.00  0.00    -0.343 OA
BRANCH  36  39
ATOM     39  N   LIG    1       21.588 -21.571   4.845  0.00  0.00    -0.323 NA
ATOM     40  H   LIG    1       21.924 -21.914   5.758  0.00  0.00    +0.119 HD
ATOM     41  H   LIG    1       20.680 -22.009   4.694  0.00  0.00    +0.119 HD
ENDBRANCH  36  39
BRANCH  34  42
ATOM     42  O   LIG    1       19.655 -17.652   2.729  0.00  0.00    -0.389 OA
ATOM     43  H   LIG    1       20.061 -18.051   1.950  0.00  0.00    +0.210 HD
ENDBRANCH  34  42
BRANCH  33  44
ATOM     44  C   LIG    1       21.377 -15.950   4.734  0.00  0.00    +0.112 C 
BRANCH  44  45
ATOM     45  N   LIG    1       22.444 -15.476   5.634  0.00  0.00    -0.328 NA
ATOM     46  H   LIG    1       22.613 -16.180   6.356  0.00  0.00    +0.118 HD
ATOM     47  H   LIG    1       22.101 -14.668   6.149  0.00  0.00    +0.118 HD
ENDBRANCH  44  45
ENDBRANCH  33  44
ENDBRANCH  32  37
ENDBRANCH   1  32
TORSDOF 16
ENDMDL
MODEL 3
REMARK VINA RESULT:       9.3      2.005      4.766
REMARK  Name = *****
REMARK                            x       y       z     vdW  Elec       q    Type
REMARK                         _______ _______ _______ _____ _____    ______ ____
ROOT
ATOM      1  C   LIG    1       22.727 -18.639   5.526  0.00  0.00    +0.169 C 
ATOM      2  C   LIG    1       22.346 -17.161   5.246  0.00  0.00    +0.175 C 
ATOM      3  C   LIG    1       22.781 -16.668   3.845  0.00  0.00    +0.169 C 
ATOM      4  C   LIG    1       22.360 -17.656   2.697  0.00  0.00    +0.084 C 
ATOM      5  C   LIG    1       22.689 -19.125   3.040  0.00  0.00    +0.042 C 
ATOM      6  C   LIG    1       22.170 -19.579   4.413  0.00  0.00    +0.084 C 
ENDROOT
BRANCH   6   7
ATOM      7  N   LIG    1       20.692 -19.646   4.388  0.00  0.00    -0.325 NA
ATOM      8  H   LIG    1       20.396 -20.604   4.600  0.00  0.00    +0.118 HD
ATOM      9  H   LIG    1       20.376 -19.500   3.420  0.00  0.00    +0.118 HD
ENDBRANCH   6   7
BRANCH   4  10
ATOM     10  N   LIG    1       20.943 -17.508   2.310  0.00  0.00    -0.325 NA
ATOM     11  H   LIG    1       20.848 -16.743   1.626  0.00  0.00    +0.118 HD
ATOM     12  H   LIG    1       20.630 -18.340   1.809  0.00  0.00    +0.118 HD
ENDBRANCH   4  10
BRANCH   2  13
ATOM     13  O   LIG    1       20.944 -16.956   5.452  0.00  0.00    -0.387 OA
ATOM     14  H   LIG    1       20.483 -17.577   4.845  0.00  0.00    +0.210 HD
ENDBRANCH   2  13
BRANCH   3  15
ATOM     15  O   LIG    1       24.211 -16.465   3.749  0.00  0.00    -0.341 OA
BRANCH  15  16
ATOM     16  C   LIG    1       24.722 -15.134   3.490  0.00  0.00    +0.281 C 
ATOM     17  C   LIG    1       26.239 -15.128   3.275  0.00  0.00    +0.189 C 
ATOM     18  C   LIG    1       26.795 -13.690   3.187  0.00  0.00    +0.116 C 
ATOM     19  C   LIG    1       26.380 -12.916   4.459  0.00  0.00    +0.165 C 
ATOM     20  C   LIG    1       24.885 -13.050   4.799  0.00  0.00    +0.177 C 
ATOM     21  O   LIG    1       24.364 -14.386   4.658  0.00  0.00    -0.341 OA
BRANCH  18  22
ATOM     22  N   LIG    1       26.448 -12.981   1.943  0.00  0.00    -0.323 NA
ATOM     23  H   LIG    1       27.126 -13.182   1.209  0.00  0.00    +0.119 HD
ATOM     24  H   LIG    1       25.526 -13.273   1.595  0.00  0.00    +0.119 HD
ENDBRANCH  18  22
BRANCH  17  25
ATOM     25  O   LIG    1       26.854 -15.809   4.388  0.00  0.00    -0.385 OA
ATOM     26  H   LIG    1       26.795 -15.181   5.140  0.00  0.00    +0.210 HD
ENDBRANCH  17  25
BRANCH  19  27
ATOM     27  O   LIG    1       27.140 -13.411   5.582  0.00  0.00    -0.388 OA
ATOM     28  H   LIG    1       28.081 -13.217   5.393  0.00  0.00    +0.210 HD
ENDBRANCH  19  27
BRANCH  20  29
ATOM     29  C   LIG    1       24.024 -11.969   4.123  0.00  0.00    +0.190 C 
BRANCH  29  30
ATOM     30  O   LIG    1       23.979 -12.100   2.703  0.00  0.00    -0.392 OA
ATOM     31  H   LIG    1       23.270 -11.490   2.415  0.00  0.00    +0.209 HD
ENDBRANCH  29  30
ENDBRANCH  20  29
ENDBRANCH  15  16
ENDBRANCH   3  15
BRANCH   1  32
ATOM     32  O   LIG    1       24.149 -18.869   5.633  0.00  0.00    -0.342 OA
BRANCH  32  37
ATOM     33  C   LIG    1       26.957 -19.573   5.369  0.00  0.00    +0.163 C 
ATOM     34  C   LIG    1       26.742 -21.062   5.752  0.00  0.00    +0.146 C 
ATOM     35  C   LIG    1       25.290 -21.536   5.719  0.00  0.00    +0.057 C 
ATOM     36  C   LIG    1       24.622 -21.014   4.469  0.00  0.00    +0.110 C 
ATOM     37  C   LIG    1       24.745 -19.466   4.478  0.00  0.00    +0.268 C 
ATOM     38  O   LIG    1       26.112 -19.112   4.315  0.00  0.00    -0.343 OA
BRANCH  36  39
ATOM     39  N   LIG    1       23.270 -21.572   4.315  0.00  0.00    -0.323 NA
ATOM     40  H   LIG    1       22.652 -20.931   3.795  0.00  0.00    +0.119 HD
ATOM     41  H   LIG    1       23.272 -22.449   3.795  0.00  0.00    +0.119 HD
ENDBRANCH  36  39
BRANCH  34  42
ATOM     42  O   LIG    1       27.265 -21.308   7.061  0.00  0.00    -0.389 OA
ATOM     43  H   LIG    1       27.828 -22.091   7.024  0.00  0.00    +0.210 HD
ENDBRANCH  34  42
BRANCH  33  44
ATOM     44  C   LIG    1       28.411 -19.358   4.879  0.00  0.00    +0.112 C 
BRANCH  44  45
ATOM     45  N   LIG    1       28.836 -17.947   4.854  0.00  0.00    -0.328 NA
ATOM     46  H   LIG    1       29.670 -17.836   5.436  0.00  0.00    +0.118 HD
ATOM     47  H   LIG    1       28.128 -17.385   5.323  0.00  0.00    +0.118 HD
ENDBRANCH  44  45
ENDBRANCH  33  44
ENDBRANCH  32  37
ENDBRANCH   1  32
TORSDOF 16
ENDMDL
MODEL 4
REMARK VINA RESULT:       9.5      2.144      7.045
REMARK  Name = *****
REMARK                            x       y       z     vdW  Elec       q    Type
REMARK                         _______ _______ _______ _____ _____    ______ ____
ROOT
ATOM      1  C   LIG    1       25.389 -14.066   2.678  0.00  0.00    +0.169 C 
ATOM      2  C   LIG    1       23.838 -14.063   2.676  0.00  0.00    +0.175 C 
ATOM      3  C   LIG    1       23.221 -13.950   4.091  0.00  0.00    +0.169 C 
ATOM      4  C   LIG    1       23.853 -12.785   4.936  0.00  0.00    +0.084 C 
ATOM      5  C   LIG    1       25.395 -12.776   4.858  0.00  0.00    +0.042 C 
ATOM      6  C   LIG    1       25.949 -12.817   3.426  0.00  0.00    +0.084 C 
ENDROOT
BRANCH   6   7
ATOM      7  N   LIG    1       25.650 -11.541   2.739  0.00  0.00    -0.325 NA
ATOM      8  H   LIG    1       26.074 -10.769   3.263  0.00  0.00    +0.118 HD
ATOM      9  H   LIG    1       24.639 -11.362   2.813  0.00  0.00    +0.118 HD
ENDBRANCH   6   7
BRANCH   4  10
ATOM     10  N   LIG    1       23.297 -11.463   4.587  0.00  0.00    -0.325 NA
ATOM     11  H   LIG    1       23.563 -10.774   5.306  0.00  0.00    +0.118 HD
ATOM     12  H   LIG    1       23.729 -11.118   3.729  0.00  0.00    +0.118 HD
ENDBRANCH   4  10
BRANCH   2  13
ATOM     13  O   LIG    1       23.339 -13.036   1.813  0.00  0.00    -0.387 OA
ATOM     14  H   LIG    1       22.359 -13.080   1.869  0.00  0.00    +0.210 HD
ENDBRANCH   2  13
BRANCH   3  15
ATOM     15  O   LIG    1       23.358 -15.173   4.854  0.00  0.00    -0.341 OA
BRANCH  15  16
ATOM     16  C   LIG    1       23.025 -16.438   4.231  0.00  0.00    +0.281 C 
ATOM     17  C   LIG    1       21.685 -16.991   4.727  0.00  0.00    +0.189 C 
ATOM     18  C   LIG    1       21.431 -18.422   4.200  0.00  0.00    +0.116 C 
ATOM     19  C   LIG    1       22.623 -19.319   4.604  0.00  0.00    +0.165 C 
ATOM     20  C   LIG    1       23.995 -18.705   4.275  0.00  0.00    +0.177 C 
ATOM     21  O   LIG    1       24.107 -17.304   4.594  0.00  0.00    -0.341 OA
BRANCH  18  22
ATOM     22  N   LIG    1       21.119 -18.491   2.763  0.00  0.00    -0.323 NA
ATOM     23  H   LIG    1       20.438 -17.778   2.504  0.00  0.00    +0.119 HD
ATOM     24  H   LIG    1       21.960 -18.332   2.193  0.00  0.00    +0.119 HD
ENDBRANCH  18  22
BRANCH  17  25
ATOM     25  O   LIG    1       21.713 -17.013   6.169  0.00  0.00    -0.385 OA
ATOM     26  H   LIG    1       22.563 -16.591   6.418  0.00  0.00    +0.210 HD
ENDBRANCH  17  25
BRANCH  19  27
ATOM     27  O   LIG    1       22.571 -19.563   6.026  0.00  0.00    -0.388 OA
ATOM     28  H   LIG    1       23.117 -18.869   6.451  0.00  0.00    +0.210 HD
ENDBRANCH  19  27
BRANCH  20  29
ATOM     29  C   LIG    1       24.483 -19.065   2.861  0.00  0.00    +0.190 C 
BRANCH  29  30
ATOM     30  O   LIG    1       25.631 -18.319   2.461  0.00  0.00    -0.392 OA
ATOM     31  H   LIG    1       25.402 -17.954   1.582  0.00  0.00    +0.209 HD
ENDBRANCH  29  30
ENDBRANCH  20  29
ENDBRANCH  15  16
ENDBRANCH   3  15
BRANCH   1  32
ATOM     32  O   LIG    1       25.974 -15.243   3.278  0.00  0.00    -0.342 OA
BRANCH  32  37
ATOM     33  C   LIG    1       28.034 -13.369   4.115  0.00  0.00    +0.163 C 
ATOM     34  C   LIG    1       28.391 -14.154   5.405  0.00  0.00    +0.146 C 
ATOM     35  C   LIG    1       27.853 -15.584   5.463  0.00  0.00    +0.057 C 
ATOM     36  C   LIG    1       28.078 -16.257   4.130  0.00  0.00    +0.110 C 
ATOM     37  C   LIG    1       27.376 -15.399   3.043  0.00  0.00    +0.268 C 
ATOM     38  O   LIG    1       28.059 -14.157   2.924  0.00  0.00    -0.343 OA
BRANCH  36  39
ATOM     39  N   LIG    1       27.718 -17.682   4.185  0.00  0.00    -0.323 NA
ATOM     40  H   LIG    1       26.717 -17.813   4.393  0.00  0.00    +0.119 HD
ATOM     41  H   LIG    1       27.889 -18.157   3.299  0.00  0.00    +0.119 HD
ENDBRANCH  36  39
BRANCH  34  42
ATOM     42  O   LIG    1       27.911 -13.448   6.553  0.00  0.00    -0.389 OA
ATOM     43  H   LIG    1       27.536 -14.087   7.172  0.00  0.00    +0.210 HD
ENDBRANCH  34  42
BRANCH  33  44
ATOM     44  C   LIG    1       29.054 -12.225   3.893  0.00  0.00    +0.112 C 
BRANCH  44  45
ATOM     45  N   LIG    1       29.474 -11.544   5.131  0.00  0.00    -0.328 NA
ATOM     46  H   LIG    1       28.947 -10.672   5.231  0.00  0.00    +0.118 HD
ATOM     47  H   LIG    1       30.440 -11.240   5.024  0.00  0.00    +0.118 HD
ENDBRANCH  44  45
ENDBRANCH  33  44
ENDBRANCH  32  37
ENDBRANCH   1  32
TORSDOF 16
ENDMDL
MODEL 5
REMARK VINA RESULT:       9.9      2.287      4.885
REMARK  Name = *****
REMARK                            x       y       z     vdW  Elec       q    Type
REMARK                         _______ _______ _______ _____ _____    ______ ____
ROOT
ATOM      1  C   LIG    1       24.663 -19.702   5.457  0.00  0.00    +0.169 C 
ATOM      2  C   LIG    1       23.553 -18.641   5.230  0.00  0.00    +0.175 C 
ATOM      3  C   LIG    1       23.770 -17.788   3.956  0.00  0.00    +0.169 C 
ATOM      4  C   LIG    1       24.077 -18.662   2.687  0.00  0.00    +0.084 C 
ATOM      5  C   LIG    1       25.134 -19.752   2.969  0.00  0.00    +0.042 C 
ATOM      6  C   LIG    1       24.828 -20.614   4.203  0.00  0.00    +0.084 C 
ENDROOT
BRANCH   6   7
ATOM      7  N   LIG    1       23.647 -21.465   3.937  0.00  0.00    -0.325 NA
ATOM      8  H   LIG    1       22.996 -20.956   3.330  0.00  0.00    +0.118 HD
ATOM      9  H   LIG    1       23.125 -21.579   4.816  0.00  0.00    +0.118 HD
ENDBRANCH   6   7
BRANCH   4  10
ATOM     10  N   LIG    1       22.860 -19.246   2.089  0.00  0.00    -0.325 NA
ATOM     11  H   LIG    1       22.870 -19.102   1.069  0.00  0.00    +0.118 HD
ATOM     12  H   LIG    1       22.867 -20.260   2.205  0.00  0.00    +0.118 HD
ENDBRANCH   4  10
BRANCH   2  13
ATOM     13  O   LIG    1       22.262 -19.259   5.222  0.00  0.00    -0.387 OA
ATOM     14  H   LIG    1       22.244 -19.870   5.993  0.00  0.00    +0.210 HD
ENDBRANCH   2  13
BRANCH   3  15
ATOM     15  O   LIG    1       24.847 -16.833   4.106  0.00  0.00    -0.341 OA
BRANCH  15  16
ATOM     16  C   LIG    1       24.586 -15.428   3.871  0.00  0.00    +0.281 C 
ATOM     17  C   LIG    1       24.931 -15.008   2.438  0.00  0.00    +0.189 C 
ATOM     18  C   LIG    1       24.827 -13.477   2.254  0.00  0.00    +0.116 C 
ATOM     19  C   LIG    1       25.730 -12.787   3.301  0.00  0.00    +0.165 C 
ATOM     20  C   LIG    1       25.529 -13.317   4.732  0.00  0.00    +0.177 C 
ATOM     21  O   LIG    1       25.419 -14.751   4.821  0.00  0.00    -0.341 OA
BRANCH  18  22
ATOM     22  N   LIG    1       23.448 -12.960   2.252  0.00  0.00    -0.323 NA
ATOM     23  H   LIG    1       22.825 -13.585   2.761  0.00  0.00    +0.119 HD
ATOM     24  H   LIG    1       23.397 -12.040   2.709  0.00  0.00    +0.119 HD
ENDBRANCH  18  22
BRANCH  17  25
ATOM     25  O   LIG    1       26.281 -15.431   2.157  0.00  0.00    -0.385 OA
ATOM     26  H   LIG    1       26.684 -15.609   3.035  0.00  0.00    +0.210 HD
ENDBRANCH  17  25
BRANCH  19  27
ATOM     27  O   LIG    1       27.113 -12.990   2.939  0.00  0.00    -0.388 OA
ATOM     28  H   LIG    1       27.307 -12.372   2.205  0.00  0.00    +0.210 HD
ENDBRANCH  19  27
BRANCH  20  29
ATOM     29  C   LIG    1       24.431 -12.557   5.496  0.00  0.00    +0.190 C 
BRANCH  29  30
ATOM     30  O   LIG    1       23.780 -11.568   4.700  0.00  0.00    -0.392 OA
ATOM     31  H   LIG    1       22.829 -11.791   4.747  0.00  0.00    +0.209 HD
ENDBRANCH  29  30
ENDBRANCH  20  29
ENDBRANCH  15  16
ENDBRANCH   3  15
BRANCH   1  32
ATOM     32  O   LIG    1       25.956 -19.141   5.774  0.00  0.00    -0.342 OA
BRANCH  32  37
ATOM     33  C   LIG    1       28.122 -17.369   4.987  0.00  0.00    +0.163 C 
ATOM     34  C   LIG    1       29.141 -17.976   5.990  0.00  0.00    +0.146 C 
ATOM     35  C   LIG    1       28.734 -19.320   6.592  0.00  0.00    +0.057 C 
ATOM     36  C   LIG    1       28.184 -20.210   5.504  0.00  0.00    +0.110 C 
ATOM     37  C   LIG    1       26.991 -19.467   4.843  0.00  0.00    +0.268 C 
ATOM     38  O   LIG    1       27.486 -18.331   4.146  0.00  0.00    -0.343 OA
BRANCH  36  39
ATOM     39  N   LIG    1       27.923 -21.568   6.007  0.00  0.00    -0.323 NA
ATOM     40  H   LIG    1       27.607 -21.555   6.988  0.00  0.00    +0.119 HD
ATOM     41  H   LIG    1       27.191 -22.040   5.478  0.00  0.00    +0.119 HD
ENDBRANCH  36  39
BRANCH  34  42
ATOM     42  O   LIG    1       29.376 -17.056   7.061  0.00  0.00    -0.389 OA
ATOM     43  H   LIG    1       30.262 -16.689   6.961  0.00  0.00    +0.210 HD
ENDBRANCH  34  42
BRANCH  33  44
ATOM     44  C   LIG    1       28.841 -16.377   4.039  0.00  0.00    +0.112 C 
BRANCH  44  45
ATOM     45  N   LIG    1       28.171 -15.071   3.912  0.00  0.00    -0.328 NA
ATOM     46  H   LIG    1       28.803 -14.411   3.454  0.00  0.00    +0.118 HD
ATOM     47  H   LIG    1       28.036 -14.682   4.844  0.00  0.00    +0.118 HD
ENDBRANCH  44  45
ENDBRANCH  33  44
ENDBRANCH  32  37
ENDBRANCH   1  32
TORSDOF 16
ENDMDL
