MODEL 1
REMARK VINA RESULT:      -3.5      0.000      0.000
REMARK  Name = *****
REMARK                            x       y       z     vdW  Elec       q    Type
REMARK                         _______ _______ _______ _____ _____    ______ ____
ROOT
ATOM      1  C   LIG    1       21.892 -18.264   5.014  0.00  0.00    +0.138 C 
ATOM      2  N   LIG    1       23.110 -18.694   4.341  0.00  0.00    -0.272 N 
ATOM      3  C   LIG    1       23.130 -20.011   3.865  0.00  0.00    +0.241 C 
ATOM      4  O   LIG    1       22.194 -20.795   4.052  0.00  0.00    -0.273 OA
ATOM      5  C   LIG    1       24.318 -20.423   3.007  0.00  0.00    +0.238 C 
ATOM      6  N   LIG    1       25.508 -20.510   3.849  0.00  0.00    -0.273 NA
ATOM      7  C   LIG    1       26.015 -19.414   4.303  0.00  0.00    +0.078 C 
ATOM      8  C   LIG    1       25.496 -18.058   3.951  0.00  0.00    +0.028 A 
ATOM      9  C   LIG    1       26.443 -17.090   3.566  0.00  0.00    +0.096 A 
ATOM     10  C   LIG    1       26.038 -15.770   3.352  0.00  0.00    +0.274 A 
ATOM     11  C   LIG    1       24.699 -15.409   3.507  0.00  0.00    +0.086 A 
ATOM     12  C   LIG    1       23.759 -16.385   3.856  0.00  0.00    +0.031 A 
ATOM     13  C   LIG    1       24.128 -17.731   4.056  0.00  0.00    +0.046 A 
ENDROOT
BRANCH   7  14
ATOM     14  C   LIG    1       27.197 -19.537   5.216  0.00  0.00    +0.036 A 
ATOM     15  C   LIG    1       27.260 -20.497   6.230  0.00  0.00    +0.133 A 
ATOM     16  F   LIG    1       26.260 -21.368   6.426  0.00  0.00    -0.205 F 
ATOM     17  C   LIG    1       28.376 -20.586   7.062  0.00  0.00    +0.039 A 
ATOM     18  C   LIG    1       29.454 -19.723   6.874  0.00  0.00    +0.003 A 
ATOM     19  C   LIG    1       29.416 -18.777   5.850  0.00  0.00    +0.001 A 
ATOM     20  C   LIG    1       28.294 -18.686   5.021  0.00  0.00    +0.013 A 
ENDBRANCH   7  14
BRANCH  10  21
ATOM     21  N   LIG    1       27.028 -14.754   2.973  0.00  0.00    +0.080 N 
ATOM     22  O   LIG    1       27.949 -14.526   3.769  0.00  0.00    -0.576 OA
ATOM     23  O   LIG    1       26.884 -14.189   1.880  0.00  0.00    +0.041 OA
ENDBRANCH  10  21
TORSDOF 2
ENDMDL
MODEL 2
REMARK VINA RESULT:      -1.3      3.122      5.648
REMARK  Name = *****
REMARK                            x       y       z     vdW  Elec       q    Type
REMARK                         _______ _______ _______ _____ _____    ______ ____
ROOT
ATOM      1  C   LIG    1       25.231 -20.630   7.000  0.00  0.00    +0.138 C 
ATOM      2  N   LIG    1       25.252 -20.035   5.670  0.00  0.00    -0.272 N 
ATOM      3  C   LIG    1       26.480 -20.052   4.996  0.00  0.00    +0.241 C 
ATOM      4  O   LIG    1       27.511 -20.491   5.514  0.00  0.00    -0.273 OA
ATOM      5  C   LIG    1       26.482 -19.597   3.543  0.00  0.00    +0.238 C 
ATOM      6  N   LIG    1       26.262 -18.155   3.493  0.00  0.00    -0.273 NA
ATOM      7  C   LIG    1       25.089 -17.707   3.795  0.00  0.00    +0.078 C 
ATOM      8  C   LIG    1       23.929 -18.589   4.119  0.00  0.00    +0.028 A 
ATOM      9  C   LIG    1       22.707 -18.301   3.479  0.00  0.00    +0.096 A 
ATOM     10  C   LIG    1       21.554 -19.004   3.836  0.00  0.00    +0.274 A 
ATOM     11  C   LIG    1       21.608 -19.997   4.814  0.00  0.00    +0.086 A 
ATOM     12  C   LIG    1       22.833 -20.301   5.420  0.00  0.00    +0.031 A 
ATOM     13  C   LIG    1       24.020 -19.629   5.067  0.00  0.00    +0.046 A 
ENDROOT
BRANCH   7  14
ATOM     14  C   LIG    1       24.909 -16.219   3.798  0.00  0.00    +0.036 A 
ATOM     15  C   LIG    1       25.945 -15.340   3.470  0.00  0.00    +0.133 A 
ATOM     16  F   LIG    1       27.159 -15.795   3.124  0.00  0.00    -0.205 F 
ATOM     17  C   LIG    1       25.743 -13.961   3.481  0.00  0.00    +0.039 A 
ATOM     18  C   LIG    1       24.489 -13.443   3.804  0.00  0.00    +0.003 A 
ATOM     19  C   LIG    1       23.439 -14.310   4.107  0.00  0.00    +0.001 A 
ATOM     20  C   LIG    1       23.645 -15.692   4.101  0.00  0.00    +0.013 A 
ENDBRANCH   7  14
BRANCH  10  21
ATOM     21  N   LIG    1       20.275 -18.687   3.187  0.00  0.00    +0.080 N 
ATOM     22  O   LIG    1       19.350 -19.501   3.314  0.00  0.00    -0.576 OA
ATOM     23  O   LIG    1       20.198 -17.625   2.556  0.00  0.00    +0.041 OA
ENDBRANCH  10  21
TORSDOF 2
ENDMDL
