MODEL 1
REMARK VINA RESULT:       4.9      0.000      0.000
REMARK  Name = *****
REMARK                            x       y       z     vdW  Elec       q    Type
REMARK                         _______ _______ _______ _____ _____    ______ ____
ROOT
ATOM      1  S   LIG    1       26.191 -19.937   6.977  0.00  0.00    -0.091 S 
ENDROOT
BRANCH   1   2
ATOM      2  S   LIG    1       24.868 -21.529   7.060  0.00  0.00    -0.091 S 
BRANCH   2   3
ATOM      3  C   LIG    1       23.938 -21.537   5.492  0.00  0.00    +0.100 C 
BRANCH   3   4
ATOM      4  C   LIG    1       22.627 -20.716   5.565  0.00  0.00    +0.115 C 
BRANCH   4   5
ATOM      5  N   LIG    1       22.640 -19.333   5.062  0.00  0.00    -0.315 N 
ATOM      6  H   LIG    1       22.328 -18.630   5.718  0.00  0.00    +0.149 HD
ATOM      7  C   LIG    1       22.705 -18.965   3.730  0.00  0.00    +0.214 C 
ATOM      8  O   LIG    1       22.840 -19.774   2.819  0.00  0.00    -0.276 OA
BRANCH   7   9
ATOM      9  C   LIG    1       22.561 -17.456   3.468  0.00  0.00    +0.114 C 
BRANCH   9  10
ATOM     10  C   LIG    1       22.894 -16.553   4.680  0.00  0.00    +0.113 C 
BRANCH  10  11
ATOM     11  N   LIG    1       23.449 -15.260   4.249  0.00  0.00    -0.313 N 
ATOM     12  H   LIG    1       24.009 -15.329   3.436  0.00  0.00    +0.149 HD
ATOM     13  C   LIG    1       23.346 -14.009   4.819  0.00  0.00    +0.242 C 
ATOM     14  O   LIG    1       22.650 -13.792   5.810  0.00  0.00    -0.273 OA
BRANCH  13  15
ATOM     15  C   LIG    1       24.147 -12.804   4.110  0.00  0.00    +0.208 C 
BRANCH  15  16
ATOM     16  C   LIG    1       24.198 -12.799   2.537  0.00  0.00    +0.023 C 
ATOM     17  C   LIG    1       23.883 -11.457   1.820  0.00  0.00    +0.016 C 
ATOM     18  C   LIG    1       23.130 -13.811   2.113  0.00  0.00    +0.016 C 
BRANCH  16  19
ATOM     19  C   LIG    1       25.572 -13.276   1.951  0.00  0.00    +0.165 C 
BRANCH  19  20
ATOM     20  O   LIG    1       25.728 -14.693   1.962  0.00  0.00    -0.394 OA
ATOM     21  H   LIG    1       25.969 -14.965   2.862  0.00  0.00    +0.209 HD
ENDBRANCH  19  20
ENDBRANCH  16  19
ENDBRANCH  15  16
BRANCH  15  22
ATOM     22  O   LIG    1       23.784 -11.534   4.634  0.00  0.00    -0.382 OA
ATOM     23  H   LIG    1       24.395 -10.896   4.209  0.00  0.00    +0.210 HD
ENDBRANCH  15  22
ENDBRANCH  13  15
ENDBRANCH  10  11
ENDBRANCH   9  10
ENDBRANCH   7   9
ENDBRANCH   4   5
ENDBRANCH   3   4
ENDBRANCH   2   3
ENDBRANCH   1   2
BRANCH   1  24
ATOM     24  C   LIG    1       27.701 -20.835   6.525  0.00  0.00    +0.100 C 
BRANCH  24  25
ATOM     25  C   LIG    1       28.678 -20.038   5.670  0.00  0.00    +0.115 C 
BRANCH  25  27
ATOM     26  C   LIG    1       26.714 -19.370   4.298  0.00  0.00    +0.214 C 
ATOM     27  N   LIG    1       27.865 -19.073   4.971  0.00  0.00    -0.315 N 
ATOM     28  H   LIG    1       28.247 -18.149   4.831  0.00  0.00    +0.149 HD
ATOM     29  O   LIG    1       26.338 -20.503   4.031  0.00  0.00    -0.276 OA
BRANCH  26  30
ATOM     30  C   LIG    1       26.047 -18.079   3.875  0.00  0.00    +0.114 C 
BRANCH  30  31
ATOM     31  C   LIG    1       26.944 -17.061   3.204  0.00  0.00    +0.113 C 
BRANCH  31  33
ATOM     32  C   LIG    1       27.269 -14.999   4.672  0.00  0.00    +0.242 C 
ATOM     33  N   LIG    1       27.721 -16.169   4.066  0.00  0.00    -0.313 N 
ATOM     34  H   LIG    1       28.620 -16.501   4.393  0.00  0.00    +0.149 HD
ATOM     35  O   LIG    1       26.144 -14.615   4.675  0.00  0.00    -0.273 OA
BRANCH  32  36
ATOM     36  C   LIG    1       28.347 -14.185   5.405  0.00  0.00    +0.208 C 
BRANCH  36  38
ATOM     37  C   LIG    1       29.093 -11.740   5.968  0.00  0.00    +0.016 C 
ATOM     38  C   LIG    1       28.423 -12.688   4.931  0.00  0.00    +0.023 C 
ATOM     39  C   LIG    1       26.977 -12.162   4.717  0.00  0.00    +0.016 C 
BRANCH  38  40
ATOM     40  C   LIG    1       29.221 -12.599   3.604  0.00  0.00    +0.165 C 
BRANCH  40  41
ATOM     41  O   LIG    1       29.190 -13.849   2.913  0.00  0.00    -0.394 OA
ATOM     42  H   LIG    1       28.360 -13.873   2.408  0.00  0.00    +0.209 HD
ENDBRANCH  40  41
ENDBRANCH  38  40
ENDBRANCH  36  38
BRANCH  36  43
ATOM     43  O   LIG    1       28.070 -14.281   6.809  0.00  0.00    -0.382 OA
ATOM     44  H   LIG    1       27.614 -13.461   7.063  0.00  0.00    +0.210 HD
ENDBRANCH  36  43
ENDBRANCH  32  36
ENDBRANCH  31  33
ENDBRANCH  30  31
ENDBRANCH  26  30
ENDBRANCH  25  27
ENDBRANCH  24  25
ENDBRANCH   1  24
TORSDOF 23
ENDMDL
MODEL 2
REMARK VINA RESULT:       5.9      2.032      3.063
REMARK  Name = *****
REMARK                            x       y       z     vdW  Elec       q    Type
REMARK                         _______ _______ _______ _____ _____    ______ ____
ROOT
ATOM      1  S   LIG    1       24.986 -19.859   5.879  0.00  0.00    -0.091 S 
ENDROOT
BRANCH   1   2
ATOM      2  S   LIG    1       25.986 -20.119   4.084  0.00  0.00    -0.091 S 
BRANCH   2   3
ATOM      3  C   LIG    1       24.722 -20.417   2.804  0.00  0.00    +0.100 C 
BRANCH   3   4
ATOM      4  C   LIG    1       23.756 -21.571   3.167  0.00  0.00    +0.115 C 
BRANCH   4   5
ATOM      5  N   LIG    1       22.330 -21.257   3.353  0.00  0.00    -0.315 N 
ATOM      6  H   LIG    1       21.764 -21.300   2.516  0.00  0.00    +0.149 HD
ATOM      7  C   LIG    1       21.789 -20.604   4.445  0.00  0.00    +0.214 C 
ATOM      8  O   LIG    1       22.449 -20.282   5.426  0.00  0.00    -0.276 OA
BRANCH   7   9
ATOM      9  C   LIG    1       20.291 -20.276   4.326  0.00  0.00    +0.114 C 
BRANCH   9  10
ATOM     10  C   LIG    1       19.971 -18.990   3.525  0.00  0.00    +0.113 C 
BRANCH  10  11
ATOM     11  N   LIG    1       21.169 -18.152   3.357  0.00  0.00    -0.313 N 
ATOM     12  H   LIG    1       21.491 -18.118   2.422  0.00  0.00    +0.149 HD
ATOM     13  C   LIG    1       21.917 -17.465   4.290  0.00  0.00    +0.242 C 
ATOM     14  O   LIG    1       21.597 -17.406   5.476  0.00  0.00    -0.273 OA
BRANCH  13  15
ATOM     15  C   LIG    1       23.228 -16.690   3.762  0.00  0.00    +0.208 C 
BRANCH  15  16
ATOM     16  C   LIG    1       23.397 -15.186   4.190  0.00  0.00    +0.023 C 
ATOM     17  C   LIG    1       24.842 -14.681   4.459  0.00  0.00    +0.016 C 
ATOM     18  C   LIG    1       22.616 -15.066   5.502  0.00  0.00    +0.016 C 
BRANCH  16  19
ATOM     19  C   LIG    1       22.780 -14.168   3.169  0.00  0.00    +0.165 C 
BRANCH  19  20
ATOM     20  O   LIG    1       23.491 -12.935   3.102  0.00  0.00    -0.394 OA
ATOM     21  H   LIG    1       24.368 -13.069   3.494  0.00  0.00    +0.209 HD
ENDBRANCH  19  20
ENDBRANCH  16  19
ENDBRANCH  15  16
BRANCH  15  22
ATOM     22  O   LIG    1       24.416 -17.440   3.972  0.00  0.00    -0.382 OA
ATOM     23  H   LIG    1       24.891 -17.415   3.114  0.00  0.00    +0.210 HD
ENDBRANCH  15  22
ENDBRANCH  13  15
ENDBRANCH  10  11
ENDBRANCH   9  10
ENDBRANCH   7   9
ENDBRANCH   4   5
ENDBRANCH   3   4
ENDBRANCH   2   3
ENDBRANCH   1   2
BRANCH   1  24
ATOM     24  C   LIG    1       25.766 -21.183   6.843  0.00  0.00    +0.100 C 
BRANCH  24  25
ATOM     25  C   LIG    1       27.286 -21.226   6.743  0.00  0.00    +0.115 C 
BRANCH  25  27
ATOM     26  C   LIG    1       28.744 -19.327   6.068  0.00  0.00    +0.214 C 
ATOM     27  N   LIG    1       27.638 -20.111   5.898  0.00  0.00    -0.315 N 
ATOM     28  H   LIG    1       26.948 -19.786   5.237  0.00  0.00    +0.149 HD
ATOM     29  O   LIG    1       29.457 -19.339   7.061  0.00  0.00    -0.276 OA
BRANCH  26  30
ATOM     30  C   LIG    1       28.876 -18.402   4.877  0.00  0.00    +0.114 C 
BRANCH  30  31
ATOM     31  C   LIG    1       27.600 -17.732   4.417  0.00  0.00    +0.113 C 
BRANCH  31  33
ATOM     32  C   LIG    1       27.851 -15.195   4.291  0.00  0.00    +0.242 C 
ATOM     33  N   LIG    1       27.719 -16.455   3.711  0.00  0.00    -0.313 N 
ATOM     34  H   LIG    1       27.886 -16.487   2.713  0.00  0.00    +0.149 HD
ATOM     35  O   LIG    1       28.007 -14.984   5.450  0.00  0.00    -0.273 OA
BRANCH  32  36
ATOM     36  C   LIG    1       27.809 -14.016   3.307  0.00  0.00    +0.208 C 
BRANCH  36  38
ATOM     37  C   LIG    1       28.783 -11.833   4.372  0.00  0.00    +0.016 C 
ATOM     38  C   LIG    1       27.504 -12.639   4.001  0.00  0.00    +0.023 C 
ATOM     39  C   LIG    1       26.749 -12.911   5.332  0.00  0.00    +0.016 C 
BRANCH  38  40
ATOM     40  C   LIG    1       26.631 -11.764   3.065  0.00  0.00    +0.165 C 
BRANCH  40  41
ATOM     41  O   LIG    1       25.915 -12.579   2.137  0.00  0.00    -0.394 OA
ATOM     42  H   LIG    1       25.376 -13.197   2.658  0.00  0.00    +0.209 HD
ENDBRANCH  40  41
ENDBRANCH  38  40
ENDBRANCH  36  38
BRANCH  36  43
ATOM     43  O   LIG    1       29.067 -13.993   2.618  0.00  0.00    -0.382 OA
ATOM     44  H   LIG    1       29.119 -14.812   2.097  0.00  0.00    +0.210 HD
ENDBRANCH  36  43
ENDBRANCH  32  36
ENDBRANCH  31  33
ENDBRANCH  30  31
ENDBRANCH  26  30
ENDBRANCH  25  27
ENDBRANCH  24  25
ENDBRANCH   1  24
TORSDOF 23
ENDMDL
MODEL 3
REMARK VINA RESULT:       6.3      1.827      3.941
REMARK  Name = *****
REMARK                            x       y       z     vdW  Elec       q    Type
REMARK                         _______ _______ _______ _____ _____    ______ ____
ROOT
ATOM      1  S   LIG    1       26.846 -21.572   7.061  0.00  0.00    -0.091 S 
ENDROOT
BRANCH   1   2
ATOM      2  S   LIG    1       25.428 -20.082   6.819  0.00  0.00    -0.091 S 
BRANCH   2   3
ATOM      3  C   LIG    1       23.792 -20.854   7.056  0.00  0.00    +0.100 C 
BRANCH   3   4
ATOM      4  C   LIG    1       23.250 -21.523   5.769  0.00  0.00    +0.115 C 
BRANCH   4   5
ATOM      5  N   LIG    1       24.104 -21.527   4.570  0.00  0.00    -0.315 N 
ATOM      6  H   LIG    1       25.070 -21.272   4.726  0.00  0.00    +0.149 HD
ATOM      7  C   LIG    1       23.652 -21.510   3.264  0.00  0.00    +0.214 C 
ATOM      8  O   LIG    1       22.464 -21.569   2.967  0.00  0.00    -0.276 OA
BRANCH   7   9
ATOM      9  C   LIG    1       24.753 -21.377   2.199  0.00  0.00    +0.114 C 
BRANCH   9  10
ATOM     10  C   LIG    1       25.587 -20.076   2.290  0.00  0.00    +0.113 C 
BRANCH  10  11
ATOM     11  N   LIG    1       24.741 -18.919   2.625  0.00  0.00    -0.313 N 
ATOM     12  H   LIG    1       24.405 -18.439   1.828  0.00  0.00    +0.149 HD
ATOM     13  C   LIG    1       24.396 -18.390   3.851  0.00  0.00    +0.242 C 
ATOM     14  O   LIG    1       24.725 -18.918   4.912  0.00  0.00    -0.273 OA
BRANCH  13  15
ATOM     15  C   LIG    1       23.493 -17.055   3.853  0.00  0.00    +0.208 C 
BRANCH  15  16
ATOM     16  C   LIG    1       22.100 -17.128   4.580  0.00  0.00    +0.023 C 
ATOM     17  C   LIG    1       20.848 -16.709   3.761  0.00  0.00    +0.016 C 
ATOM     18  C   LIG    1       22.226 -16.158   5.759  0.00  0.00    +0.016 C 
BRANCH  16  19
ATOM     19  C   LIG    1       21.767 -18.547   5.159  0.00  0.00    +0.165 C 
BRANCH  19  20
ATOM     20  O   LIG    1       21.379 -19.487   4.161  0.00  0.00    -0.394 OA
ATOM     21  H   LIG    1       20.485 -19.258   3.860  0.00  0.00    +0.209 HD
ENDBRANCH  19  20
ENDBRANCH  16  19
ENDBRANCH  15  16
BRANCH  15  22
ATOM     22  O   LIG    1       24.234 -15.906   4.239  0.00  0.00    -0.382 OA
ATOM     23  H   LIG    1       24.719 -16.172   5.048  0.00  0.00    +0.210 HD
ENDBRANCH  15  22
ENDBRANCH  13  15
ENDBRANCH  10  11
ENDBRANCH   9  10
ENDBRANCH   7   9
ENDBRANCH   4   5
ENDBRANCH   3   4
ENDBRANCH   2   3
ENDBRANCH   1   2
BRANCH   1  24
ATOM     24  C   LIG    1       28.351 -20.566   6.934  0.00  0.00    +0.100 C 
BRANCH  24  25
ATOM     25  C   LIG    1       28.941 -20.485   5.532  0.00  0.00    +0.115 C 
BRANCH  25  27
ATOM     26  C   LIG    1       28.366 -18.078   5.276  0.00  0.00    +0.214 C 
ATOM     27  N   LIG    1       28.254 -19.386   4.898  0.00  0.00    -0.315 N 
ATOM     28  H   LIG    1       27.521 -19.607   4.239  0.00  0.00    +0.149 HD
ATOM     29  O   LIG    1       28.894 -17.698   6.312  0.00  0.00    -0.276 OA
BRANCH  26  30
ATOM     30  C   LIG    1       27.662 -17.211   4.255  0.00  0.00    +0.114 C 
BRANCH  30  31
ATOM     31  C   LIG    1       28.253 -15.835   4.038  0.00  0.00    +0.113 C 
BRANCH  31  33
ATOM     32  C   LIG    1       27.663 -13.357   3.882  0.00  0.00    +0.242 C 
ATOM     33  N   LIG    1       27.326 -14.708   3.926  0.00  0.00    -0.313 N 
ATOM     34  H   LIG    1       26.362 -14.916   3.696  0.00  0.00    +0.149 HD
ATOM     35  O   LIG    1       28.769 -12.926   3.807  0.00  0.00    -0.273 OA
BRANCH  32  36
ATOM     36  C   LIG    1       26.474 -12.385   3.910  0.00  0.00    +0.208 C 
BRANCH  36  38
ATOM     37  C   LIG    1       25.391 -14.358   2.575  0.00  0.00    +0.016 C 
ATOM     38  C   LIG    1       25.168 -12.984   3.271  0.00  0.00    +0.023 C 
ATOM     39  C   LIG    1       24.661 -12.007   2.174  0.00  0.00    +0.016 C 
BRANCH  38  40
ATOM     40  C   LIG    1       24.084 -13.163   4.365  0.00  0.00    +0.165 C 
BRANCH  40  41
ATOM     41  O   LIG    1       24.075 -12.043   5.252  0.00  0.00    -0.394 OA
ATOM     42  H   LIG    1       24.812 -11.467   4.990  0.00  0.00    +0.209 HD
ENDBRANCH  40  41
ENDBRANCH  38  40
ENDBRANCH  36  38
BRANCH  36  43
ATOM     43  O   LIG    1       26.265 -12.008   5.279  0.00  0.00    -0.382 OA
ATOM     44  H   LIG    1       25.842 -11.133   5.269  0.00  0.00    +0.210 HD
ENDBRANCH  36  43
ENDBRANCH  32  36
ENDBRANCH  31  33
ENDBRANCH  30  31
ENDBRANCH  26  30
ENDBRANCH  25  27
ENDBRANCH  24  25
ENDBRANCH   1  24
TORSDOF 23
ENDMDL
MODEL 4
REMARK VINA RESULT:       6.7      2.018      5.149
REMARK  Name = *****
REMARK                            x       y       z     vdW  Elec       q    Type
REMARK                         _______ _______ _______ _____ _____    ______ ____
ROOT
ATOM      1  S   LIG    1       27.162 -20.639   7.061  0.00  0.00    -0.091 S 
ENDROOT
BRANCH   1   2
ATOM      2  S   LIG    1       28.930 -20.947   6.028  0.00  0.00    -0.091 S 
BRANCH   2   3
ATOM      3  C   LIG    1       29.423 -19.342   5.316  0.00  0.00    +0.100 C 
BRANCH   3   4
ATOM      4  C   LIG    1       28.379 -18.226   5.567  0.00  0.00    +0.115 C 
BRANCH   4   5
ATOM      5  N   LIG    1       27.798 -17.538   4.403  0.00  0.00    -0.315 N 
ATOM      6  H   LIG    1       27.755 -18.084   3.553  0.00  0.00    +0.149 HD
ATOM      7  C   LIG    1       27.634 -16.171   4.280  0.00  0.00    +0.214 C 
ATOM      8  O   LIG    1       27.892 -15.382   5.183  0.00  0.00    -0.276 OA
BRANCH   7   9
ATOM      9  C   LIG    1       27.132 -15.700   2.904  0.00  0.00    +0.114 C 
BRANCH   9  10
ATOM     10  C   LIG    1       27.433 -14.217   2.578  0.00  0.00    +0.113 C 
BRANCH  10  11
ATOM     11  N   LIG    1       26.526 -13.313   3.305  0.00  0.00    -0.313 N 
ATOM     12  H   LIG    1       25.720 -13.071   2.786  0.00  0.00    +0.149 HD
ATOM     13  C   LIG    1       26.653 -12.732   4.550  0.00  0.00    +0.242 C 
ATOM     14  O   LIG    1       27.594 -12.984   5.301  0.00  0.00    -0.273 OA
BRANCH  13  15
ATOM     15  C   LIG    1       25.485 -11.724   5.018  0.00  0.00    +0.208 C 
BRANCH  15  16
ATOM     16  C   LIG    1       24.024 -12.038   4.528  0.00  0.00    +0.023 C 
ATOM     17  C   LIG    1       22.853 -11.455   5.368  0.00  0.00    +0.016 C 
ATOM     18  C   LIG    1       23.916 -13.564   4.583  0.00  0.00    +0.016 C 
BRANCH  16  19
ATOM     19  C   LIG    1       23.746 -11.589   3.052  0.00  0.00    +0.165 C 
BRANCH  19  20
ATOM     20  O   LIG    1       24.788 -11.946   2.148  0.00  0.00    -0.394 OA
ATOM     21  H   LIG    1       24.939 -11.199   1.548  0.00  0.00    +0.209 HD
ENDBRANCH  19  20
ENDBRANCH  16  19
ENDBRANCH  15  16
BRANCH  15  22
ATOM     22  O   LIG    1       25.534 -11.457   6.412  0.00  0.00    -0.382 OA
ATOM     23  H   LIG    1       26.087 -10.652   6.501  0.00  0.00    +0.210 HD
ENDBRANCH  15  22
ENDBRANCH  13  15
ENDBRANCH  10  11
ENDBRANCH   9  10
ENDBRANCH   7   9
ENDBRANCH   4   5
ENDBRANCH   3   4
ENDBRANCH   2   3
ENDBRANCH   1   2
BRANCH   1  24
ATOM     24  C   LIG    1       26.057 -20.316   5.659  0.00  0.00    +0.100 C 
BRANCH  24  25
ATOM     25  C   LIG    1       25.488 -21.568   5.002  0.00  0.00    +0.115 C 
BRANCH  25  27
ATOM     26  C   LIG    1       23.152 -21.510   4.148  0.00  0.00    +0.214 C 
ATOM     27  N   LIG    1       24.059 -21.463   5.169  0.00  0.00    -0.315 N 
ATOM     28  H   LIG    1       23.711 -21.178   6.072  0.00  0.00    +0.149 HD
ATOM     29  O   LIG    1       23.440 -21.441   2.961  0.00  0.00    -0.276 OA
BRANCH  26  30
ATOM     30  C   LIG    1       21.758 -21.571   4.733  0.00  0.00    +0.114 C 
BRANCH  30  31
ATOM     31  C   LIG    1       20.863 -20.389   4.432  0.00  0.00    +0.113 C 
BRANCH  31  33
ATOM     32  C   LIG    1       22.160 -18.483   5.528  0.00  0.00    +0.242 C 
ATOM     33  N   LIG    1       21.466 -19.055   4.464  0.00  0.00    -0.313 N 
ATOM     34  H   LIG    1       21.536 -18.552   3.587  0.00  0.00    +0.149 HD
ATOM     35  O   LIG    1       22.470 -19.045   6.529  0.00  0.00    -0.273 OA
BRANCH  32  36
ATOM     36  C   LIG    1       22.557 -17.012   5.333  0.00  0.00    +0.208 C 
BRANCH  36  38
ATOM     37  C   LIG    1       23.897 -15.428   3.737  0.00  0.00    +0.016 C 
ATOM     38  C   LIG    1       22.967 -16.671   3.854  0.00  0.00    +0.023 C 
ATOM     39  C   LIG    1       21.681 -16.341   3.047  0.00  0.00    +0.016 C 
BRANCH  38  40
ATOM     40  C   LIG    1       23.695 -17.885   3.219  0.00  0.00    +0.165 C 
BRANCH  40  41
ATOM     41  O   LIG    1       25.110 -17.751   3.356  0.00  0.00    -0.394 OA
ATOM     42  H   LIG    1       25.412 -18.489   3.912  0.00  0.00    +0.209 HD
ENDBRANCH  40  41
ENDBRANCH  38  40
ENDBRANCH  36  38
BRANCH  36  43
ATOM     43  O   LIG    1       21.451 -16.211   5.773  0.00  0.00    -0.382 OA
ATOM     44  H   LIG    1       20.983 -15.915   4.975  0.00  0.00    +0.210 HD
ENDBRANCH  36  43
ENDBRANCH  32  36
ENDBRANCH  31  33
ENDBRANCH  30  31
ENDBRANCH  26  30
ENDBRANCH  25  27
ENDBRANCH  24  25
ENDBRANCH   1  24
TORSDOF 23
ENDMDL
MODEL 5
REMARK VINA RESULT:       7.0      1.755      2.871
REMARK  Name = *****
REMARK                            x       y       z     vdW  Elec       q    Type
REMARK                         _______ _______ _______ _____ _____    ______ ____
ROOT
ATOM      1  S   LIG    1       25.715 -21.254   6.344  0.00  0.00    -0.091 S 
ENDROOT
BRANCH   1   2
ATOM      2  S   LIG    1       23.814 -20.849   7.060  0.00  0.00    -0.091 S 
BRANCH   2   3
ATOM      3  C   LIG    1       22.629 -21.568   5.874  0.00  0.00    +0.100 C 
BRANCH   3   4
ATOM      4  C   LIG    1       22.838 -21.055   4.428  0.00  0.00    +0.115 C 
BRANCH   4   5
ATOM      5  N   LIG    1       21.943 -20.001   3.924  0.00  0.00    -0.315 N 
ATOM      6  H   LIG    1       22.365 -19.089   3.817  0.00  0.00    +0.149 HD
ATOM      7  C   LIG    1       20.561 -20.060   3.915  0.00  0.00    +0.214 C 
ATOM      8  O   LIG    1       19.932 -21.052   4.263  0.00  0.00    -0.276 OA
BRANCH   7   9
ATOM      9  C   LIG    1       19.861 -18.766   3.464  0.00  0.00    +0.114 C 
BRANCH   9  10
ATOM     10  C   LIG    1       20.756 -17.793   2.658  0.00  0.00    +0.113 C 
BRANCH  10  11
ATOM     11  N   LIG    1       21.365 -16.777   3.532  0.00  0.00    -0.313 N 
ATOM     12  H   LIG    1       20.870 -15.921   3.535  0.00  0.00    +0.149 HD
ATOM     13  C   LIG    1       22.517 -16.824   4.289  0.00  0.00    +0.242 C 
ATOM     14  O   LIG    1       23.196 -17.844   4.390  0.00  0.00    -0.273 OA
BRANCH  13  15
ATOM     15  C   LIG    1       22.933 -15.487   5.086  0.00  0.00    +0.208 C 
BRANCH  15  16
ATOM     16  C   LIG    1       23.490 -14.286   4.237  0.00  0.00    +0.023 C 
ATOM     17  C   LIG    1       22.630 -13.807   3.034  0.00  0.00    +0.016 C 
ATOM     18  C   LIG    1       24.824 -14.791   3.678  0.00  0.00    +0.016 C 
BRANCH  16  19
ATOM     19  C   LIG    1       23.780 -12.998   5.084  0.00  0.00    +0.165 C 
BRANCH  19  20
ATOM     20  O   LIG    1       23.689 -11.794   4.328  0.00  0.00    -0.394 OA
ATOM     21  H   LIG    1       22.866 -11.343   4.573  0.00  0.00    +0.209 HD
ENDBRANCH  19  20
ENDBRANCH  16  19
ENDBRANCH  15  16
BRANCH  15  22
ATOM     22  O   LIG    1       21.929 -15.072   6.001  0.00  0.00    -0.382 OA
ATOM     23  H   LIG    1       22.045 -15.644   6.788  0.00  0.00    +0.210 HD
ENDBRANCH  15  22
ENDBRANCH  13  15
ENDBRANCH  10  11
ENDBRANCH   9  10
ENDBRANCH   7   9
ENDBRANCH   4   5
ENDBRANCH   3   4
ENDBRANCH   2   3
ENDBRANCH   1   2
BRANCH   1  24
ATOM     24  C   LIG    1       25.375 -21.194   4.563  0.00  0.00    +0.100 C 
BRANCH  24  25
ATOM     25  C   LIG    1       26.438 -20.476   3.740  0.00  0.00    +0.115 C 
BRANCH  25  27
ATOM     26  C   LIG    1       28.071 -19.526   5.358  0.00  0.00    +0.214 C 
ATOM     27  N   LIG    1       26.937 -19.432   4.601  0.00  0.00    -0.315 N 
ATOM     28  H   LIG    1       26.333 -18.644   4.784  0.00  0.00    +0.149 HD
ATOM     29  O   LIG    1       28.687 -20.563   5.559  0.00  0.00    -0.276 OA
BRANCH  26  30
ATOM     30  C   LIG    1       28.371 -18.170   5.961  0.00  0.00    +0.114 C 
BRANCH  30  31
ATOM     31  C   LIG    1       29.070 -17.184   5.051  0.00  0.00    +0.113 C 
BRANCH  31  33
ATOM     32  C   LIG    1       27.283 -16.035   3.638  0.00  0.00    +0.242 C 
ATOM     33  N   LIG    1       28.303 -16.027   4.586  0.00  0.00    -0.313 N 
ATOM     34  H   LIG    1       28.398 -15.163   5.107  0.00  0.00    +0.149 HD
ATOM     35  O   LIG    1       26.801 -17.007   3.153  0.00  0.00    -0.273 OA
BRANCH  32  36
ATOM     36  C   LIG    1       26.753 -14.649   3.238  0.00  0.00    +0.208 C 
BRANCH  36  38
ATOM     37  C   LIG    1       27.338 -12.098   3.251  0.00  0.00    +0.016 C 
ATOM     38  C   LIG    1       27.485 -13.468   3.974  0.00  0.00    +0.023 C 
ATOM     39  C   LIG    1       29.005 -13.784   4.025  0.00  0.00    +0.016 C 
BRANCH  38  40
ATOM     40  C   LIG    1       26.925 -13.322   5.413  0.00  0.00    +0.165 C 
BRANCH  40  41
ATOM     41  O   LIG    1       27.987 -13.294   6.366  0.00  0.00    -0.394 OA
ATOM     42  H   LIG    1       28.510 -12.495   6.187  0.00  0.00    +0.209 HD
ENDBRANCH  40  41
ENDBRANCH  38  40
ENDBRANCH  36  38
BRANCH  36  43
ATOM     43  O   LIG    1       26.878 -14.541   1.813  0.00  0.00    -0.382 OA
ATOM     44  H   LIG    1       27.527 -15.209   1.535  0.00  0.00    +0.210 HD
ENDBRANCH  36  43
ENDBRANCH  32  36
ENDBRANCH  31  33
ENDBRANCH  30  31
ENDBRANCH  26  30
ENDBRANCH  25  27
ENDBRANCH  24  25
ENDBRANCH   1  24
TORSDOF 23
ENDMDL
