MODEL 1
REMARK VINA RESULT:      -4.0      0.000      0.000
REMARK  Name = *****
REMARK                            x       y       z     vdW  Elec       q    Type
REMARK                         _______ _______ _______ _____ _____    ______ ____
ROOT
ATOM      1  C   LIG    1       26.096 -14.412   3.424  0.00  0.00    +0.034 A 
ATOM      2  C   LIG    1       25.508 -15.647   3.150  0.00  0.00    +0.027 A 
ATOM      3  C   LIG    1       26.192 -16.839   3.415  0.00  0.00    +0.047 A 
ATOM      4  C   LIG    1       27.477 -16.818   3.950  0.00  0.00    +0.121 A 
ATOM      5  C   LIG    1       28.041 -15.582   4.284  0.00  0.00    +0.047 A 
ATOM      6  C   LIG    1       27.358 -14.387   4.019  0.00  0.00    +0.027 A 
ENDROOT
BRANCH   1   9
ATOM      7  C   LIG    1       23.753 -11.471   3.119  0.00  0.00    +0.109 C 
ATOM      8  C   LIG    1       24.290 -12.722   3.754  0.00  0.00    +0.214 C 
ATOM      9  N   LIG    1       25.355 -13.275   3.059  0.00  0.00    -0.286 N 
ATOM     10  H   LIG    1       25.695 -12.733   2.297  0.00  0.00    +0.155 HD
ATOM     11  O   LIG    1       23.839 -13.116   4.814  0.00  0.00    -0.276 OA
ENDBRANCH   1   9
BRANCH   4  12
ATOM     12  O   LIG    1       28.277 -17.915   4.151  0.00  0.00    -0.489 OA
BRANCH  12  13
ATOM     13  C   LIG    1       28.643 -18.218   5.509  0.00  0.00    +0.261 C 
BRANCH  13  14
ATOM     14  C   LIG    1       28.466 -19.718   5.799  0.00  0.00    +0.166 C 
BRANCH  14  15
ATOM     15  O   LIG    1       29.142 -20.046   7.026  0.00  0.00    -0.387 OA
ATOM     16  H   LIG    1       28.595 -20.724   7.469  0.00  0.00    +0.210 HD
ENDBRANCH  14  15
BRANCH  14  17
ATOM     17  C   LIG    1       26.984 -20.100   5.903  0.00  0.00    +0.115 C 
BRANCH  17  18
ATOM     18  N   LIG    1       26.382 -20.360   4.588  0.00  0.00    -0.311 NA
ATOM     19  H   LIG    1       26.901 -21.111   4.127  0.00  0.00    +0.122 HD
BRANCH  18  20
ATOM     20  C   LIG    1       24.950 -20.669   4.677  0.00  0.00    +0.048 C 
ATOM     21  C   LIG    1       24.062 -19.686   3.907  0.00  0.00    +0.024 C 
ATOM     22  C   LIG    1       24.526 -20.691   6.148  0.00  0.00    +0.024 C 
ENDBRANCH  18  20
ENDBRANCH  17  18
ENDBRANCH  14  17
ENDBRANCH  13  14
ENDBRANCH  12  13
ENDBRANCH   4  12
TORSDOF 8
ENDMDL
MODEL 2
REMARK VINA RESULT:      -4.0      2.478      3.729
REMARK  Name = *****
REMARK                            x       y       z     vdW  Elec       q    Type
REMARK                         _______ _______ _______ _____ _____    ______ ____
ROOT
ATOM      1  C   LIG    1       23.708 -15.833   4.062  0.00  0.00    +0.034 A 
ATOM      2  C   LIG    1       22.611 -16.599   4.458  0.00  0.00    +0.027 A 
ATOM      3  C   LIG    1       22.660 -17.997   4.409  0.00  0.00    +0.047 A 
ATOM      4  C   LIG    1       23.801 -18.653   3.956  0.00  0.00    +0.121 A 
ATOM      5  C   LIG    1       24.923 -17.888   3.620  0.00  0.00    +0.047 A 
ATOM      6  C   LIG    1       24.877 -16.487   3.668  0.00  0.00    +0.027 A 
ENDROOT
BRANCH   1   9
ATOM      7  C   LIG    1       23.917 -12.079   3.752  0.00  0.00    +0.109 C 
ATOM      8  C   LIG    1       24.436 -13.484   3.638  0.00  0.00    +0.214 C 
ATOM      9  N   LIG    1       23.535 -14.439   4.084  0.00  0.00    -0.286 N 
ATOM     10  H   LIG    1       22.632 -14.095   4.324  0.00  0.00    +0.155 HD
ATOM     11  O   LIG    1       25.520 -13.700   3.126  0.00  0.00    -0.276 OA
ENDBRANCH   1   9
BRANCH   4  12
ATOM     12  O   LIG    1       23.923 -20.007   3.769  0.00  0.00    -0.489 OA
BRANCH  12  13
ATOM     13  C   LIG    1       23.177 -20.861   4.655  0.00  0.00    +0.261 C 
BRANCH  13  14
ATOM     14  C   LIG    1       23.785 -20.846   6.067  0.00  0.00    +0.166 C 
BRANCH  14  15
ATOM     15  O   LIG    1       22.884 -21.499   6.978  0.00  0.00    -0.387 OA
ATOM     16  H   LIG    1       22.056 -20.981   6.965  0.00  0.00    +0.210 HD
ENDBRANCH  14  15
BRANCH  14  17
ATOM     17  C   LIG    1       25.151 -21.543   6.098  0.00  0.00    +0.115 C 
BRANCH  17  18
ATOM     18  N   LIG    1       26.191 -20.763   5.410  0.00  0.00    -0.311 NA
ATOM     19  H   LIG    1       25.750 -19.977   4.925  0.00  0.00    +0.122 HD
BRANCH  18  20
ATOM     20  C   LIG    1       27.248 -20.311   6.321  0.00  0.00    +0.048 C 
ATOM     21  C   LIG    1       28.378 -19.550   5.619  0.00  0.00    +0.024 C 
ATOM     22  C   LIG    1       27.832 -21.516   7.061  0.00  0.00    +0.024 C 
ENDBRANCH  18  20
ENDBRANCH  17  18
ENDBRANCH  14  17
ENDBRANCH  13  14
ENDBRANCH  12  13
ENDBRANCH   4  12
TORSDOF 8
ENDMDL
MODEL 3
REMARK VINA RESULT:      -3.9      2.748      4.157
REMARK  Name = *****
REMARK                            x       y       z     vdW  Elec       q    Type
REMARK                         _______ _______ _______ _____ _____    ______ ____
ROOT
ATOM      1  C   LIG    1       25.511 -15.177   3.653  0.00  0.00    +0.034 A 
ATOM      2  C   LIG    1       24.331 -14.643   4.171  0.00  0.00    +0.027 A 
ATOM      3  C   LIG    1       23.224 -15.463   4.419  0.00  0.00    +0.047 A 
ATOM      4  C   LIG    1       23.274 -16.828   4.147  0.00  0.00    +0.121 A 
ATOM      5  C   LIG    1       24.479 -17.373   3.689  0.00  0.00    +0.047 A 
ATOM      6  C   LIG    1       25.589 -16.554   3.440  0.00  0.00    +0.027 A 
ENDROOT
BRANCH   1   9
ATOM      7  C   LIG    1       28.387 -12.734   3.671  0.00  0.00    +0.109 C 
ATOM      8  C   LIG    1       27.342 -13.610   4.303  0.00  0.00    +0.214 C 
ATOM      9  N   LIG    1       26.540 -14.259   3.376  0.00  0.00    -0.286 N 
ATOM     10  H   LIG    1       26.812 -14.152   2.425  0.00  0.00    +0.155 HD
ATOM     11  O   LIG    1       27.306 -13.750   5.512  0.00  0.00    -0.276 OA
ENDBRANCH   1   9
BRANCH   4  12
ATOM     12  O   LIG    1       22.223 -17.703   4.252  0.00  0.00    -0.489 OA
BRANCH  12  13
ATOM     13  C   LIG    1       22.497 -19.090   3.990  0.00  0.00    +0.261 C 
BRANCH  13  14
ATOM     14  C   LIG    1       22.181 -19.952   5.224  0.00  0.00    +0.166 C 
BRANCH  14  15
ATOM     15  O   LIG    1       21.789 -21.268   4.795  0.00  0.00    -0.387 OA
ATOM     16  H   LIG    1       22.296 -21.455   3.981  0.00  0.00    +0.210 HD
ENDBRANCH  14  15
BRANCH  14  17
ATOM     17  C   LIG    1       23.388 -20.049   6.165  0.00  0.00    +0.115 C 
BRANCH  17  18
ATOM     18  N   LIG    1       24.068 -21.349   6.067  0.00  0.00    -0.311 NA
ATOM     19  H   LIG    1       23.642 -21.891   5.311  0.00  0.00    +0.122 HD
BRANCH  18  20
ATOM     20  C   LIG    1       25.517 -21.212   5.883  0.00  0.00    +0.048 C 
ATOM     21  C   LIG    1       26.223 -20.533   7.061  0.00  0.00    +0.024 C 
ATOM     22  C   LIG    1       25.794 -20.422   4.602  0.00  0.00    +0.024 C 
ENDBRANCH  18  20
ENDBRANCH  17  18
ENDBRANCH  14  17
ENDBRANCH  13  14
ENDBRANCH  12  13
ENDBRANCH   4  12
TORSDOF 8
ENDMDL
MODEL 4
REMARK VINA RESULT:      -3.7      2.217      6.252
REMARK  Name = *****
REMARK                            x       y       z     vdW  Elec       q    Type
REMARK                         _______ _______ _______ _____ _____    ______ ____
ROOT
ATOM      1  C   LIG    1       25.096 -19.512   4.435  0.00  0.00    +0.034 A 
ATOM      2  C   LIG    1       24.589 -18.478   3.648  0.00  0.00    +0.027 A 
ATOM      3  C   LIG    1       25.406 -17.410   3.258  0.00  0.00    +0.047 A 
ATOM      4  C   LIG    1       26.739 -17.353   3.655  0.00  0.00    +0.121 A 
ATOM      5  C   LIG    1       27.264 -18.422   4.390  0.00  0.00    +0.047 A 
ATOM      6  C   LIG    1       26.448 -19.493   4.781  0.00  0.00    +0.027 A 
ENDROOT
BRANCH   1   9
ATOM      7  C   LIG    1       22.163 -21.571   5.617  0.00  0.00    +0.109 C 
ATOM      8  C   LIG    1       22.911 -20.295   5.354  0.00  0.00    +0.214 C 
ATOM      9  N   LIG    1       24.178 -20.502   4.828  0.00  0.00    -0.286 N 
ATOM     10  H   LIG    1       24.396 -21.445   4.596  0.00  0.00    +0.155 HD
ATOM     11  O   LIG    1       22.373 -19.218   5.536  0.00  0.00    -0.276 OA
ENDBRANCH   1   9
BRANCH   4  12
ATOM     12  O   LIG    1       27.598 -16.309   3.421  0.00  0.00    -0.489 OA
BRANCH  12  13
ATOM     13  C   LIG    1       27.557 -15.207   4.346  0.00  0.00    +0.261 C 
BRANCH  13  14
ATOM     14  C   LIG    1       27.479 -13.867   3.594  0.00  0.00    +0.166 C 
BRANCH  14  15
ATOM     15  O   LIG    1       28.787 -13.522   3.106  0.00  0.00    -0.387 OA
ATOM     16  H   LIG    1       29.427 -13.994   3.673  0.00  0.00    +0.210 HD
ENDBRANCH  14  15
BRANCH  14  17
ATOM     17  C   LIG    1       26.488 -13.936   2.425  0.00  0.00    +0.115 C 
BRANCH  17  18
ATOM     18  N   LIG    1       25.435 -12.915   2.526  0.00  0.00    -0.311 NA
ATOM     19  H   LIG    1       24.813 -12.997   1.717  0.00  0.00    +0.122 HD
BRANCH  18  20
ATOM     20  C   LIG    1       24.692 -12.999   3.788  0.00  0.00    +0.048 C 
ATOM     21  C   LIG    1       23.846 -14.270   3.919  0.00  0.00    +0.024 C 
ATOM     22  C   LIG    1       23.788 -11.771   3.929  0.00  0.00    +0.024 C 
ENDBRANCH  18  20
ENDBRANCH  17  18
ENDBRANCH  14  17
ENDBRANCH  13  14
ENDBRANCH  12  13
ENDBRANCH   4  12
TORSDOF 8
ENDMDL
MODEL 5
REMARK VINA RESULT:      -3.7      2.706      3.893
REMARK  Name = *****
REMARK                            x       y       z     vdW  Elec       q    Type
REMARK                         _______ _______ _______ _____ _____    ______ ____
ROOT
ATOM      1  C   LIG    1       27.220 -16.538   3.880  0.00  0.00    +0.034 A 
ATOM      2  C   LIG    1       27.905 -17.563   4.533  0.00  0.00    +0.027 A 
ATOM      3  C   LIG    1       27.368 -18.854   4.595  0.00  0.00    +0.047 A 
ATOM      4  C   LIG    1       26.136 -19.141   4.014  0.00  0.00    +0.121 A 
ATOM      5  C   LIG    1       25.480 -18.129   3.305  0.00  0.00    +0.047 A 
ATOM      6  C   LIG    1       26.016 -16.834   3.241  0.00  0.00    +0.027 A 
ENDROOT
BRANCH   1   9
ATOM      7  C   LIG    1       28.353 -12.968   3.418  0.00  0.00    +0.109 C 
ATOM      8  C   LIG    1       27.611 -14.220   3.042  0.00  0.00    +0.214 C 
ATOM      9  N   LIG    1       27.811 -15.263   3.933  0.00  0.00    -0.286 N 
ATOM     10  H   LIG    1       28.327 -15.033   4.752  0.00  0.00    +0.155 HD
ATOM     11  O   LIG    1       26.865 -14.227   2.079  0.00  0.00    -0.276 OA
ENDBRANCH   1   9
BRANCH   4  12
ATOM     12  O   LIG    1       25.469 -20.337   4.103  0.00  0.00    -0.489 OA
BRANCH  12  13
ATOM     13  C   LIG    1       25.417 -20.963   5.398  0.00  0.00    +0.261 C 
BRANCH  13  14
ATOM     14  C   LIG    1       23.983 -21.409   5.730  0.00  0.00    +0.166 C 
BRANCH  14  15
ATOM     15  O   LIG    1       23.650 -20.981   7.062  0.00  0.00    -0.387 OA
ATOM     16  H   LIG    1       23.761 -21.762   7.638  0.00  0.00    +0.210 HD
ENDBRANCH  14  15
BRANCH  14  17
ATOM     17  C   LIG    1       22.970 -20.835   4.731  0.00  0.00    +0.115 C 
BRANCH  17  18
ATOM     18  N   LIG    1       22.309 -19.625   5.241  0.00  0.00    -0.311 NA
ATOM     19  H   LIG    1       22.834 -19.273   6.045  0.00  0.00    +0.122 HD
BRANCH  18  20
ATOM     20  C   LIG    1       22.150 -18.595   4.208  0.00  0.00    +0.048 C 
ATOM     21  C   LIG    1       22.321 -17.167   4.736  0.00  0.00    +0.024 C 
ATOM     22  C   LIG    1       20.771 -18.734   3.559  0.00  0.00    +0.024 C 
ENDBRANCH  18  20
ENDBRANCH  17  18
ENDBRANCH  14  17
ENDBRANCH  13  14
ENDBRANCH  12  13
ENDBRANCH   4  12
TORSDOF 8
ENDMDL
MODEL 6
REMARK VINA RESULT:      -3.6      0.808      1.619
REMARK  Name = *****
REMARK                            x       y       z     vdW  Elec       q    Type
REMARK                         _______ _______ _______ _____ _____    ______ ____
ROOT
ATOM      1  C   LIG    1       26.116 -14.634   3.222  0.00  0.00    +0.034 A 
ATOM      2  C   LIG    1       27.327 -14.393   3.871  0.00  0.00    +0.027 A 
ATOM      3  C   LIG    1       28.104 -15.454   4.350  0.00  0.00    +0.047 A 
ATOM      4  C   LIG    1       27.682 -16.772   4.195  0.00  0.00    +0.121 A 
ATOM      5  C   LIG    1       26.500 -17.016   3.488  0.00  0.00    +0.047 A 
ATOM      6  C   LIG    1       25.719 -15.955   3.007  0.00  0.00    +0.027 A 
ENDROOT
BRANCH   1   9
ATOM      7  C   LIG    1       23.855 -11.629   2.913  0.00  0.00    +0.109 C 
ATOM      8  C   LIG    1       24.414 -12.846   3.593  0.00  0.00    +0.214 C 
ATOM      9  N   LIG    1       25.378 -13.499   2.840  0.00  0.00    -0.286 N 
ATOM     10  H   LIG    1       25.653 -13.036   2.003  0.00  0.00    +0.155 HD
ATOM     11  O   LIG    1       24.066 -13.133   4.724  0.00  0.00    -0.276 OA
ENDBRANCH   1   9
BRANCH   4  12
ATOM     12  O   LIG    1       28.308 -17.877   4.713  0.00  0.00    -0.489 OA
BRANCH  12  13
ATOM     13  C   LIG    1       27.516 -19.069   4.862  0.00  0.00    +0.261 C 
BRANCH  13  14
ATOM     14  C   LIG    1       28.094 -19.974   5.964  0.00  0.00    +0.166 C 
BRANCH  14  15
ATOM     15  O   LIG    1       29.048 -19.227   6.738  0.00  0.00    -0.387 OA
ATOM     16  H   LIG    1       28.925 -18.288   6.497  0.00  0.00    +0.210 HD
ENDBRANCH  14  15
BRANCH  14  17
ATOM     17  C   LIG    1       26.991 -20.516   6.882  0.00  0.00    +0.115 C 
BRANCH  17  18
ATOM     18  N   LIG    1       26.056 -21.398   6.168  0.00  0.00    -0.311 NA
ATOM     19  H   LIG    1       26.046 -22.313   6.626  0.00  0.00    +0.122 HD
BRANCH  18  20
ATOM     20  C   LIG    1       24.708 -20.828   6.074  0.00  0.00    +0.048 C 
ATOM     21  C   LIG    1       23.711 -21.444   7.061  0.00  0.00    +0.024 C 
ATOM     22  C   LIG    1       24.181 -21.000   4.647  0.00  0.00    +0.024 C 
ENDBRANCH  18  20
ENDBRANCH  17  18
ENDBRANCH  14  17
ENDBRANCH  13  14
ENDBRANCH  12  13
ENDBRANCH   4  12
TORSDOF 8
ENDMDL
MODEL 7
REMARK VINA RESULT:      -3.2      2.753      5.277
REMARK  Name = *****
REMARK                            x       y       z     vdW  Elec       q    Type
REMARK                         _______ _______ _______ _____ _____    ______ ____
ROOT
ATOM      1  C   LIG    1       22.853 -20.308   4.913  0.00  0.00    +0.034 A 
ATOM      2  C   LIG    1       23.915 -20.523   4.034  0.00  0.00    +0.027 A 
ATOM      3  C   LIG    1       25.185 -20.862   4.517  0.00  0.00    +0.047 A 
ATOM      4  C   LIG    1       25.416 -20.984   5.885  0.00  0.00    +0.121 A 
ATOM      5  C   LIG    1       24.336 -20.832   6.761  0.00  0.00    +0.047 A 
ATOM      6  C   LIG    1       23.064 -20.493   6.280  0.00  0.00    +0.027 A 
ENDROOT
BRANCH   1   9
ATOM      7  C   LIG    1       19.920 -18.534   3.335  0.00  0.00    +0.109 C 
ATOM      8  C   LIG    1       21.270 -18.613   3.991  0.00  0.00    +0.214 C 
ATOM      9  N   LIG    1       21.637 -19.906   4.332  0.00  0.00    -0.286 N 
ATOM     10  H   LIG    1       21.024 -20.623   4.015  0.00  0.00    +0.155 HD
ATOM     11  O   LIG    1       21.954 -17.613   4.113  0.00  0.00    -0.276 OA
ENDBRANCH   1   9
BRANCH   4  12
ATOM     12  O   LIG    1       26.636 -21.208   6.472  0.00  0.00    -0.489 OA
BRANCH  12  13
ATOM     13  C   LIG    1       27.297 -20.074   7.062  0.00  0.00    +0.261 C 
BRANCH  13  14
ATOM     14  C   LIG    1       28.544 -19.686   6.250  0.00  0.00    +0.166 C 
BRANCH  14  15
ATOM     15  O   LIG    1       29.379 -20.845   6.082  0.00  0.00    -0.387 OA
ATOM     16  H   LIG    1       29.553 -21.192   6.978  0.00  0.00    +0.210 HD
ENDBRANCH  14  15
BRANCH  14  17
ATOM     17  C   LIG    1       28.166 -19.114   4.878  0.00  0.00    +0.115 C 
BRANCH  17  18
ATOM     18  N   LIG    1       28.368 -17.660   4.805  0.00  0.00    -0.311 NA
ATOM     19  H   LIG    1       29.368 -17.468   4.697  0.00  0.00    +0.122 HD
BRANCH  18  20
ATOM     20  C   LIG    1       27.581 -17.037   3.736  0.00  0.00    +0.048 C 
ATOM     21  C   LIG    1       27.367 -15.532   3.929  0.00  0.00    +0.024 C 
ATOM     22  C   LIG    1       26.221 -17.733   3.633  0.00  0.00    +0.024 C 
ENDBRANCH  18  20
ENDBRANCH  17  18
ENDBRANCH  14  17
ENDBRANCH  13  14
ENDBRANCH  12  13
ENDBRANCH   4  12
TORSDOF 8
ENDMDL
MODEL 8
REMARK VINA RESULT:      -3.0      1.449      2.140
REMARK  Name = *****
REMARK                            x       y       z     vdW  Elec       q    Type
REMARK                         _______ _______ _______ _____ _____    ______ ____
ROOT
ATOM      1  C   LIG    1       26.104 -15.351   3.314  0.00  0.00    +0.034 A 
ATOM      2  C   LIG    1       27.392 -15.399   3.849  0.00  0.00    +0.027 A 
ATOM      3  C   LIG    1       27.921 -16.603   4.328  0.00  0.00    +0.047 A 
ATOM      4  C   LIG    1       27.172 -17.776   4.288  0.00  0.00    +0.121 A 
ATOM      5  C   LIG    1       25.906 -17.740   3.693  0.00  0.00    +0.047 A 
ATOM      6  C   LIG    1       25.374 -16.536   3.212  0.00  0.00    +0.027 A 
ENDROOT
BRANCH   1   9
ATOM      7  C   LIG    1       24.275 -12.100   2.742  0.00  0.00    +0.109 C 
ATOM      8  C   LIG    1       24.441 -13.491   3.289  0.00  0.00    +0.214 C 
ATOM      9  N   LIG    1       25.640 -14.082   2.923  0.00  0.00    -0.286 N 
ATOM     10  H   LIG    1       26.279 -13.491   2.441  0.00  0.00    +0.155 HD
ATOM     11  O   LIG    1       23.601 -13.963   4.033  0.00  0.00    -0.276 OA
ENDBRANCH   1   9
BRANCH   4  12
ATOM     12  O   LIG    1       27.548 -18.983   4.821  0.00  0.00    -0.489 OA
BRANCH  12  13
ATOM     13  C   LIG    1       26.622 -20.076   4.686  0.00  0.00    +0.261 C 
BRANCH  13  14
ATOM     14  C   LIG    1       26.398 -20.771   6.040  0.00  0.00    +0.166 C 
BRANCH  14  15
ATOM     15  O   LIG    1       27.122 -20.064   7.061  0.00  0.00    -0.387 OA
ATOM     16  H   LIG    1       27.616 -20.738   7.568  0.00  0.00    +0.210 HD
ENDBRANCH  14  15
BRANCH  14  17
ATOM     17  C   LIG    1       24.909 -20.828   6.403  0.00  0.00    +0.115 C 
BRANCH  17  18
ATOM     18  N   LIG    1       24.052 -20.984   5.218  0.00  0.00    -0.311 NA
ATOM     19  H   LIG    1       24.007 -21.975   4.969  0.00  0.00    +0.122 HD
BRANCH  18  20
ATOM     20  C   LIG    1       22.714 -20.416   5.415  0.00  0.00    +0.048 C 
ATOM     21  C   LIG    1       21.589 -21.288   4.846  0.00  0.00    +0.024 C 
ATOM     22  C   LIG    1       22.652 -19.027   4.776  0.00  0.00    +0.024 C 
ENDBRANCH  18  20
ENDBRANCH  17  18
ENDBRANCH  14  17
ENDBRANCH  13  14
ENDBRANCH  12  13
ENDBRANCH   4  12
TORSDOF 8
ENDMDL
MODEL 9
REMARK VINA RESULT:      -2.4      3.165      7.064
REMARK  Name = *****
REMARK                            x       y       z     vdW  Elec       q    Type
REMARK                         _______ _______ _______ _____ _____    ______ ____
ROOT
ATOM      1  C   LIG    1       23.010 -18.063   4.347  0.00  0.00    +0.034 A 
ATOM      2  C   LIG    1       22.063 -17.147   4.806  0.00  0.00    +0.027 A 
ATOM      3  C   LIG    1       22.306 -15.770   4.730  0.00  0.00    +0.047 A 
ATOM      4  C   LIG    1       23.500 -15.286   4.202  0.00  0.00    +0.121 A 
ATOM      5  C   LIG    1       24.421 -16.203   3.683  0.00  0.00    +0.047 A 
ATOM      6  C   LIG    1       24.180 -17.582   3.758  0.00  0.00    +0.027 A 
ENDROOT
BRANCH   1   9
ATOM      7  C   LIG    1       22.356 -21.570   5.577  0.00  0.00    +0.109 C 
ATOM      8  C   LIG    1       22.829 -20.149   5.705  0.00  0.00    +0.214 C 
ATOM      9  N   LIG    1       22.700 -19.422   4.531  0.00  0.00    -0.286 N 
ATOM     10  H   LIG    1       22.225 -19.886   3.791  0.00  0.00    +0.155 HD
ATOM     11  O   LIG    1       23.206 -19.722   6.781  0.00  0.00    -0.276 OA
ENDBRANCH   1   9
BRANCH   4  12
ATOM     12  O   LIG    1       23.885 -13.970   4.173  0.00  0.00    -0.489 OA
BRANCH  12  13
ATOM     13  C   LIG    1       23.939 -13.330   2.886  0.00  0.00    +0.261 C 
BRANCH  13  14
ATOM     14  C   LIG    1       24.785 -12.047   2.949  0.00  0.00    +0.166 C 
BRANCH  14  15
ATOM     15  O   LIG    1       24.701 -11.489   4.272  0.00  0.00    -0.387 OA
ATOM     16  H   LIG    1       23.752 -11.334   4.446  0.00  0.00    +0.210 HD
ENDBRANCH  14  15
BRANCH  14  17
ATOM     17  C   LIG    1       26.251 -12.323   2.593  0.00  0.00    +0.115 C 
BRANCH  17  18
ATOM     18  N   LIG    1       26.622 -13.729   2.809  0.00  0.00    -0.311 NA
ATOM     19  H   LIG    1       26.995 -14.112   1.936  0.00  0.00    +0.122 HD
BRANCH  18  20
ATOM     20  C   LIG    1       27.567 -13.897   3.918  0.00  0.00    +0.048 C 
ATOM     21  C   LIG    1       26.929 -13.715   5.299  0.00  0.00    +0.024 C 
ATOM     22  C   LIG    1       28.721 -12.904   3.758  0.00  0.00    +0.024 C 
ENDBRANCH  18  20
ENDBRANCH  17  18
ENDBRANCH  14  17
ENDBRANCH  13  14
ENDBRANCH  12  13
ENDBRANCH   4  12
TORSDOF 8
ENDMDL
