MODEL 1
REMARK VINA RESULT:     -10.5      0.000      0.000
REMARK  Name = *****
REMARK                            x       y       z     vdW  Elec       q    Type
REMARK                         _______ _______ _______ _____ _____    ______ ____
ROOT
ATOM      1  C   LIG    1       26.562 -21.740   7.348  0.00  0.00    -0.017 C 
ATOM      2  C   LIG    1       25.634 -22.135   6.451  0.00  0.00    -0.014 C 
ATOM      3  C   LIG    1       25.280 -23.579   6.410  0.00  0.00    -0.014 A 
ATOM      4  C   LIG    1       23.954 -24.037   6.559  0.00  0.00    -0.039 A 
ATOM      5  C   LIG    1       23.712 -25.427   6.491  0.00  0.00    +0.004 A 
ATOM      6  C   LIG    1       24.747 -26.338   6.286  0.00  0.00    +0.000 A 
ATOM      7  C   LIG    1       26.048 -25.882   6.129  0.00  0.00    +0.001 A 
ATOM      8  C   LIG    1       22.727 -23.156   6.743  0.00  0.00    +0.040 C 
ATOM      9  C   LIG    1       22.896 -21.683   7.136  0.00  0.00    +0.040 C 
ATOM     10  C   LIG    1       23.539 -20.873   6.037  0.00  0.00    -0.039 A 
ATOM     11  C   LIG    1       22.819 -19.884   5.351  0.00  0.00    +0.004 A 
ATOM     12  C   LIG    1       23.419 -19.170   4.312  0.00  0.00    +0.000 A 
ATOM     13  C   LIG    1       24.735 -19.441   3.944  0.00  0.00    +0.001 A 
ATOM     14  C   LIG    1       25.460 -20.421   4.624  0.00  0.00    +0.009 A 
ATOM     15  C   LIG    1       26.311 -24.514   6.184  0.00  0.00    +0.009 A 
ATOM     16  C   LIG    1       24.872 -21.127   5.682  0.00  0.00    -0.014 A 
ENDROOT
BRANCH   1  17
ATOM     17  C   LIG    1       26.986 -20.325   7.662  0.00  0.00    +0.043 C 
BRANCH  17  18
ATOM     18  C   LIG    1       28.441 -20.052   7.231  0.00  0.00    +0.088 C 
BRANCH  18  20
ATOM     19  C   LIG    1       30.439 -20.922   8.332  0.00  0.00    +0.104 C 
ATOM     20  N   LIG    1       29.378 -19.912   8.365  0.00  0.00    -0.308 NA
ATOM     21  C   LIG    1       29.977 -18.573   8.351  0.00  0.00    +0.104 C 
ENDBRANCH  18  20
ENDBRANCH  17  18
ENDBRANCH   1  17
TORSDOF 3
ENDMDL
MODEL 2
REMARK VINA RESULT:      -8.5      2.012      5.554
REMARK  Name = *****
REMARK                            x       y       z     vdW  Elec       q    Type
REMARK                         _______ _______ _______ _____ _____    ______ ____
ROOT
ATOM      1  C   LIG    1       26.874 -22.555   7.261  0.00  0.00    -0.017 C 
ATOM      2  C   LIG    1       26.627 -21.253   7.008  0.00  0.00    -0.014 C 
ATOM      3  C   LIG    1       27.792 -20.335   6.898  0.00  0.00    -0.014 A 
ATOM      4  C   LIG    1       28.018 -19.533   5.760  0.00  0.00    -0.039 A 
ATOM      5  C   LIG    1       29.144 -18.680   5.753  0.00  0.00    +0.004 A 
ATOM      6  C   LIG    1       30.023 -18.623   6.834  0.00  0.00    +0.000 A 
ATOM      7  C   LIG    1       29.790 -19.406   7.955  0.00  0.00    +0.001 A 
ATOM      8  C   LIG    1       27.122 -19.461   4.534  0.00  0.00    +0.040 C 
ATOM      9  C   LIG    1       26.063 -20.546   4.296  0.00  0.00    +0.040 C 
ATOM     10  C   LIG    1       24.964 -20.500   5.330  0.00  0.00    -0.039 A 
ATOM     11  C   LIG    1       23.657 -20.131   4.979  0.00  0.00    +0.004 A 
ATOM     12  C   LIG    1       22.661 -20.058   5.954  0.00  0.00    +0.000 A 
ATOM     13  C   LIG    1       22.960 -20.344   7.285  0.00  0.00    +0.001 A 
ATOM     14  C   LIG    1       24.257 -20.717   7.641  0.00  0.00    +0.009 A 
ATOM     15  C   LIG    1       28.681 -20.249   7.990  0.00  0.00    +0.009 A 
ATOM     16  C   LIG    1       25.258 -20.812   6.665  0.00  0.00    -0.014 A 
ENDROOT
BRANCH   1  17
ATOM     17  C   LIG    1       25.875 -23.688   7.287  0.00  0.00    +0.043 C 
BRANCH  17  18
ATOM     18  C   LIG    1       25.600 -24.242   5.875  0.00  0.00    +0.088 C 
BRANCH  18  20
ATOM     19  C   LIG    1       24.300 -26.306   5.995  0.00  0.00    +0.104 C 
ATOM     20  N   LIG    1       24.267 -24.865   5.732  0.00  0.00    -0.308 NA
ATOM     21  C   LIG    1       23.319 -24.222   6.647  0.00  0.00    +0.104 C 
ENDBRANCH  18  20
ENDBRANCH  17  18
ENDBRANCH   1  17
TORSDOF 3
ENDMDL
MODEL 3
REMARK VINA RESULT:      -8.3      2.247      5.509
REMARK  Name = *****
REMARK                            x       y       z     vdW  Elec       q    Type
REMARK                         _______ _______ _______ _____ _____    ______ ____
ROOT
ATOM      1  C   LIG    1       25.741 -20.062   4.576  0.00  0.00    -0.017 C 
ATOM      2  C   LIG    1       26.079 -20.866   5.606  0.00  0.00    -0.014 C 
ATOM      3  C   LIG    1       27.235 -20.463   6.450  0.00  0.00    -0.014 A 
ATOM      4  C   LIG    1       27.131 -20.304   7.848  0.00  0.00    -0.039 A 
ATOM      5  C   LIG    1       28.288 -19.934   8.569  0.00  0.00    +0.004 A 
ATOM      6  C   LIG    1       29.509 -19.722   7.930  0.00  0.00    +0.000 A 
ATOM      7  C   LIG    1       29.608 -19.889   6.556  0.00  0.00    +0.001 A 
ATOM      8  C   LIG    1       25.879 -20.546   8.677  0.00  0.00    +0.040 C 
ATOM      9  C   LIG    1       24.513 -20.646   7.987  0.00  0.00    +0.040 C 
ATOM     10  C   LIG    1       24.403 -21.881   7.126  0.00  0.00    -0.039 A 
ATOM     11  C   LIG    1       23.527 -22.923   7.465  0.00  0.00    +0.004 A 
ATOM     12  C   LIG    1       23.465 -24.074   6.678  0.00  0.00    +0.000 A 
ATOM     13  C   LIG    1       24.278 -24.199   5.553  0.00  0.00    +0.001 A 
ATOM     14  C   LIG    1       25.148 -23.164   5.206  0.00  0.00    +0.009 A 
ATOM     15  C   LIG    1       28.482 -20.264   5.824  0.00  0.00    +0.009 A 
ATOM     16  C   LIG    1       25.202 -21.997   5.979  0.00  0.00    -0.014 A 
ENDROOT
BRANCH   1  17
ATOM     17  C   LIG    1       24.540 -20.191   3.669  0.00  0.00    +0.043 C 
BRANCH  17  18
ATOM     18  C   LIG    1       23.799 -18.849   3.503  0.00  0.00    +0.088 C 
BRANCH  18  20
ATOM     19  C   LIG    1       22.231 -19.931   5.030  0.00  0.00    +0.104 C 
ATOM     20  N   LIG    1       22.427 -18.858   4.051  0.00  0.00    -0.308 NA
ATOM     21  C   LIG    1       22.134 -17.565   4.677  0.00  0.00    +0.104 C 
ENDBRANCH  18  20
ENDBRANCH  17  18
ENDBRANCH   1  17
TORSDOF 3
ENDMDL
MODEL 4
REMARK VINA RESULT:      -7.6      2.154      5.857
REMARK  Name = *****
REMARK                            x       y       z     vdW  Elec       q    Type
REMARK                         _______ _______ _______ _____ _____    ______ ____
ROOT
ATOM      1  C   LIG    1       24.561 -20.336   6.210  0.00  0.00    -0.017 C 
ATOM      2  C   LIG    1       25.652 -21.127   6.139  0.00  0.00    -0.014 C 
ATOM      3  C   LIG    1       26.987 -20.478   6.232  0.00  0.00    -0.014 A 
ATOM      4  C   LIG    1       27.946 -20.856   7.195  0.00  0.00    -0.039 A 
ATOM      5  C   LIG    1       29.193 -20.192   7.196  0.00  0.00    +0.004 A 
ATOM      6  C   LIG    1       29.483 -19.183   6.279  0.00  0.00    +0.000 A 
ATOM      7  C   LIG    1       28.540 -18.822   5.328  0.00  0.00    +0.001 A 
ATOM      8  C   LIG    1       27.782 -21.966   8.222  0.00  0.00    +0.040 C 
ATOM      9  C   LIG    1       26.387 -22.535   8.516  0.00  0.00    +0.040 C 
ATOM     10  C   LIG    1       25.825 -23.292   7.337  0.00  0.00    -0.039 A 
ATOM     11  C   LIG    1       25.639 -24.681   7.392  0.00  0.00    +0.004 A 
ATOM     12  C   LIG    1       25.152 -25.370   6.280  0.00  0.00    +0.000 A 
ATOM     13  C   LIG    1       24.855 -24.683   5.104  0.00  0.00    +0.001 A 
ATOM     14  C   LIG    1       25.033 -23.300   5.043  0.00  0.00    +0.009 A 
ATOM     15  C   LIG    1       27.306 -19.469   5.300  0.00  0.00    +0.009 A 
ATOM     16  C   LIG    1       25.502 -22.598   6.162  0.00  0.00    -0.014 A 
ENDROOT
BRANCH   1  17
ATOM     17  C   LIG    1       23.116 -20.773   6.270  0.00  0.00    +0.043 C 
BRANCH  17  18
ATOM     18  C   LIG    1       22.323 -20.303   5.033  0.00  0.00    +0.088 C 
BRANCH  18  20
ATOM     19  C   LIG    1       23.721 -19.136   3.407  0.00  0.00    +0.104 C 
ATOM     20  N   LIG    1       22.765 -18.994   4.509  0.00  0.00    -0.308 NA
ATOM     21  C   LIG    1       21.603 -18.225   4.052  0.00  0.00    +0.104 C 
ENDBRANCH  18  20
ENDBRANCH  17  18
ENDBRANCH   1  17
TORSDOF 3
ENDMDL
