MODEL 1
REMARK VINA RESULT:      -8.7      0.000      0.000
REMARK  Name = *****
REMARK                            x       y       z     vdW  Elec       q    Type
REMARK                         _______ _______ _______ _____ _____    ______ ____
ROOT
ATOM      1  C   LIG    1       27.238 -20.595   7.092  0.00  0.00    -0.021 C 
ATOM      2  C   LIG    1       26.107 -21.187   6.654  0.00  0.00    -0.035 C 
ATOM      3  C   LIG    1       25.482 -22.394   7.349  0.00  0.00    +0.059 C 
ATOM      4  C   LIG    1       24.002 -22.155   7.833  0.00  0.00    +0.085 C 
ATOM      5  C   LIG    1       22.996 -23.159   7.327  0.00  0.00    -0.011 C 
ATOM      6  C   LIG    1       23.313 -24.161   6.451  0.00  0.00    +0.009 C 
ATOM      7  C   LIG    1       24.660 -24.369   5.976  0.00  0.00    +0.051 C 
ATOM      8  S   LIG    1       23.290 -20.488   7.452  0.00  0.00    -0.116 S 
ATOM      9  C   LIG    1       23.948 -20.315   5.802  0.00  0.00    +0.016 A 
ATOM     10  C   LIG    1       23.126 -19.861   4.767  0.00  0.00    +0.015 A 
ATOM     11  C   LIG    1       23.617 -19.809   3.461  0.00  0.00    +0.001 A 
ATOM     12  C   LIG    1       24.923 -20.216   3.188  0.00  0.00    +0.001 A 
ATOM     13  C   LIG    1       25.753 -20.651   4.223  0.00  0.00    +0.009 A 
ATOM     14  C   LIG    1       25.673 -23.594   6.437  0.00  0.00    -0.005 C 
ATOM     15  C   LIG    1       25.280 -20.678   5.540  0.00  0.00    -0.008 A 
ENDROOT
BRANCH   7  16
ATOM     16  C   LIG    1       24.903 -25.443   4.943  0.00  0.00    +0.417 C 
ATOM     17  F   LIG    1       26.087 -26.076   5.146  0.00  0.00    -0.166 F 
ATOM     18  F   LIG    1       24.948 -24.928   3.686  0.00  0.00    -0.166 F 
ATOM     19  F   LIG    1       23.942 -26.403   4.934  0.00  0.00    -0.166 F 
ENDBRANCH   7  16
BRANCH   1  20
ATOM     20  C   LIG    1       27.897 -19.352   6.547  0.00  0.00    +0.043 C 
BRANCH  20  21
ATOM     21  C   LIG    1       29.416 -19.548   6.364  0.00  0.00    +0.088 C 
BRANCH  21  25
ATOM     22  N   LIG    1       31.825 -18.784   9.815  0.00  0.00    -0.298 NA
ATOM     23  C   LIG    1       31.561 -20.193   9.499  0.00  0.00    +0.100 C 
ATOM     24  C   LIG    1       30.531 -20.453   8.373  0.00  0.00    +0.100 C 
ATOM     25  N   LIG    1       30.211 -19.274   7.562  0.00  0.00    -0.300 NA
ATOM     26  C   LIG    1       31.370 -18.410   7.313  0.00  0.00    +0.100 C 
ATOM     27  C   LIG    1       32.219 -18.094   8.576  0.00  0.00    +0.100 C 
BRANCH  22  28
ATOM     28  C   LIG    1       30.756 -18.104  10.573  0.00  0.00    +0.112 C 
BRANCH  28  29
ATOM     29  C   LIG    1       30.726 -16.573  10.814  0.00  0.00    +0.171 C 
BRANCH  29  30
ATOM     30  O   LIG    1       31.110 -16.156  12.124  0.00  0.00    -0.394 OA
ATOM     31  H   LIG    1       32.065 -16.318  12.222  0.00  0.00    +0.209 HD
ENDBRANCH  29  30
ENDBRANCH  28  29
ENDBRANCH  22  28
ENDBRANCH  21  25
ENDBRANCH  20  21
ENDBRANCH   1  20
TORSDOF 7
ENDMDL
MODEL 2
REMARK VINA RESULT:      -7.8      5.592      8.629
REMARK  Name = *****
REMARK                            x       y       z     vdW  Elec       q    Type
REMARK                         _______ _______ _______ _____ _____    ______ ____
ROOT
ATOM      1  C   LIG    1       25.131 -24.305   5.392  0.00  0.00    -0.021 C 
ATOM      2  C   LIG    1       24.890 -23.004   5.659  0.00  0.00    -0.035 C 
ATOM      3  C   LIG    1       23.871 -22.174   4.883  0.00  0.00    +0.059 C 
ATOM      4  C   LIG    1       22.736 -21.555   5.784  0.00  0.00    +0.085 C 
ATOM      5  C   LIG    1       22.579 -20.059   5.671  0.00  0.00    -0.011 C 
ATOM      6  C   LIG    1       23.401 -19.274   4.909  0.00  0.00    +0.009 C 
ATOM      7  C   LIG    1       24.465 -19.829   4.106  0.00  0.00    +0.051 C 
ATOM      8  S   LIG    1       22.859 -21.916   7.596  0.00  0.00    -0.116 S 
ATOM      9  C   LIG    1       24.625 -21.719   7.763  0.00  0.00    +0.016 A 
ATOM     10  C   LIG    1       25.148 -20.985   8.831  0.00  0.00    +0.015 A 
ATOM     11  C   LIG    1       26.523 -20.758   8.913  0.00  0.00    +0.001 A 
ATOM     12  C   LIG    1       27.373 -21.255   7.925  0.00  0.00    +0.001 A 
ATOM     13  C   LIG    1       26.857 -22.005   6.867  0.00  0.00    +0.009 A 
ATOM     14  C   LIG    1       24.643 -21.171   4.044  0.00  0.00    -0.005 C 
ATOM     15  C   LIG    1       25.483 -22.264   6.793  0.00  0.00    -0.008 A 
ENDROOT
BRANCH   7  16
ATOM     16  C   LIG    1       25.379 -18.882   3.366  0.00  0.00    +0.417 C 
ATOM     17  F   LIG    1       25.674 -19.338   2.122  0.00  0.00    -0.166 F 
ATOM     18  F   LIG    1       26.564 -18.721   4.013  0.00  0.00    -0.166 F 
ATOM     19  F   LIG    1       24.851 -17.639   3.212  0.00  0.00    -0.166 F 
ENDBRANCH   7  16
BRANCH   1  20
ATOM     20  C   LIG    1       26.042 -25.245   6.141  0.00  0.00    +0.043 C 
BRANCH  20  21
ATOM     21  C   LIG    1       26.354 -26.512   5.317  0.00  0.00    +0.088 C 
BRANCH  21  25
ATOM     22  N   LIG    1       24.595 -30.060   6.934  0.00  0.00    -0.298 NA
ATOM     23  C   LIG    1       25.060 -29.058   7.902  0.00  0.00    +0.100 C 
ATOM     24  C   LIG    1       25.869 -27.876   7.317  0.00  0.00    +0.100 C 
ATOM     25  N   LIG    1       25.781 -27.744   5.859  0.00  0.00    -0.300 NA
ATOM     26  C   LIG    1       24.450 -28.057   5.329  0.00  0.00    +0.100 C 
ATOM     27  C   LIG    1       23.831 -29.371   5.882  0.00  0.00    +0.100 C 
BRANCH  22  28
ATOM     28  C   LIG    1       25.642 -30.968   6.425  0.00  0.00    +0.112 C 
BRANCH  28  29
ATOM     29  C   LIG    1       25.728 -31.423   4.946  0.00  0.00    +0.171 C 
BRANCH  29  30
ATOM     30  O   LIG    1       24.779 -32.416   4.559  0.00  0.00    -0.394 OA
ATOM     31  H   LIG    1       24.120 -31.992   3.981  0.00  0.00    +0.209 HD
ENDBRANCH  29  30
ENDBRANCH  28  29
ENDBRANCH  22  28
ENDBRANCH  21  25
ENDBRANCH  20  21
ENDBRANCH   1  20
TORSDOF 7
ENDMDL
MODEL 3
REMARK VINA RESULT:      -7.5      1.673      2.199
REMARK  Name = *****
REMARK                            x       y       z     vdW  Elec       q    Type
REMARK                         _______ _______ _______ _____ _____    ______ ____
ROOT
ATOM      1  C   LIG    1       27.390 -20.209   6.185  0.00  0.00    -0.021 C 
ATOM      2  C   LIG    1       26.233 -20.896   6.076  0.00  0.00    -0.035 C 
ATOM      3  C   LIG    1       25.894 -22.092   6.961  0.00  0.00    +0.059 C 
ATOM      4  C   LIG    1       24.568 -21.913   7.793  0.00  0.00    +0.085 C 
ATOM      5  C   LIG    1       23.546 -23.006   7.605  0.00  0.00    -0.011 C 
ATOM      6  C   LIG    1       23.708 -24.041   6.724  0.00  0.00    +0.009 C 
ATOM      7  C   LIG    1       24.906 -24.196   5.933  0.00  0.00    +0.051 C 
ATOM      8  S   LIG    1       23.660 -20.320   7.528  0.00  0.00    -0.116 S 
ATOM      9  C   LIG    1       23.871 -20.213   5.759  0.00  0.00    +0.016 A 
ATOM     10  C   LIG    1       22.785 -19.876   4.946  0.00  0.00    +0.015 A 
ATOM     11  C   LIG    1       22.929 -19.878   3.557  0.00  0.00    +0.001 A 
ATOM     12  C   LIG    1       24.152 -20.221   2.981  0.00  0.00    +0.001 A 
ATOM     13  C   LIG    1       25.245 -20.538   3.791  0.00  0.00    +0.009 A 
ATOM     14  C   LIG    1       25.940 -23.333   6.087  0.00  0.00    -0.005 C 
ATOM     15  C   LIG    1       25.118 -20.510   5.185  0.00  0.00    -0.008 A 
ENDROOT
BRANCH   7  16
ATOM     16  C   LIG    1       24.963 -25.317   4.924  0.00  0.00    +0.417 C 
ATOM     17  F   LIG    1       24.958 -24.846   3.650  0.00  0.00    -0.166 F 
ATOM     18  F   LIG    1       23.893 -26.148   5.036  0.00  0.00    -0.166 F 
ATOM     19  F   LIG    1       26.071 -26.094   5.049  0.00  0.00    -0.166 F 
ENDBRANCH   7  16
BRANCH   1  20
ATOM     20  C   LIG    1       27.797 -18.966   5.434  0.00  0.00    +0.043 C 
BRANCH  20  21
ATOM     21  C   LIG    1       29.306 -18.680   5.582  0.00  0.00    +0.088 C 
BRANCH  21  25
ATOM     22  N   LIG    1       31.002 -19.734   9.365  0.00  0.00    -0.298 NA
ATOM     23  C   LIG    1       31.948 -19.452   8.277  0.00  0.00    +0.100 C 
ATOM     24  C   LIG    1       31.328 -19.267   6.872  0.00  0.00    +0.100 C 
ATOM     25  N   LIG    1       29.874 -19.075   6.871  0.00  0.00    -0.300 NA
ATOM     26  C   LIG    1       29.397 -18.264   7.996  0.00  0.00    +0.100 C 
ATOM     27  C   LIG    1       29.978 -18.677   9.378  0.00  0.00    +0.100 C 
BRANCH  22  28
ATOM     28  C   LIG    1       30.456 -21.106   9.375  0.00  0.00    +0.112 C 
BRANCH  28  29
ATOM     29  C   LIG    1       31.333 -22.369   9.572  0.00  0.00    +0.171 C 
BRANCH  29  30
ATOM     30  O   LIG    1       32.163 -22.713   8.463  0.00  0.00    -0.394 OA
ATOM     31  H   LIG    1       32.131 -23.680   8.353  0.00  0.00    +0.209 HD
ENDBRANCH  29  30
ENDBRANCH  28  29
ENDBRANCH  22  28
ENDBRANCH  21  25
ENDBRANCH  20  21
ENDBRANCH   1  20
TORSDOF 7
ENDMDL
MODEL 4
REMARK VINA RESULT:      -7.4      7.918     10.866
REMARK  Name = *****
REMARK                            x       y       z     vdW  Elec       q    Type
REMARK                         _______ _______ _______ _____ _____    ______ ____
ROOT
ATOM      1  C   LIG    1       23.868 -30.440   9.549  0.00  0.00    -0.021 C 
ATOM      2  C   LIG    1       24.005 -30.054  10.835  0.00  0.00    -0.035 C 
ATOM      3  C   LIG    1       22.862 -30.117  11.845  0.00  0.00    +0.059 C 
ATOM      4  C   LIG    1       23.174 -31.009  13.105  0.00  0.00    +0.085 C 
ATOM      5  C   LIG    1       23.007 -30.314  14.434  0.00  0.00    -0.011 C 
ATOM      6  C   LIG    1       22.685 -28.989  14.552  0.00  0.00    +0.009 C 
ATOM      7  C   LIG    1       22.429 -28.156  13.402  0.00  0.00    +0.051 C 
ATOM      8  S   LIG    1       24.856 -31.784  13.147  0.00  0.00    -0.116 S 
ATOM      9  C   LIG    1       25.781 -30.386  12.533  0.00  0.00    +0.016 A 
ATOM     10  C   LIG    1       26.972 -30.008  13.159  0.00  0.00    +0.015 A 
ATOM     11  C   LIG    1       27.649 -28.864  12.733  0.00  0.00    +0.001 A 
ATOM     12  C   LIG    1       27.135 -28.095  11.689  0.00  0.00    +0.001 A 
ATOM     13  C   LIG    1       25.956 -28.481  11.048  0.00  0.00    +0.009 A 
ATOM     14  C   LIG    1       22.449 -28.689  12.155  0.00  0.00    -0.005 C 
ATOM     15  C   LIG    1       25.286 -29.643  11.448  0.00  0.00    -0.008 A 
ENDROOT
BRANCH   7  16
ATOM     16  C   LIG    1       22.167 -26.685  13.621  0.00  0.00    +0.417 C 
ATOM     17  F   LIG    1       21.922 -26.408  14.927  0.00  0.00    -0.166 F 
ATOM     18  F   LIG    1       21.080 -26.260  12.923  0.00  0.00    -0.166 F 
ATOM     19  F   LIG    1       23.204 -25.894  13.241  0.00  0.00    -0.166 F 
ENDBRANCH   7  16
BRANCH   1  20
ATOM     20  C   LIG    1       24.940 -30.507   8.489  0.00  0.00    +0.043 C 
BRANCH  20  21
ATOM     21  C   LIG    1       24.382 -30.156   7.094  0.00  0.00    +0.088 C 
BRANCH  21  25
ATOM     22  N   LIG    1       25.469 -26.260   5.703  0.00  0.00    -0.298 NA
ATOM     23  C   LIG    1       26.095 -26.708   6.953  0.00  0.00    +0.100 C 
ATOM     24  C   LIG    1       25.549 -28.028   7.549  0.00  0.00    +0.100 C 
ATOM     25  N   LIG    1       24.721 -28.812   6.626  0.00  0.00    -0.300 NA
ATOM     26  C   LIG    1       25.203 -28.775   5.242  0.00  0.00    +0.100 C 
ATOM     27  C   LIG    1       25.553 -27.353   4.721  0.00  0.00    +0.100 C 
BRANCH  22  28
ATOM     28  C   LIG    1       24.116 -25.686   5.854  0.00  0.00    +0.112 C 
BRANCH  28  29
ATOM     29  C   LIG    1       23.834 -24.362   6.610  0.00  0.00    +0.171 C 
BRANCH  29  30
ATOM     30  O   LIG    1       22.466 -23.959   6.641  0.00  0.00    -0.394 OA
ATOM     31  H   LIG    1       22.435 -23.022   6.906  0.00  0.00    +0.209 HD
ENDBRANCH  29  30
ENDBRANCH  28  29
ENDBRANCH  22  28
ENDBRANCH  21  25
ENDBRANCH  20  21
ENDBRANCH   1  20
TORSDOF 7
ENDMDL
MODEL 5
REMARK VINA RESULT:      -6.4      9.399     11.454
REMARK  Name = *****
REMARK                            x       y       z     vdW  Elec       q    Type
REMARK                         _______ _______ _______ _____ _____    ______ ____
ROOT
ATOM      1  C   LIG    1       25.673 -29.111  11.639  0.00  0.00    -0.021 C 
ATOM      2  C   LIG    1       25.290 -29.793  10.539  0.00  0.00    -0.035 C 
ATOM      3  C   LIG    1       26.170 -29.923   9.298  0.00  0.00    +0.059 C 
ATOM      4  C   LIG    1       26.502 -31.413   8.907  0.00  0.00    +0.085 C 
ATOM      5  C   LIG    1       26.143 -31.795   7.492  0.00  0.00    -0.011 C 
ATOM      6  C   LIG    1       25.506 -30.948   6.626  0.00  0.00    +0.009 C 
ATOM      7  C   LIG    1       25.168 -29.591   6.986  0.00  0.00    +0.051 C 
ATOM      8  S   LIG    1       25.753 -32.716   9.989  0.00  0.00    -0.116 S 
ATOM      9  C   LIG    1       24.146 -31.965  10.194  0.00  0.00    +0.016 A 
ATOM     10  C   LIG    1       22.992 -32.742  10.065  0.00  0.00    +0.015 A 
ATOM     11  C   LIG    1       21.735 -32.138  10.139  0.00  0.00    +0.001 A 
ATOM     12  C   LIG    1       21.632 -30.761  10.336  0.00  0.00    +0.001 A 
ATOM     13  C   LIG    1       22.783 -29.985  10.486  0.00  0.00    +0.009 A 
ATOM     14  C   LIG    1       25.529 -29.098   8.196  0.00  0.00    -0.005 C 
ATOM     15  C   LIG    1       24.047 -30.586  10.443  0.00  0.00    -0.008 A 
ENDROOT
BRANCH   7  16
ATOM     16  C   LIG    1       24.387 -28.757   6.000  0.00  0.00    +0.417 C 
ATOM     17  F   LIG    1       25.113 -28.488   4.885  0.00  0.00    -0.166 F 
ATOM     18  F   LIG    1       24.031 -27.557   6.531  0.00  0.00    -0.166 F 
ATOM     19  F   LIG    1       23.239 -29.352   5.586  0.00  0.00    -0.166 F 
ENDBRANCH   7  16
BRANCH   1  20
ATOM     20  C   LIG    1       24.934 -28.987  12.948  0.00  0.00    +0.043 C 
BRANCH  20  21
ATOM     21  C   LIG    1       24.401 -27.556  13.168  0.00  0.00    +0.088 C 
BRANCH  21  25
ATOM     22  N   LIG    1       20.570 -27.382  15.064  0.00  0.00    -0.298 NA
ATOM     23  C   LIG    1       21.220 -28.697  15.018  0.00  0.00    +0.100 C 
ATOM     24  C   LIG    1       22.506 -28.789  14.161  0.00  0.00    +0.100 C 
ATOM     25  N   LIG    1       23.075 -27.491  13.784  0.00  0.00    -0.300 NA
ATOM     26  C   LIG    1       22.968 -26.482  14.843  0.00  0.00    +0.100 C 
ATOM     27  C   LIG    1       21.563 -26.386  15.500  0.00  0.00    +0.100 C 
BRANCH  22  28
ATOM     28  C   LIG    1       19.835 -27.007  13.839  0.00  0.00    +0.112 C 
BRANCH  28  29
ATOM     29  C   LIG    1       18.538 -26.159  13.852  0.00  0.00    +0.171 C 
BRANCH  29  30
ATOM     30  O   LIG    1       17.761 -26.253  15.045  0.00  0.00    -0.394 OA
ATOM     31  H   LIG    1       16.821 -26.247  14.793  0.00  0.00    +0.209 HD
ENDBRANCH  29  30
ENDBRANCH  28  29
ENDBRANCH  22  28
ENDBRANCH  21  25
ENDBRANCH  20  21
ENDBRANCH   1  20
TORSDOF 7
ENDMDL
MODEL 6
REMARK VINA RESULT:      -6.1     10.372     12.756
REMARK  Name = *****
REMARK                            x       y       z     vdW  Elec       q    Type
REMARK                         _______ _______ _______ _____ _____    ______ ____
ROOT
ATOM      1  C   LIG    1       24.522 -30.525   9.910  0.00  0.00    -0.021 C 
ATOM      2  C   LIG    1       24.401 -30.069  11.174  0.00  0.00    -0.035 C 
ATOM      3  C   LIG    1       23.132 -30.252  12.003  0.00  0.00    +0.059 C 
ATOM      4  C   LIG    1       23.358 -31.035  13.350  0.00  0.00    +0.085 C 
ATOM      5  C   LIG    1       22.891 -30.316  14.592  0.00  0.00    -0.011 C 
ATOM      6  C   LIG    1       22.380 -29.046  14.575  0.00  0.00    +0.009 C 
ATOM      7  C   LIG    1       22.199 -28.307  13.347  0.00  0.00    +0.051 C 
ATOM      8  S   LIG    1       25.101 -31.559  13.694  0.00  0.00    -0.116 S 
ATOM      9  C   LIG    1       25.915 -30.071  13.137  0.00  0.00    +0.016 A 
ATOM     10  C   LIG    1       26.931 -29.501  13.909  0.00  0.00    +0.015 A 
ATOM     11  C   LIG    1       27.506 -28.291  13.517  0.00  0.00    +0.001 A 
ATOM     12  C   LIG    1       27.064 -27.649  12.361  0.00  0.00    +0.001 A 
ATOM     13  C   LIG    1       26.064 -28.226  11.576  0.00  0.00    +0.009 A 
ATOM     14  C   LIG    1       22.487 -28.885  12.155  0.00  0.00    -0.005 C 
ATOM     15  C   LIG    1       25.502 -29.454  11.945  0.00  0.00    -0.008 A 
ENDROOT
BRANCH   7  16
ATOM     16  C   LIG    1       21.710 -26.882  13.430  0.00  0.00    +0.417 C 
ATOM     17  F   LIG    1       21.344 -26.549  14.694  0.00  0.00    -0.166 F 
ATOM     18  F   LIG    1       20.620 -26.679  12.643  0.00  0.00    -0.166 F 
ATOM     19  F   LIG    1       22.642 -25.973  13.040  0.00  0.00    -0.166 F 
ENDBRANCH   7  16
BRANCH   1  20
ATOM     20  C   LIG    1       25.746 -30.484   9.030  0.00  0.00    +0.043 C 
BRANCH  20  21
ATOM     21  C   LIG    1       25.371 -30.322   7.542  0.00  0.00    +0.088 C 
BRANCH  21  25
ATOM     22  N   LIG    1       26.125 -33.823   5.203  0.00  0.00    -0.298 NA
ATOM     23  C   LIG    1       26.943 -33.652   6.410  0.00  0.00    +0.100 C 
ATOM     24  C   LIG    1       26.802 -32.293   7.137  0.00  0.00    +0.100 C 
ATOM     25  N   LIG    1       25.644 -31.498   6.716  0.00  0.00    -0.300 NA
ATOM     26  C   LIG    1       24.454 -32.310   6.440  0.00  0.00    +0.100 C 
ATOM     27  C   LIG    1       24.720 -33.558   5.550  0.00  0.00    +0.100 C 
BRANCH  22  28
ATOM     28  C   LIG    1       26.604 -33.086   4.016  0.00  0.00    +0.112 C 
BRANCH  28  29
ATOM     29  C   LIG    1       25.681 -32.677   2.839  0.00  0.00    +0.171 C 
BRANCH  29  30
ATOM     30  O   LIG    1       26.166 -33.014   1.540  0.00  0.00    -0.394 OA
ATOM     31  H   LIG    1       26.463 -33.941   1.562  0.00  0.00    +0.209 HD
ENDBRANCH  29  30
ENDBRANCH  28  29
ENDBRANCH  22  28
ENDBRANCH  21  25
ENDBRANCH  20  21
ENDBRANCH   1  20
TORSDOF 7
ENDMDL
MODEL 7
REMARK VINA RESULT:      -6.0      9.030     10.738
REMARK  Name = *****
REMARK                            x       y       z     vdW  Elec       q    Type
REMARK                         _______ _______ _______ _____ _____    ______ ____
ROOT
ATOM      1  C   LIG    1       25.680 -29.152  11.594  0.00  0.00    -0.021 C 
ATOM      2  C   LIG    1       25.319 -29.823  10.479  0.00  0.00    -0.035 C 
ATOM      3  C   LIG    1       26.207 -29.908   9.240  0.00  0.00    +0.059 C 
ATOM      4  C   LIG    1       26.577 -31.381   8.823  0.00  0.00    +0.085 C 
ATOM      5  C   LIG    1       26.233 -31.745   7.400  0.00  0.00    -0.011 C 
ATOM      6  C   LIG    1       25.579 -30.899   6.546  0.00  0.00    +0.009 C 
ATOM      7  C   LIG    1       25.206 -29.557   6.931  0.00  0.00    +0.051 C 
ATOM      8  S   LIG    1       25.855 -32.723   9.877  0.00  0.00    -0.116 S 
ATOM      9  C   LIG    1       24.230 -32.016  10.089  0.00  0.00    +0.016 A 
ATOM     10  C   LIG    1       23.095 -32.817   9.940  0.00  0.00    +0.015 A 
ATOM     11  C   LIG    1       21.824 -32.246  10.019  0.00  0.00    +0.001 A 
ATOM     12  C   LIG    1       21.686 -30.876  10.241  0.00  0.00    +0.001 A 
ATOM     13  C   LIG    1       22.818 -30.075  10.411  0.00  0.00    +0.009 A 
ATOM     14  C   LIG    1       25.550 -29.078   8.151  0.00  0.00    -0.005 C 
ATOM     15  C   LIG    1       24.095 -30.644  10.363  0.00  0.00    -0.008 A 
ENDROOT
BRANCH   7  16
ATOM     16  C   LIG    1       24.409 -28.724   5.957  0.00  0.00    +0.417 C 
ATOM     17  F   LIG    1       25.131 -28.420   4.848  0.00  0.00    -0.166 F 
ATOM     18  F   LIG    1       24.025 -27.541   6.507  0.00  0.00    -0.166 F 
ATOM     19  F   LIG    1       23.275 -29.338   5.529  0.00  0.00    -0.166 F 
ENDBRANCH   7  16
BRANCH   1  20
ATOM     20  C   LIG    1       24.933 -29.072  12.902  0.00  0.00    +0.043 C 
BRANCH  20  21
ATOM     21  C   LIG    1       25.700 -28.231  13.944  0.00  0.00    +0.088 C 
BRANCH  21  25
ATOM     22  N   LIG    1       29.683 -29.548  14.782  0.00  0.00    -0.298 NA
ATOM     23  C   LIG    1       29.331 -28.195  15.230  0.00  0.00    +0.100 C 
ATOM     24  C   LIG    1       27.962 -27.656  14.751  0.00  0.00    +0.100 C 
ATOM     25  N   LIG    1       27.070 -28.679  14.195  0.00  0.00    -0.300 NA
ATOM     26  C   LIG    1       27.148 -29.962  14.903  0.00  0.00    +0.100 C 
ATOM     27  C   LIG    1       28.596 -30.463  15.166  0.00  0.00    +0.100 C 
BRANCH  22  28
ATOM     28  C   LIG    1       30.087 -29.649  13.365  0.00  0.00    +0.112 C 
BRANCH  28  29
ATOM     29  C   LIG    1       31.567 -29.700  12.905  0.00  0.00    +0.171 C 
BRANCH  29  30
ATOM     30  O   LIG    1       32.311 -30.825  13.372  0.00  0.00    -0.394 OA
ATOM     31  H   LIG    1       33.224 -30.736  13.047  0.00  0.00    +0.209 HD
ENDBRANCH  29  30
ENDBRANCH  28  29
ENDBRANCH  22  28
ENDBRANCH  21  25
ENDBRANCH  20  21
ENDBRANCH   1  20
TORSDOF 7
ENDMDL
MODEL 8
REMARK VINA RESULT:      -6.0      8.489     11.508
REMARK  Name = *****
REMARK                            x       y       z     vdW  Elec       q    Type
REMARK                         _______ _______ _______ _____ _____    ______ ____
ROOT
ATOM      1  C   LIG    1       24.940 -30.565  10.772  0.00  0.00    -0.021 C 
ATOM      2  C   LIG    1       24.661 -29.918  11.924  0.00  0.00    -0.035 C 
ATOM      3  C   LIG    1       23.361 -30.127  12.697  0.00  0.00    +0.059 C 
ATOM      4  C   LIG    1       23.573 -30.629  14.175  0.00  0.00    +0.085 C 
ATOM      5  C   LIG    1       22.921 -29.777  15.236  0.00  0.00    -0.011 C 
ATOM      6  C   LIG    1       22.258 -28.611  14.959  0.00  0.00    +0.009 C 
ATOM      7  C   LIG    1       22.087 -28.127  13.610  0.00  0.00    +0.051 C 
ATOM      8  S   LIG    1       25.334 -30.842  14.709  0.00  0.00    -0.116 S 
ATOM      9  C   LIG    1       25.999 -29.375  13.939  0.00  0.00    +0.016 A 
ATOM     10  C   LIG    1       26.870 -28.547  14.652  0.00  0.00    +0.015 A 
ATOM     11  C   LIG    1       27.320 -27.355  14.081  0.00  0.00    +0.001 A 
ATOM     12  C   LIG    1       26.898 -26.989  12.804  0.00  0.00    +0.001 A 
ATOM     13  C   LIG    1       26.044 -27.824  12.081  0.00  0.00    +0.009 A 
ATOM     14  C   LIG    1       22.541 -28.856  12.561  0.00  0.00    -0.005 C 
ATOM     15  C   LIG    1       25.611 -29.035  12.633  0.00  0.00    -0.008 A 
ENDROOT
BRANCH   7  16
ATOM     16  C   LIG    1       21.420 -26.788  13.403  0.00  0.00    +0.417 C 
ATOM     17  F   LIG    1       22.310 -25.839  13.017  0.00  0.00    -0.166 F 
ATOM     18  F   LIG    1       20.840 -26.336  14.547  0.00  0.00    -0.166 F 
ATOM     19  F   LIG    1       20.444 -26.817  12.459  0.00  0.00    -0.166 F 
ENDBRANCH   7  16
BRANCH   1  20
ATOM     20  C   LIG    1       26.217 -30.508   9.972  0.00  0.00    +0.043 C 
BRANCH  20  21
ATOM     21  C   LIG    1       26.111 -31.334   8.672  0.00  0.00    +0.088 C 
BRANCH  21  25
ATOM     22  N   LIG    1       24.924 -29.122   5.209  0.00  0.00    -0.298 NA
ATOM     23  C   LIG    1       25.328 -30.516   4.990  0.00  0.00    +0.100 C 
ATOM     24  C   LIG    1       25.941 -31.243   6.210  0.00  0.00    +0.100 C 
ATOM     25  N   LIG    1       25.735 -30.557   7.490  0.00  0.00    -0.300 NA
ATOM     26  C   LIG    1       24.419 -29.920   7.600  0.00  0.00    +0.100 C 
ATOM     27  C   LIG    1       24.008 -29.077   6.360  0.00  0.00    +0.100 C 
BRANCH  22  28
ATOM     28  C   LIG    1       26.037 -28.154   5.284  0.00  0.00    +0.112 C 
BRANCH  28  29
ATOM     29  C   LIG    1       26.003 -26.886   6.176  0.00  0.00    +0.171 C 
BRANCH  29  30
ATOM     30  O   LIG    1       26.156 -25.649   5.481  0.00  0.00    -0.394 OA
ATOM     31  H   LIG    1       26.858 -25.764   4.816  0.00  0.00    +0.209 HD
ENDBRANCH  29  30
ENDBRANCH  28  29
ENDBRANCH  22  28
ENDBRANCH  21  25
ENDBRANCH  20  21
ENDBRANCH   1  20
TORSDOF 7
ENDMDL
