MODEL 1
REMARK VINA RESULT:       0.1      0.000      0.000
REMARK  Name = *****
REMARK                            x       y       z     vdW  Elec       q    Type
REMARK                         _______ _______ _______ _____ _____    ______ ____
ROOT
ATOM      1  C   LIG    1       24.266 -16.546   3.857  0.00  0.00    +0.077 A 
ATOM      2  C   LIG    1       22.978 -16.044   4.103  0.00  0.00    +0.144 A 
ATOM      3  C   LIG    1       21.911 -16.938   4.202  0.00  0.00    +0.076 A 
ATOM      4  C   LIG    1       22.094 -18.298   4.306  0.00  0.00    +0.080 A 
ATOM      5  N   LIG    1       20.993 -19.022   4.503  0.00  0.00    -0.235 NA
ATOM      6  C   LIG    1       21.161 -20.333   4.644  0.00  0.00    +0.224 A 
ATOM      7  N   LIG    1       22.329 -20.975   4.612  0.00  0.00    -0.220 NA
ATOM      8  C   LIG    1       23.431 -20.221   4.414  0.00  0.00    +0.134 A 
ATOM      9  C   LIG    1       23.385 -18.824   4.226  0.00  0.00    +0.042 A 
ATOM     10  C   LIG    1       24.464 -17.932   3.930  0.00  0.00    +0.040 A 
ENDROOT
BRANCH   1  12
ATOM     11  C   LIG    1       26.601 -15.905   3.217  0.00  0.00    +0.241 C 
ATOM     12  N   LIG    1       25.288 -15.627   3.558  0.00  0.00    -0.279 N 
ATOM     13  H   LIG    1       24.986 -14.654   3.509  0.00  0.00    +0.155 HD
ATOM     14  O   LIG    1       27.124 -16.992   3.081  0.00  0.00    -0.271 OA
BRANCH  11  16
ATOM     15  C   LIG    1       28.330 -14.301   3.870  0.00  0.00    -0.007 C 
ATOM     16  C   LIG    1       27.371 -14.646   2.999  0.00  0.00    +0.064 C 
BRANCH  15  17
ATOM     17  C   LIG    1       29.099 -13.008   3.802  0.00  0.00    +0.111 C 
BRANCH  17  19
ATOM     18  C   LIG    1       27.215 -12.161   5.096  0.00  0.00    +0.105 C 
ATOM     19  N   LIG    1       28.562 -11.900   4.597  0.00  0.00    -0.305 NA
ATOM     20  C   LIG    1       29.465 -11.512   5.677  0.00  0.00    +0.105 C 
ENDBRANCH  17  19
ENDBRANCH  15  17
ENDBRANCH  11  16
ENDBRANCH   1  12
BRANCH   8  21
ATOM     21  N   LIG    1       24.609 -20.981   4.341  0.00  0.00    -0.299 N 
ATOM     22  H   LIG    1       24.301 -21.930   4.558  0.00  0.00    +0.154 HD
BRANCH  21  23
ATOM     23  C   LIG    1       25.853 -20.746   4.965  0.00  0.00    +0.034 A 
ATOM     24  C   LIG    1       26.706 -19.685   4.639  0.00  0.00    +0.046 A 
ATOM     25  C   LIG    1       27.906 -19.514   5.341  0.00  0.00    +0.078 A 
ATOM     26 CL   LIG    1       28.976 -18.234   4.904  0.00  0.00    -0.081 Cl
ATOM     27  C   LIG    1       28.236 -20.375   6.388  0.00  0.00    +0.142 A 
ATOM     28  F   LIG    1       29.391 -20.239   7.056  0.00  0.00    -0.204 F 
ATOM     29  C   LIG    1       27.367 -21.391   6.760  0.00  0.00    +0.041 A 
ATOM     30  C   LIG    1       26.174 -21.560   6.062  0.00  0.00    +0.026 A 
ENDBRANCH  21  23
ENDBRANCH   8  21
BRANCH   2  31
ATOM     31  O   LIG    1       22.797 -14.679   4.196  0.00  0.00    -0.484 OA
BRANCH  31  32
ATOM     32  C   LIG    1       24.014 -13.907   4.110  0.00  0.00    +0.201 C 
ATOM     33  C   LIG    1       24.081 -12.884   5.229  0.00  0.00    +0.204 C 
ATOM     34  O   LIG    1       23.559 -11.650   4.725  0.00  0.00    -0.376 OA
ATOM     35  C   LIG    1       23.422 -11.752   3.305  0.00  0.00    +0.163 C 
ATOM     36  C   LIG    1       24.040 -13.059   2.860  0.00  0.00    +0.075 C 
ENDBRANCH  31  32
ENDBRANCH   2  31
TORSDOF 8
ENDMDL
