MODEL 1
REMARK VINA RESULT:      -8.1      0.000      0.000
REMARK  Name = *****
REMARK                            x       y       z     vdW  Elec       q    Type
REMARK                         _______ _______ _______ _____ _____    ______ ____
ROOT
ATOM      1  C   LIG    1       28.538 -19.937   6.830  0.00  0.00    -0.014 A 
ATOM      2  C   LIG    1       27.349 -19.918   6.061  0.00  0.00    +0.056 A 
ATOM      3  C   LIG    1       26.311 -20.845   6.303  0.00  0.00    +0.174 A 
ATOM      4  C   LIG    1       26.493 -21.827   7.277  0.00  0.00    +0.174 A 
ATOM      5  C   LIG    1       27.715 -21.932   7.942  0.00  0.00    +0.050 A 
ATOM      6  C   LIG    1       28.711 -20.985   7.743  0.00  0.00    +0.010 A 
ENDROOT
BRANCH   1   7
ATOM      7  C   LIG    1       29.605 -18.852   6.698  0.00  0.00    +0.158 C 
BRANCH   7   8
ATOM      8  O   LIG    1       29.548 -18.234   5.397  0.00  0.00    -0.386 OA
ATOM      9  H   LIG    1       30.425 -18.354   4.993  0.00  0.00    +0.210 HD
ENDBRANCH   7   8
BRANCH   7  10
ATOM     10  C   LIG    1       31.043 -19.408   6.897  0.00  0.00    +0.116 C 
BRANCH  10  12
ATOM     11  C   LIG    1       31.433 -18.696   9.176  0.00  0.00    +0.101 C 
ATOM     12  N   LIG    1       31.851 -18.558   7.789  0.00  0.00    -0.316 NA
ATOM     13  H   LIG    1       32.838 -18.803   7.688  0.00  0.00    +0.122 HD
ENDBRANCH  10  12
ENDBRANCH   7  10
ENDBRANCH   1   7
BRANCH   3  14
ATOM     14  O   LIG    1       25.149 -20.724   5.488  0.00  0.00    -0.422 OA
BRANCH  14  15
ATOM     15  C   LIG    1       23.850 -20.368   5.894  0.00  0.00    +0.318 C 
ATOM     16  O   LIG    1       23.476 -20.252   7.064  0.00  0.00    -0.250 OA
BRANCH  15  17
ATOM     17  C   LIG    1       22.950 -20.069   4.690  0.00  0.00    +0.060 C 
ATOM     18  C   LIG    1       23.777 -20.215   3.407  0.00  0.00    +0.022 C 
ATOM     19  C   LIG    1       22.395 -18.624   4.742  0.00  0.00    +0.022 C 
ATOM     20  C   LIG    1       21.758 -21.030   4.693  0.00  0.00    +0.022 C 
ENDBRANCH  15  17
ENDBRANCH  14  15
ENDBRANCH   3  14
BRANCH   4  21
ATOM     21  O   LIG    1       25.525 -22.796   7.545  0.00  0.00    -0.422 OA
BRANCH  21  22
ATOM     22  C   LIG    1       25.674 -24.028   6.880  0.00  0.00    +0.318 C 
ATOM     23  O   LIG    1       26.666 -24.742   6.887  0.00  0.00    -0.250 OA
BRANCH  22  24
ATOM     24  C   LIG    1       24.383 -24.340   6.100  0.00  0.00    +0.060 C 
ATOM     25  C   LIG    1       24.161 -25.865   6.068  0.00  0.00    +0.022 C 
ATOM     26  C   LIG    1       24.511 -23.836   4.652  0.00  0.00    +0.022 C 
ATOM     27  C   LIG    1       23.202 -23.673   6.805  0.00  0.00    +0.022 C 
ENDBRANCH  22  24
ENDBRANCH  21  22
ENDBRANCH   4  21
TORSDOF 10
ENDMDL
MODEL 2
REMARK VINA RESULT:      -7.9      0.752      1.315
REMARK  Name = *****
REMARK                            x       y       z     vdW  Elec       q    Type
REMARK                         _______ _______ _______ _____ _____    ______ ____
ROOT
ATOM      1  C   LIG    1       28.417 -19.882   6.668  0.00  0.00    -0.014 A 
ATOM      2  C   LIG    1       27.344 -20.011   5.751  0.00  0.00    +0.056 A 
ATOM      3  C   LIG    1       26.297 -20.931   5.982  0.00  0.00    +0.174 A 
ATOM      4  C   LIG    1       26.359 -21.761   7.100  0.00  0.00    +0.174 A 
ATOM      5  C   LIG    1       27.479 -21.731   7.931  0.00  0.00    +0.050 A 
ATOM      6  C   LIG    1       28.479 -20.787   7.735  0.00  0.00    +0.010 A 
ENDROOT
BRANCH   1   7
ATOM      7  C   LIG    1       29.475 -18.790   6.527  0.00  0.00    +0.158 C 
BRANCH   7   8
ATOM      8  O   LIG    1       29.344 -18.112   5.262  0.00  0.00    -0.386 OA
ATOM      9  H   LIG    1       28.590 -18.521   4.802  0.00  0.00    +0.210 HD
ENDBRANCH   7   8
BRANCH   7  10
ATOM     10  C   LIG    1       30.921 -19.351   6.618  0.00  0.00    +0.116 C 
BRANCH  10  12
ATOM     11  C   LIG    1       30.831 -17.906   8.557  0.00  0.00    +0.101 C 
ATOM     12  N   LIG    1       31.672 -18.777   7.749  0.00  0.00    -0.316 NA
ATOM     13  H   LIG    1       32.054 -19.533   8.320  0.00  0.00    +0.122 HD
ENDBRANCH  10  12
ENDBRANCH   7  10
ENDBRANCH   1   7
BRANCH   3  14
ATOM     14  O   LIG    1       25.256 -20.964   5.010  0.00  0.00    -0.422 OA
BRANCH  14  15
ATOM     15  C   LIG    1       24.489 -19.883   4.538  0.00  0.00    +0.318 C 
ATOM     16  O   LIG    1       24.872 -19.042   3.720  0.00  0.00    -0.250 OA
BRANCH  15  17
ATOM     17  C   LIG    1       23.070 -19.910   5.116  0.00  0.00    +0.060 C 
ATOM     18  C   LIG    1       23.159 -20.084   6.637  0.00  0.00    +0.022 C 
ATOM     19  C   LIG    1       22.247 -21.091   4.544  0.00  0.00    +0.022 C 
ATOM     20  C   LIG    1       22.345 -18.612   4.748  0.00  0.00    +0.022 C 
ENDBRANCH  15  17
ENDBRANCH  14  15
ENDBRANCH   3  14
BRANCH   4  21
ATOM     21  O   LIG    1       25.378 -22.716   7.371  0.00  0.00    -0.422 OA
BRANCH  21  22
ATOM     22  C   LIG    1       25.612 -24.011   6.869  0.00  0.00    +0.318 C 
ATOM     23  O   LIG    1       26.635 -24.666   6.997  0.00  0.00    -0.250 OA
BRANCH  22  24
ATOM     24  C   LIG    1       24.369 -24.482   6.091  0.00  0.00    +0.060 C 
ATOM     25  C   LIG    1       24.233 -26.011   6.222  0.00  0.00    +0.022 C 
ATOM     26  C   LIG    1       24.522 -24.133   4.600  0.00  0.00    +0.022 C 
ATOM     27  C   LIG    1       23.128 -23.812   6.681  0.00  0.00    +0.022 C 
ENDBRANCH  22  24
ENDBRANCH  21  22
ENDBRANCH   4  21
TORSDOF 10
ENDMDL
MODEL 3
REMARK VINA RESULT:      -7.8      1.307      4.171
REMARK  Name = *****
REMARK                            x       y       z     vdW  Elec       q    Type
REMARK                         _______ _______ _______ _____ _____    ______ ____
ROOT
ATOM      1  C   LIG    1       28.641 -20.825   7.376  0.00  0.00    -0.014 A 
ATOM      2  C   LIG    1       27.779 -21.904   7.696  0.00  0.00    +0.056 A 
ATOM      3  C   LIG    1       26.566 -22.097   6.998  0.00  0.00    +0.174 A 
ATOM      4  C   LIG    1       26.191 -21.174   6.023  0.00  0.00    +0.174 A 
ATOM      5  C   LIG    1       26.970 -20.038   5.800  0.00  0.00    +0.050 A 
ATOM      6  C   LIG    1       28.190 -19.881   6.446  0.00  0.00    +0.010 A 
ENDROOT
BRANCH   1   7
ATOM      7  C   LIG    1       30.027 -20.684   8.001  0.00  0.00    +0.158 C 
BRANCH   7   8
ATOM      8  O   LIG    1       30.165 -21.557   9.140  0.00  0.00    -0.386 OA
ATOM      9  H   LIG    1       30.991 -21.302   9.587  0.00  0.00    +0.210 HD
ENDBRANCH   7   8
BRANCH   7  10
ATOM     10  C   LIG    1       30.317 -19.233   8.477  0.00  0.00    +0.116 C 
BRANCH  10  12
ATOM     11  C   LIG    1       30.642 -17.885  10.460  0.00  0.00    +0.101 C 
ATOM     12  N   LIG    1       30.845 -19.192   9.852  0.00  0.00    -0.316 NA
ATOM     13  H   LIG    1       30.394 -19.919  10.410  0.00  0.00    +0.122 HD
ENDBRANCH  10  12
ENDBRANCH   7  10
ENDBRANCH   1   7
BRANCH   3  14
ATOM     14  O   LIG    1       25.786 -23.225   7.383  0.00  0.00    -0.422 OA
BRANCH  14  15
ATOM     15  C   LIG    1       25.789 -24.508   6.805  0.00  0.00    +0.318 C 
ATOM     16  O   LIG    1       26.688 -25.344   6.933  0.00  0.00    -0.250 OA
BRANCH  15  17
ATOM     17  C   LIG    1       24.491 -24.778   6.037  0.00  0.00    +0.060 C 
ATOM     18  C   LIG    1       23.347 -24.016   6.716  0.00  0.00    +0.022 C 
ATOM     19  C   LIG    1       24.134 -26.284   6.040  0.00  0.00    +0.022 C 
ATOM     20  C   LIG    1       24.660 -24.339   4.579  0.00  0.00    +0.022 C 
ENDBRANCH  15  17
ENDBRANCH  14  15
ENDBRANCH   3  14
BRANCH   4  21
ATOM     21  O   LIG    1       24.990 -21.283   5.319  0.00  0.00    -0.422 OA
BRANCH  21  22
ATOM     22  C   LIG    1       23.885 -20.599   5.861  0.00  0.00    +0.318 C 
ATOM     23  O   LIG    1       23.688 -20.359   7.043  0.00  0.00    -0.250 OA
BRANCH  22  24
ATOM     24  C   LIG    1       22.924 -20.211   4.723  0.00  0.00    +0.060 C 
ATOM     25  C   LIG    1       22.423 -18.771   4.945  0.00  0.00    +0.022 C 
ATOM     26  C   LIG    1       21.708 -21.154   4.720  0.00  0.00    +0.022 C 
ATOM     27  C   LIG    1       23.672 -20.286   3.392  0.00  0.00    +0.022 C 
ENDBRANCH  22  24
ENDBRANCH  21  22
ENDBRANCH   4  21
TORSDOF 10
ENDMDL
MODEL 4
REMARK VINA RESULT:      -7.6      3.171      6.893
REMARK  Name = *****
REMARK                            x       y       z     vdW  Elec       q    Type
REMARK                         _______ _______ _______ _____ _____    ______ ____
ROOT
ATOM      1  C   LIG    1       24.955 -25.313   6.574  0.00  0.00    -0.014 A 
ATOM      2  C   LIG    1       26.077 -24.455   6.688  0.00  0.00    +0.056 A 
ATOM      3  C   LIG    1       25.917 -23.053   6.741  0.00  0.00    +0.174 A 
ATOM      4  C   LIG    1       24.638 -22.511   6.621  0.00  0.00    +0.174 A 
ATOM      5  C   LIG    1       23.547 -23.345   6.373  0.00  0.00    +0.050 A 
ATOM      6  C   LIG    1       23.699 -24.726   6.378  0.00  0.00    +0.010 A 
ENDROOT
BRANCH   1   7
ATOM      7  C   LIG    1       25.084 -26.831   6.673  0.00  0.00    +0.158 C 
BRANCH   7   8
ATOM      8  O   LIG    1       26.377 -27.202   7.191  0.00  0.00    -0.386 OA
ATOM      9  H   LIG    1       27.033 -26.922   6.528  0.00  0.00    +0.210 HD
ENDBRANCH   7   8
BRANCH   7  10
ATOM     10  C   LIG    1       24.904 -27.533   5.298  0.00  0.00    +0.116 C 
BRANCH  10  12
ATOM     11  C   LIG    1       24.222 -29.751   5.982  0.00  0.00    +0.101 C 
ATOM     12  N   LIG    1       23.813 -28.523   5.316  0.00  0.00    -0.316 NA
ATOM     13  H   LIG    1       22.997 -28.120   5.780  0.00  0.00    +0.122 HD
ENDBRANCH  10  12
ENDBRANCH   7  10
ENDBRANCH   1   7
BRANCH   3  14
ATOM     14  O   LIG    1       27.108 -22.283   6.879  0.00  0.00    -0.422 OA
BRANCH  14  15
ATOM     15  C   LIG    1       27.451 -21.414   7.931  0.00  0.00    +0.318 C 
ATOM     16  O   LIG    1       26.807 -21.270   8.974  0.00  0.00    -0.250 OA
BRANCH  15  17
ATOM     17  C   LIG    1       28.779 -20.700   7.657  0.00  0.00    +0.060 C 
ATOM     18  C   LIG    1       29.920 -21.529   8.260  0.00  0.00    +0.022 C 
ATOM     19  C   LIG    1       28.811 -19.294   8.303  0.00  0.00    +0.022 C 
ATOM     20  C   LIG    1       28.961 -20.525   6.146  0.00  0.00    +0.022 C 
ENDBRANCH  15  17
ENDBRANCH  14  15
ENDBRANCH   3  14
BRANCH   4  21
ATOM     21  O   LIG    1       24.410 -21.134   6.630  0.00  0.00    -0.422 OA
BRANCH  21  22
ATOM     22  C   LIG    1       23.499 -20.646   5.674  0.00  0.00    +0.318 C 
ATOM     23  O   LIG    1       22.284 -20.585   5.793  0.00  0.00    -0.250 OA
BRANCH  22  24
ATOM     24  C   LIG    1       24.272 -20.212   4.415  0.00  0.00    +0.060 C 
ATOM     25  C   LIG    1       24.225 -21.344   3.371  0.00  0.00    +0.022 C 
ATOM     26  C   LIG    1       25.743 -19.940   4.772  0.00  0.00    +0.022 C 
ATOM     27  C   LIG    1       23.614 -18.961   3.833  0.00  0.00    +0.022 C 
ENDBRANCH  22  24
ENDBRANCH  21  22
ENDBRANCH   4  21
TORSDOF 10
ENDMDL
MODEL 5
REMARK VINA RESULT:      -7.5      2.993      6.071
REMARK  Name = *****
REMARK                            x       y       z     vdW  Elec       q    Type
REMARK                         _______ _______ _______ _____ _____    ______ ____
ROOT
ATOM      1  C   LIG    1       25.233 -24.808   6.014  0.00  0.00    -0.014 A 
ATOM      2  C   LIG    1       24.752 -23.824   5.114  0.00  0.00    +0.056 A 
ATOM      3  C   LIG    1       25.050 -22.457   5.304  0.00  0.00    +0.174 A 
ATOM      4  C   LIG    1       25.779 -22.071   6.428  0.00  0.00    +0.174 A 
ATOM      5  C   LIG    1       26.139 -23.020   7.385  0.00  0.00    +0.050 A 
ATOM      6  C   LIG    1       25.895 -24.370   7.168  0.00  0.00    +0.010 A 
ENDROOT
BRANCH   1   7
ATOM      7  C   LIG    1       25.062 -26.301   5.748  0.00  0.00    +0.158 C 
BRANCH   7   8
ATOM      8  O   LIG    1       23.668 -26.640   5.609  0.00  0.00    -0.386 OA
ATOM      9  H   LIG    1       23.163 -25.905   5.998  0.00  0.00    +0.210 HD
ENDBRANCH   7   8
BRANCH   7  10
ATOM     10  C   LIG    1       25.652 -27.177   6.889  0.00  0.00    +0.116 C 
BRANCH  10  12
ATOM     11  C   LIG    1       24.876 -29.376   7.534  0.00  0.00    +0.101 C 
ATOM     12  N   LIG    1       25.636 -28.613   6.556  0.00  0.00    -0.316 NA
ATOM     13  H   LIG    1       25.242 -28.739   5.621  0.00  0.00    +0.122 HD
ENDBRANCH  10  12
ENDBRANCH   7  10
ENDBRANCH   1   7
BRANCH   3  14
ATOM     14  O   LIG    1       24.536 -21.555   4.328  0.00  0.00    -0.422 OA
BRANCH  14  15
ATOM     15  C   LIG    1       24.229 -20.192   4.497  0.00  0.00    +0.318 C 
ATOM     16  O   LIG    1       24.938 -19.252   4.129  0.00  0.00    -0.250 OA
BRANCH  15  17
ATOM     17  C   LIG    1       22.853 -20.006   5.146  0.00  0.00    +0.060 C 
ATOM     18  C   LIG    1       23.010 -20.081   6.669  0.00  0.00    +0.022 C 
ATOM     19  C   LIG    1       21.865 -21.114   4.708  0.00  0.00    +0.022 C 
ATOM     20  C   LIG    1       22.265 -18.658   4.716  0.00  0.00    +0.022 C 
ENDBRANCH  15  17
ENDBRANCH  14  15
ENDBRANCH   3  14
BRANCH   4  21
ATOM     21  O   LIG    1       26.080 -20.735   6.696  0.00  0.00    -0.422 OA
BRANCH  21  22
ATOM     22  C   LIG    1       26.942 -20.496   7.782  0.00  0.00    +0.318 C 
ATOM     23  O   LIG    1       26.640 -20.508   8.967  0.00  0.00    -0.250 OA
BRANCH  22  24
ATOM     24  C   LIG    1       28.352 -20.181   7.248  0.00  0.00    +0.060 C 
ATOM     25  C   LIG    1       29.228 -21.445   7.339  0.00  0.00    +0.022 C 
ATOM     26  C   LIG    1       29.001 -19.077   8.101  0.00  0.00    +0.022 C 
ATOM     27  C   LIG    1       28.245 -19.745   5.787  0.00  0.00    +0.022 C 
ENDBRANCH  22  24
ENDBRANCH  21  22
ENDBRANCH   4  21
TORSDOF 10
ENDMDL
MODEL 6
REMARK VINA RESULT:      -7.4      1.542      4.188
REMARK  Name = *****
REMARK                            x       y       z     vdW  Elec       q    Type
REMARK                         _______ _______ _______ _____ _____    ______ ____
ROOT
ATOM      1  C   LIG    1       27.755 -20.788   7.359  0.00  0.00    -0.014 A 
ATOM      2  C   LIG    1       26.930 -21.872   7.751  0.00  0.00    +0.056 A 
ATOM      3  C   LIG    1       25.841 -22.283   6.952  0.00  0.00    +0.174 A 
ATOM      4  C   LIG    1       25.543 -21.568   5.791  0.00  0.00    +0.174 A 
ATOM      5  C   LIG    1       26.269 -20.420   5.474  0.00  0.00    +0.050 A 
ATOM      6  C   LIG    1       27.375 -20.052   6.229  0.00  0.00    +0.010 A 
ENDROOT
BRANCH   1   7
ATOM      7  C   LIG    1       29.029 -20.424   8.117  0.00  0.00    +0.158 C 
BRANCH   7   8
ATOM      8  O   LIG    1       28.860 -19.188   8.838  0.00  0.00    -0.386 OA
ATOM      9  H   LIG    1       28.096 -19.312   9.429  0.00  0.00    +0.210 HD
ENDBRANCH   7   8
BRANCH   7  10
ATOM     10  C   LIG    1       30.253 -20.260   7.174  0.00  0.00    +0.116 C 
BRANCH  10  12
ATOM     11  C   LIG    1       31.302 -21.579   8.912  0.00  0.00    +0.101 C 
ATOM     12  N   LIG    1       31.519 -20.623   7.835  0.00  0.00    -0.316 NA
ATOM     13  H   LIG    1       32.165 -21.008   7.142  0.00  0.00    +0.122 HD
ENDBRANCH  10  12
ENDBRANCH   7  10
ENDBRANCH   1   7
BRANCH   3  14
ATOM     14  O   LIG    1       25.091 -23.397   7.426  0.00  0.00    -0.422 OA
BRANCH  14  15
ATOM     15  C   LIG    1       24.196 -24.202   6.697  0.00  0.00    +0.318 C 
ATOM     16  O   LIG    1       22.984 -23.997   6.585  0.00  0.00    -0.250 OA
BRANCH  15  17
ATOM     17  C   LIG    1       24.925 -25.348   5.989  0.00  0.00    +0.060 C 
ATOM     18  C   LIG    1       24.149 -26.650   6.227  0.00  0.00    +0.022 C 
ATOM     19  C   LIG    1       26.359 -25.535   6.541  0.00  0.00    +0.022 C 
ATOM     20  C   LIG    1       25.035 -25.035   4.493  0.00  0.00    +0.022 C 
ENDBRANCH  15  17
ENDBRANCH  14  15
ENDBRANCH   3  14
BRANCH   4  21
ATOM     21  O   LIG    1       24.461 -21.897   4.974  0.00  0.00    -0.422 OA
BRANCH  21  22
ATOM     22  C   LIG    1       23.888 -20.839   4.242  0.00  0.00    +0.318 C 
ATOM     23  O   LIG    1       24.298 -20.381   3.185  0.00  0.00    -0.250 OA
BRANCH  22  24
ATOM     24  C   LIG    1       22.655 -20.311   4.998  0.00  0.00    +0.060 C 
ATOM     25  C   LIG    1       21.440 -21.204   4.681  0.00  0.00    +0.022 C 
ATOM     26  C   LIG    1       22.337 -18.876   4.544  0.00  0.00    +0.022 C 
ATOM     27  C   LIG    1       22.935 -20.356   6.500  0.00  0.00    +0.022 C 
ENDBRANCH  22  24
ENDBRANCH  21  22
ENDBRANCH   4  21
TORSDOF 10
ENDMDL
MODEL 7
REMARK VINA RESULT:      -7.3      2.688      6.033
REMARK  Name = *****
REMARK                            x       y       z     vdW  Elec       q    Type
REMARK                         _______ _______ _______ _____ _____    ______ ____
ROOT
ATOM      1  C   LIG    1       25.188 -23.894   5.993  0.00  0.00    -0.014 A 
ATOM      2  C   LIG    1       24.858 -22.648   5.404  0.00  0.00    +0.056 A 
ATOM      3  C   LIG    1       25.519 -21.462   5.792  0.00  0.00    +0.174 A 
ATOM      4  C   LIG    1       26.467 -21.517   6.813  0.00  0.00    +0.174 A 
ATOM      5  C   LIG    1       26.697 -22.717   7.487  0.00  0.00    +0.050 A 
ATOM      6  C   LIG    1       26.089 -23.892   7.066  0.00  0.00    +0.010 A 
ENDROOT
BRANCH   1   7
ATOM      7  C   LIG    1       24.606 -25.210   5.484  0.00  0.00    +0.158 C 
BRANCH   7   8
ATOM      8  O   LIG    1       23.655 -25.747   6.425  0.00  0.00    -0.386 OA
ATOM      9  H   LIG    1       22.806 -25.310   6.243  0.00  0.00    +0.210 HD
ENDBRANCH   7   8
BRANCH   7  10
ATOM     10  C   LIG    1       25.699 -26.288   5.245  0.00  0.00    +0.116 C 
BRANCH  10  12
ATOM     11  C   LIG    1       25.210 -28.658   5.291  0.00  0.00    +0.101 C 
ATOM     12  N   LIG    1       25.504 -27.478   6.092  0.00  0.00    -0.316 NA
ATOM     13  H   LIG    1       26.341 -27.631   6.658  0.00  0.00    +0.122 HD
ENDBRANCH  10  12
ENDBRANCH   7  10
ENDBRANCH   1   7
BRANCH   3  14
ATOM     14  O   LIG    1       25.127 -20.268   5.120  0.00  0.00    -0.422 OA
BRANCH  14  15
ATOM     15  C   LIG    1       24.059 -20.103   4.218  0.00  0.00    +0.318 C 
ATOM     16  O   LIG    1       24.137 -20.224   2.993  0.00  0.00    -0.250 OA
BRANCH  15  17
ATOM     17  C   LIG    1       22.746 -19.814   4.954  0.00  0.00    +0.060 C 
ATOM     18  C   LIG    1       21.711 -20.873   4.552  0.00  0.00    +0.022 C 
ATOM     19  C   LIG    1       22.181 -18.422   4.580  0.00  0.00    +0.022 C 
ATOM     20  C   LIG    1       22.995 -19.829   6.465  0.00  0.00    +0.022 C 
ENDBRANCH  15  17
ENDBRANCH  14  15
ENDBRANCH   3  14
BRANCH   4  21
ATOM     21  O   LIG    1       27.133 -20.379   7.270  0.00  0.00    -0.422 OA
BRANCH  21  22
ATOM     22  C   LIG    1       28.252 -19.968   6.521  0.00  0.00    +0.318 C 
ATOM     23  O   LIG    1       28.281 -19.748   5.319  0.00  0.00    -0.250 OA
BRANCH  22  24
ATOM     24  C   LIG    1       29.472 -19.858   7.455  0.00  0.00    +0.060 C 
ATOM     25  C   LIG    1       30.680 -19.329   6.658  0.00  0.00    +0.022 C 
ATOM     26  C   LIG    1       29.828 -21.245   8.016  0.00  0.00    +0.022 C 
ATOM     27  C   LIG    1       29.147 -18.882   8.586  0.00  0.00    +0.022 C 
ENDBRANCH  22  24
ENDBRANCH  21  22
ENDBRANCH   4  21
TORSDOF 10
ENDMDL
MODEL 8
REMARK VINA RESULT:      -6.8      2.512      5.058
REMARK  Name = *****
REMARK                            x       y       z     vdW  Elec       q    Type
REMARK                         _______ _______ _______ _____ _____    ______ ____
ROOT
ATOM      1  C   LIG    1       24.638 -19.701   4.283  0.00  0.00    -0.014 A 
ATOM      2  C   LIG    1       25.751 -20.057   5.085  0.00  0.00    +0.056 A 
ATOM      3  C   LIG    1       25.658 -21.097   6.036  0.00  0.00    +0.174 A 
ATOM      4  C   LIG    1       24.434 -21.738   6.223  0.00  0.00    +0.174 A 
ATOM      5  C   LIG    1       23.305 -21.300   5.531  0.00  0.00    +0.050 A 
ATOM      6  C   LIG    1       23.411 -20.317   4.556  0.00  0.00    +0.010 A 
ENDROOT
BRANCH   1   7
ATOM      7  C   LIG    1       24.753 -18.694   3.141  0.00  0.00    +0.158 C 
BRANCH   7   8
ATOM      8  O   LIG    1       25.855 -19.027   2.274  0.00  0.00    -0.386 OA
ATOM      9  H   LIG    1       25.800 -19.984   2.107  0.00  0.00    +0.210 HD
ENDBRANCH   7   8
BRANCH   7  10
ATOM     10  C   LIG    1       24.972 -17.242   3.651  0.00  0.00    +0.116 C 
BRANCH  10  12
ATOM     11  C   LIG    1       26.293 -15.229   3.415  0.00  0.00    +0.101 C 
ATOM     12  N   LIG    1       26.230 -16.659   3.152  0.00  0.00    -0.316 NA
ATOM     13  H   LIG    1       27.021 -17.137   3.587  0.00  0.00    +0.122 HD
ENDBRANCH  10  12
ENDBRANCH   7  10
ENDBRANCH   1   7
BRANCH   3  14
ATOM     14  O   LIG    1       26.842 -21.388   6.774  0.00  0.00    -0.422 OA
BRANCH  14  15
ATOM     15  C   LIG    1       27.395 -20.648   7.835  0.00  0.00    +0.318 C 
ATOM     16  O   LIG    1       26.796 -20.320   8.862  0.00  0.00    -0.250 OA
BRANCH  15  17
ATOM     17  C   LIG    1       28.879 -20.349   7.594  0.00  0.00    +0.060 C 
ATOM     18  C   LIG    1       29.718 -21.466   8.227  0.00  0.00    +0.022 C 
ATOM     19  C   LIG    1       29.299 -19.006   8.240  0.00  0.00    +0.022 C 
ATOM     20  C   LIG    1       29.140 -20.247   6.088  0.00  0.00    +0.022 C 
ENDBRANCH  15  17
ENDBRANCH  14  15
ENDBRANCH   3  14
BRANCH   4  21
ATOM     21  O   LIG    1       24.262 -22.749   7.169  0.00  0.00    -0.422 OA
BRANCH  21  22
ATOM     22  C   LIG    1       23.620 -23.920   6.722  0.00  0.00    +0.318 C 
ATOM     23  O   LIG    1       22.422 -24.154   6.768  0.00  0.00    -0.250 OA
BRANCH  22  24
ATOM     24  C   LIG    1       24.677 -24.898   6.176  0.00  0.00    +0.060 C 
ATOM     25  C   LIG    1       24.920 -24.608   4.682  0.00  0.00    +0.022 C 
ATOM     26  C   LIG    1       24.173 -26.344   6.315  0.00  0.00    +0.022 C 
ATOM     27  C   LIG    1       25.983 -24.701   6.947  0.00  0.00    +0.022 C 
ENDBRANCH  22  24
ENDBRANCH  21  22
ENDBRANCH   4  21
TORSDOF 10
ENDMDL
MODEL 9
REMARK VINA RESULT:      -6.8      3.018      6.619
REMARK  Name = *****
REMARK                            x       y       z     vdW  Elec       q    Type
REMARK                         _______ _______ _______ _____ _____    ______ ____
ROOT
ATOM      1  C   LIG    1       25.314 -26.535   6.428  0.00  0.00    -0.014 A 
ATOM      2  C   LIG    1       26.224 -25.472   6.653  0.00  0.00    +0.056 A 
ATOM      3  C   LIG    1       25.781 -24.131   6.686  0.00  0.00    +0.174 A 
ATOM      4  C   LIG    1       24.438 -23.854   6.434  0.00  0.00    +0.174 A 
ATOM      5  C   LIG    1       23.567 -24.886   6.080  0.00  0.00    +0.050 A 
ATOM      6  C   LIG    1       23.992 -26.208   6.105  0.00  0.00    +0.010 A 
ENDROOT
BRANCH   1   7
ATOM      7  C   LIG    1       25.735 -27.998   6.545  0.00  0.00    +0.158 C 
BRANCH   7   8
ATOM      8  O   LIG    1       24.937 -28.831   5.681  0.00  0.00    -0.386 OA
ATOM      9  H   LIG    1       24.008 -28.685   5.933  0.00  0.00    +0.210 HD
ENDBRANCH   7   8
BRANCH   7  10
ATOM     10  C   LIG    1       25.591 -28.542   7.994  0.00  0.00    +0.116 C 
BRANCH  10  12
ATOM     11  C   LIG    1       26.731 -29.067  10.063  0.00  0.00    +0.101 C 
ATOM     12  N   LIG    1       26.843 -28.424   8.762  0.00  0.00    -0.316 NA
ATOM     13  H   LIG    1       27.609 -28.836   8.225  0.00  0.00    +0.122 HD
ENDBRANCH  10  12
ENDBRANCH   7  10
ENDBRANCH   1   7
BRANCH   3  14
ATOM     14  O   LIG    1       26.774 -23.142   6.941  0.00  0.00    -0.422 OA
BRANCH  14  15
ATOM     15  C   LIG    1       26.703 -22.071   7.852  0.00  0.00    +0.318 C 
ATOM     16  O   LIG    1       26.073 -22.080   8.913  0.00  0.00    -0.250 OA
BRANCH  15  17
ATOM     17  C   LIG    1       27.571 -20.893   7.398  0.00  0.00    +0.060 C 
ATOM     18  C   LIG    1       28.990 -21.403   7.119  0.00  0.00    +0.022 C 
ATOM     19  C   LIG    1       27.660 -19.800   8.491  0.00  0.00    +0.022 C 
ATOM     20  C   LIG    1       26.955 -20.258   6.148  0.00  0.00    +0.022 C 
ENDBRANCH  15  17
ENDBRANCH  14  15
ENDBRANCH   3  14
BRANCH   4  21
ATOM     21  O   LIG    1       23.938 -22.551   6.417  0.00  0.00    -0.422 OA
BRANCH  21  22
ATOM     22  C   LIG    1       23.993 -21.879   5.181  0.00  0.00    +0.318 C 
ATOM     23  O   LIG    1       24.640 -22.213   4.199  0.00  0.00    -0.250 OA
BRANCH  22  24
ATOM     24  C   LIG    1       23.116 -20.615   5.254  0.00  0.00    +0.060 C 
ATOM     25  C   LIG    1       23.084 -20.099   6.706  0.00  0.00    +0.022 C 
ATOM     26  C   LIG    1       21.677 -20.951   4.825  0.00  0.00    +0.022 C 
ATOM     27  C   LIG    1       23.715 -19.540   4.349  0.00  0.00    +0.022 C 
ENDBRANCH  22  24
ENDBRANCH  21  22
ENDBRANCH   4  21
TORSDOF 10
ENDMDL
