MODEL 1
REMARK VINA RESULT:       5.4      0.000      0.000
REMARK  Name = *****
REMARK                            x       y       z     vdW  Elec       q    Type
REMARK                         _______ _______ _______ _____ _____    ______ ____
ROOT
ATOM      1  C   LIG    1       23.993 -18.623   4.528  0.00  0.00    +0.064 A 
ATOM      2  C   LIG    1       23.260 -17.442   4.289  0.00  0.00    +0.049 A 
ATOM      3  I   LIG    1       21.477 -17.883   3.052  0.00  0.00    -0.041 I 
ATOM      4  C   LIG    1       23.876 -16.183   4.011  0.00  0.00    +0.065 A 
ATOM      5  C   LIG    1       25.246 -16.190   3.605  0.00  0.00    +0.040 A 
ATOM      6  I   LIG    1       25.778 -14.653   2.240  0.00  0.00    -0.042 I 
ATOM      7  C   LIG    1       26.023 -17.380   3.663  0.00  0.00    +0.065 A 
ATOM      8  C   LIG    1       25.316 -18.587   3.990  0.00  0.00    +0.049 A 
ATOM      9  I   LIG    1       25.330 -19.523   1.815  0.00  0.00    -0.041 I 
ENDROOT
BRANCH   7  10
ATOM     10  C   LIG    1       27.428 -17.445   4.275  0.00  0.00    +0.246 C 
ATOM     11  N   LIG    1       27.925 -18.590   4.852  0.00  0.00    -0.309 N 
ATOM     12  H   LIG    1       27.296 -19.373   4.993  0.00  0.00    +0.149 HD
ATOM     13  O   LIG    1       28.152 -16.446   4.111  0.00  0.00    -0.270 OA
BRANCH  11  14
ATOM     14  C   LIG    1       29.262 -18.688   5.494  0.00  0.00    +0.132 C 
BRANCH  14  15
ATOM     15  C   LIG    1       29.436 -19.642   6.693  0.00  0.00    +0.174 C 
BRANCH  15  16
ATOM     16  O   LIG    1       29.392 -21.006   6.270  0.00  0.00    -0.394 OA
ATOM     17  H   LIG    1       28.447 -21.234   6.213  0.00  0.00    +0.209 HD
ENDBRANCH  15  16
ENDBRANCH  14  15
ENDBRANCH  11  14
ENDBRANCH   7  10
BRANCH   1  20
ATOM     18  C   LIG    1       22.367 -21.571   6.532  0.00  0.00    +0.110 C 
ATOM     19  C   LIG    1       22.545 -20.465   5.472  0.00  0.00    +0.217 C 
ATOM     20  N   LIG    1       23.635 -19.560   5.646  0.00  0.00    -0.267 N 
ATOM     21  O   LIG    1       21.741 -20.411   4.563  0.00  0.00    -0.276 OA
BRANCH  20  22
ATOM     22  C   LIG    1       24.497 -19.774   6.862  0.00  0.00    +0.147 C 
BRANCH  22  23
ATOM     23  C   LIG    1       25.692 -20.745   6.907  0.00  0.00    +0.158 C 
BRANCH  23  24
ATOM     24  O   LIG    1       26.937 -20.086   7.062  0.00  0.00    -0.388 OA
ATOM     25  H   LIG    1       26.764 -19.126   7.023  0.00  0.00    +0.210 HD
ENDBRANCH  23  24
BRANCH  23  26
ATOM     26  C   LIG    1       25.896 -21.571   5.646  0.00  0.00    +0.188 C 
BRANCH  26  27
ATOM     27  O   LIG    1       26.933 -20.964   4.874  0.00  0.00    -0.392 OA
ATOM     28  H   LIG    1       26.529 -20.670   4.039  0.00  0.00    +0.209 HD
ENDBRANCH  26  27
ENDBRANCH  23  26
ENDBRANCH  22  23
ENDBRANCH  20  22
ENDBRANCH   1  20
BRANCH   4  29
ATOM     29  C   LIG    1       23.330 -14.955   4.728  0.00  0.00    +0.246 C 
ATOM     30  N   LIG    1       23.949 -13.707   4.680  0.00  0.00    -0.309 N 
ATOM     31  H   LIG    1       23.431 -12.969   5.167  0.00  0.00    +0.149 HD
ATOM     32  O   LIG    1       22.272 -15.053   5.479  0.00  0.00    -0.270 OA
BRANCH  30  33
ATOM     33  C   LIG    1       25.205 -13.233   4.061  0.00  0.00    +0.138 C 
BRANCH  33  34
ATOM     34  C   LIG    1       26.400 -12.904   4.996  0.00  0.00    +0.157 C 
BRANCH  34  35
ATOM     35  O   LIG    1       26.282 -13.515   6.269  0.00  0.00    -0.388 OA
ATOM     36  H   LIG    1       27.069 -13.213   6.769  0.00  0.00    +0.210 HD
ENDBRANCH  34  35
BRANCH  34  37
ATOM     37  C   LIG    1       27.698 -13.348   4.428  0.00  0.00    +0.188 C 
BRANCH  37  38
ATOM     38  O   LIG    1       28.861 -12.636   4.765  0.00  0.00    -0.392 OA
ATOM     39  H   LIG    1       29.441 -12.749   3.977  0.00  0.00    +0.209 HD
ENDBRANCH  37  38
ENDBRANCH  34  37
ENDBRANCH  33  34
ENDBRANCH  30  33
ENDBRANCH   4  29
TORSDOF 16
ENDMDL
