MODEL 1
REMARK VINA RESULT:      -8.5      0.000      0.000
REMARK  Name = *****
REMARK                            x       y       z     vdW  Elec       q    Type
REMARK                         _______ _______ _______ _____ _____    ______ ____
ROOT
ATOM      1  C   LIG    1       24.178 -21.860   5.520  0.00  0.00    +0.201 C 
ATOM      2  C   LIG    1       24.451 -20.844   4.403  0.00  0.00    +0.181 C 
ATOM      3  C   LIG    1       25.894 -20.458   4.662  0.00  0.00    +0.195 C 
ATOM      4  C   LIG    1       25.907 -20.429   6.194  0.00  0.00    +0.253 C 
ATOM      5  O   LIG    1       25.008 -21.463   6.648  0.00  0.00    -0.343 OA
ENDROOT
BRANCH   4   6
ATOM      6  N   LIG    1       27.192 -20.621   6.834  0.00  0.00    -0.285 N 
ATOM      7  C   LIG    1       28.363 -19.958   6.588  0.00  0.00    +0.167 A 
ATOM      8  N   LIG    1       28.604 -19.019   5.658  0.00  0.00    -0.216 NA
ATOM      9  C   LIG    1       29.866 -18.561   5.735  0.00  0.00    +0.225 A 
ATOM     10  N   LIG    1       30.835 -18.937   6.589  0.00  0.00    -0.219 NA
ATOM     11  C   LIG    1       30.547 -19.879   7.515  0.00  0.00    +0.147 A 
ATOM     12  C   LIG    1       29.258 -20.442   7.527  0.00  0.00    +0.147 A 
ATOM     13  N   LIG    1       28.669 -21.413   8.309  0.00  0.00    -0.231 NA
ATOM     14  C   LIG    1       27.433 -21.501   7.860  0.00  0.00    +0.203 A 
BRANCH  11  15
ATOM     15  N   LIG    1       31.549 -20.242   8.404  0.00  0.00    -0.341 N 
ATOM     16  H   LIG    1       32.451 -20.377   7.964  0.00  0.00    +0.144 HD
ATOM     17  H   LIG    1       31.516 -19.696   9.255  0.00  0.00    +0.144 HD
ENDBRANCH  11  15
ENDBRANCH   4   6
BRANCH   2  18
ATOM     18  O   LIG    1       23.628 -19.682   4.563  0.00  0.00    -0.386 OA
ATOM     19  H   LIG    1       23.043 -19.893   5.321  0.00  0.00    +0.210 HD
ENDBRANCH   2  18
BRANCH   3  20
ATOM     20  O   LIG    1       26.220 -19.208   4.056  0.00  0.00    -0.385 OA
ATOM     21  H   LIG    1       26.900 -18.792   4.620  0.00  0.00    +0.210 HD
ENDBRANCH   3  20
BRANCH   1  22
ATOM     22  C   LIG    1       24.580 -23.293   5.142  0.00  0.00    +0.311 C 
BRANCH  22  24
ATOM     23  C   LIG    1       25.969 -24.711   6.993  0.00  0.00    +0.340 C 
ATOM     24  S   LIG    1       24.242 -24.474   6.481  0.00  0.00    -0.011 S 
BRANCH  24  25
ATOM     25  C   LIG    1       24.096 -26.009   5.499  0.00  0.00    +0.280 C 
BRANCH  25  26
ATOM     26  C   LIG    1       25.217 -27.012   5.806  0.00  0.00    +0.084 C 
BRANCH  26  27
ATOM     27  CA  LIG    1       24.772 -28.228   6.633  0.00  0.00    +0.165 C 
BRANCH  27  28
ATOM     28  N   LIG    1       25.813 -28.568   7.661  0.00  0.00    -0.318 NA
ATOM     29  H1  LIG    1       25.674 -27.950   8.468  0.00  0.00    +0.119 HD
ATOM     30  H2  LIG    1       26.730 -28.298   7.297  0.00  0.00    +0.119 HD
ENDBRANCH  27  28
BRANCH  27  31
ATOM     31  C   LIG    1       24.504 -29.488   5.783  0.00  0.00    +0.322 C 
ATOM     32  O   LIG    1       25.344 -30.286   5.433  0.00  0.00    -0.249 OA
BRANCH  31  33
ATOM     33  OXT LIG    1       23.197 -29.585   5.419  0.00  0.00    -0.479 OA
ATOM     34  HXT LIG    1       23.135 -29.221   4.503  0.00  0.00    +0.295 HD
ENDBRANCH  31  33
ENDBRANCH  27  31
ENDBRANCH  26  27
ENDBRANCH  25  26
ENDBRANCH  24  25
ENDBRANCH  22  24
ENDBRANCH   1  22
TORSDOF 12
ENDMDL
MODEL 2
REMARK VINA RESULT:      -8.2      1.050      1.196
REMARK  Name = *****
REMARK                            x       y       z     vdW  Elec       q    Type
REMARK                         _______ _______ _______ _____ _____    ______ ____
ROOT
ATOM      1  C   LIG    1       24.178 -21.883   5.539  0.00  0.00    +0.201 C 
ATOM      2  C   LIG    1       24.438 -20.861   4.425  0.00  0.00    +0.181 C 
ATOM      3  C   LIG    1       25.881 -20.471   4.673  0.00  0.00    +0.195 C 
ATOM      4  C   LIG    1       25.907 -20.450   6.205  0.00  0.00    +0.253 C 
ATOM      5  O   LIG    1       25.016 -21.489   6.662  0.00  0.00    -0.343 OA
ENDROOT
BRANCH   4   6
ATOM      6  N   LIG    1       27.198 -20.640   6.833  0.00  0.00    -0.285 N 
ATOM      7  C   LIG    1       28.365 -19.972   6.579  0.00  0.00    +0.167 A 
ATOM      8  N   LIG    1       28.595 -19.029   5.651  0.00  0.00    -0.216 NA
ATOM      9  C   LIG    1       29.856 -18.567   5.719  0.00  0.00    +0.225 A 
ATOM     10  N   LIG    1       30.834 -18.943   6.562  0.00  0.00    -0.219 NA
ATOM     11  C   LIG    1       30.556 -19.889   7.488  0.00  0.00    +0.147 A 
ATOM     12  C   LIG    1       29.270 -20.456   7.509  0.00  0.00    +0.147 A 
ATOM     13  N   LIG    1       28.690 -21.432   8.292  0.00  0.00    -0.231 NA
ATOM     14  C   LIG    1       27.451 -21.523   7.854  0.00  0.00    +0.203 A 
BRANCH  11  15
ATOM     15  N   LIG    1       31.567 -20.252   8.367  0.00  0.00    -0.341 N 
ATOM     16  H   LIG    1       31.645 -19.639   9.169  0.00  0.00    +0.144 HD
ATOM     17  H   LIG    1       31.585 -21.249   8.532  0.00  0.00    +0.144 HD
ENDBRANCH  11  15
ENDBRANCH   4   6
BRANCH   2  18
ATOM     18  O   LIG    1       23.612 -19.703   4.597  0.00  0.00    -0.386 OA
ATOM     19  H   LIG    1       23.989 -19.241   5.377  0.00  0.00    +0.210 HD
ENDBRANCH   2  18
BRANCH   3  20
ATOM     20  O   LIG    1       26.198 -19.217   4.070  0.00  0.00    -0.385 OA
ATOM     21  H   LIG    1       26.028 -18.531   4.744  0.00  0.00    +0.210 HD
ENDBRANCH   3  20
BRANCH   1  22
ATOM     22  C   LIG    1       24.582 -23.313   5.150  0.00  0.00    +0.311 C 
BRANCH  22  24
ATOM     23  C   LIG    1       25.967 -24.786   6.961  0.00  0.00    +0.340 C 
ATOM     24  S   LIG    1       24.237 -24.506   6.477  0.00  0.00    -0.011 S 
BRANCH  24  25
ATOM     25  C   LIG    1       24.045 -26.023   5.476  0.00  0.00    +0.280 C 
BRANCH  25  26
ATOM     26  C   LIG    1       25.327 -26.866   5.434  0.00  0.00    +0.084 C 
BRANCH  26  27
ATOM     27  CA  LIG    1       25.109 -28.367   5.679  0.00  0.00    +0.165 C 
BRANCH  27  28
ATOM     28  N   LIG    1       23.816 -28.814   5.060  0.00  0.00    -0.318 NA
ATOM     29  H1  LIG    1       23.056 -28.282   5.497  0.00  0.00    +0.119 HD
ATOM     30  H2  LIG    1       23.637 -29.781   5.342  0.00  0.00    +0.119 HD
ENDBRANCH  27  28
BRANCH  27  31
ATOM     31  C   LIG    1       25.086 -28.751   7.174  0.00  0.00    +0.322 C 
ATOM     32  O   LIG    1       24.216 -29.394   7.716  0.00  0.00    -0.249 OA
BRANCH  31  33
ATOM     33  OXT LIG    1       26.150 -28.235   7.846  0.00  0.00    -0.479 OA
ATOM     34  HXT LIG    1       26.070 -27.254   7.785  0.00  0.00    +0.295 HD
ENDBRANCH  31  33
ENDBRANCH  27  31
ENDBRANCH  26  27
ENDBRANCH  25  26
ENDBRANCH  24  25
ENDBRANCH  22  24
ENDBRANCH   1  22
TORSDOF 12
ENDMDL
MODEL 3
REMARK VINA RESULT:      -7.0      3.764      5.577
REMARK  Name = *****
REMARK                            x       y       z     vdW  Elec       q    Type
REMARK                         _______ _______ _______ _____ _____    ______ ____
ROOT
ATOM      1  C   LIG    1       28.656 -19.362   6.791  0.00  0.00    +0.201 C 
ATOM      2  C   LIG    1       29.972 -19.629   6.048  0.00  0.00    +0.181 C 
ATOM      3  C   LIG    1       31.006 -19.406   7.133  0.00  0.00    +0.195 C 
ATOM      4  C   LIG    1       30.389 -18.214   7.871  0.00  0.00    +0.253 C 
ATOM      5  O   LIG    1       28.956 -18.374   7.816  0.00  0.00    -0.343 OA
ENDROOT
BRANCH   4   6
ATOM      6  N   LIG    1       30.780 -18.035   9.254  0.00  0.00    -0.285 N 
ATOM      7  C   LIG    1       31.605 -17.078   9.779  0.00  0.00    +0.167 A 
ATOM      8  N   LIG    1       32.284 -16.121   9.126  0.00  0.00    -0.216 NA
ATOM      9  C   LIG    1       32.963 -15.331   9.976  0.00  0.00    +0.225 A 
ATOM     10  N   LIG    1       33.025 -15.413  11.318  0.00  0.00    -0.219 NA
ATOM     11  C   LIG    1       32.317 -16.386  11.935  0.00  0.00    +0.147 A 
ATOM     12  C   LIG    1       31.572 -17.283  11.148  0.00  0.00    +0.147 A 
ATOM     13  N   LIG    1       30.782 -18.369  11.461  0.00  0.00    -0.231 NA
ATOM     14  C   LIG    1       30.330 -18.801  10.302  0.00  0.00    +0.203 A 
BRANCH  11  15
ATOM     15  N   LIG    1       32.370 -16.446  13.320  0.00  0.00    -0.341 N 
ATOM     16  H   LIG    1       31.634 -15.922  13.777  0.00  0.00    +0.144 HD
ATOM     17  H   LIG    1       32.558 -17.383  13.652  0.00  0.00    +0.144 HD
ENDBRANCH  11  15
ENDBRANCH   4   6
BRANCH   2  18
ATOM     18  O   LIG    1       30.175 -18.659   5.013  0.00  0.00    -0.386 OA
ATOM     19  H   LIG    1       29.642 -18.985   4.258  0.00  0.00    +0.210 HD
ENDBRANCH   2  18
BRANCH   3  20
ATOM     20  O   LIG    1       32.297 -19.143   6.584  0.00  0.00    -0.385 OA
ATOM     21  H   LIG    1       32.914 -19.078   7.337  0.00  0.00    +0.210 HD
ENDBRANCH   3  20
BRANCH   1  22
ATOM     22  C   LIG    1       28.105 -20.605   7.505  0.00  0.00    +0.311 C 
BRANCH  22  24
ATOM     23  C   LIG    1       25.673 -20.710   8.704  0.00  0.00    +0.340 C 
ATOM     24  S   LIG    1       26.381 -20.949   7.048  0.00  0.00    -0.011 S 
BRANCH  24  25
ATOM     25  C   LIG    1       26.416 -22.777   7.090  0.00  0.00    +0.280 C 
BRANCH  25  26
ATOM     26  C   LIG    1       25.393 -23.406   6.134  0.00  0.00    +0.084 C 
BRANCH  26  27
ATOM     27  CA  LIG    1       24.178 -24.038   6.831  0.00  0.00    +0.165 C 
BRANCH  27  28
ATOM     28  N   LIG    1       23.775 -25.304   6.130  0.00  0.00    -0.318 NA
ATOM     29  H1  LIG    1       24.631 -25.791   5.842  0.00  0.00    +0.119 HD
ATOM     30  H2  LIG    1       23.321 -25.057   5.247  0.00  0.00    +0.119 HD
ENDBRANCH  27  28
BRANCH  27  31
ATOM     31  C   LIG    1       22.948 -23.108   6.890  0.00  0.00    +0.322 C 
ATOM     32  O   LIG    1       22.929 -22.006   7.389  0.00  0.00    -0.249 OA
BRANCH  31  33
ATOM     33  OXT LIG    1       21.844 -23.693   6.350  0.00  0.00    -0.479 OA
ATOM     34  HXT LIG    1       21.331 -22.971   5.915  0.00  0.00    +0.295 HD
ENDBRANCH  31  33
ENDBRANCH  27  31
ENDBRANCH  26  27
ENDBRANCH  25  26
ENDBRANCH  24  25
ENDBRANCH  22  24
ENDBRANCH   1  22
TORSDOF 12
ENDMDL
MODEL 4
REMARK VINA RESULT:      -7.0      4.284      6.308
REMARK  Name = *****
REMARK                            x       y       z     vdW  Elec       q    Type
REMARK                         _______ _______ _______ _____ _____    ______ ____
ROOT
ATOM      1  C   LIG    1       28.404 -19.936   7.112  0.00  0.00    +0.201 C 
ATOM      2  C   LIG    1       29.659 -20.027   6.235  0.00  0.00    +0.181 C 
ATOM      3  C   LIG    1       30.757 -19.620   7.197  0.00  0.00    +0.195 C 
ATOM      4  C   LIG    1       30.047 -18.510   7.980  0.00  0.00    +0.253 C 
ATOM      5  O   LIG    1       28.657 -18.883   8.084  0.00  0.00    -0.343 OA
ENDROOT
BRANCH   4   6
ATOM      6  N   LIG    1       30.551 -18.232   9.310  0.00  0.00    -0.285 N 
ATOM      7  C   LIG    1       31.441 -17.265   9.688  0.00  0.00    +0.167 A 
ATOM      8  N   LIG    1       32.094 -16.389   8.907  0.00  0.00    -0.216 NA
ATOM      9  C   LIG    1       32.860 -15.556   9.633  0.00  0.00    +0.225 A 
ATOM     10  N   LIG    1       33.024 -15.530  10.968  0.00  0.00    -0.219 NA
ATOM     11  C   LIG    1       32.339 -16.424  11.718  0.00  0.00    +0.147 A 
ATOM     12  C   LIG    1       31.510 -17.355  11.068  0.00  0.00    +0.147 A 
ATOM     13  N   LIG    1       30.716 -18.384  11.530  0.00  0.00    -0.231 NA
ATOM     14  C   LIG    1       30.162 -18.893  10.449  0.00  0.00    +0.203 A 
BRANCH  11  15
ATOM     15  N   LIG    1       32.499 -16.372  13.095  0.00  0.00    -0.341 N 
ATOM     16  H   LIG    1       33.410 -16.685  13.408  0.00  0.00    +0.144 HD
ATOM     17  H   LIG    1       32.135 -15.514  13.487  0.00  0.00    +0.144 HD
ENDBRANCH  11  15
ENDBRANCH   4   6
BRANCH   2  18
ATOM     18  O   LIG    1       29.603 -19.070   5.170  0.00  0.00    -0.386 OA
ATOM     19  H   LIG    1       28.999 -18.369   5.496  0.00  0.00    +0.210 HD
ENDBRANCH   2  18
BRANCH   3  20
ATOM     20  O   LIG    1       31.927 -19.184   6.506  0.00  0.00    -0.385 OA
ATOM     21  H   LIG    1       31.821 -18.226   6.352  0.00  0.00    +0.210 HD
ENDBRANCH   3  20
BRANCH   1  22
ATOM     22  C   LIG    1       28.126 -21.225   7.900  0.00  0.00    +0.311 C 
BRANCH  22  24
ATOM     23  C   LIG    1       26.167 -23.087   7.649  0.00  0.00    +0.340 C 
ATOM     24  S   LIG    1       26.366 -21.407   8.315  0.00  0.00    -0.011 S 
BRANCH  24  25
ATOM     25  C   LIG    1       25.628 -20.524   6.895  0.00  0.00    +0.280 C 
BRANCH  25  26
ATOM     26  C   LIG    1       25.064 -21.481   5.836  0.00  0.00    +0.084 C 
BRANCH  26  27
ATOM     27  CA  LIG    1       24.807 -20.833   4.467  0.00  0.00    +0.165 C 
BRANCH  27  28
ATOM     28  N   LIG    1       25.964 -19.958   4.079  0.00  0.00    -0.318 NA
ATOM     29  H1  LIG    1       26.767 -20.565   3.880  0.00  0.00    +0.119 HD
ATOM     30  H2  LIG    1       26.256 -19.422   4.900  0.00  0.00    +0.119 HD
ENDBRANCH  27  28
BRANCH  27  31
ATOM     31  C   LIG    1       23.521 -19.981   4.419  0.00  0.00    +0.322 C 
ATOM     32  O   LIG    1       22.450 -20.307   4.877  0.00  0.00    -0.249 OA
BRANCH  31  33
ATOM     33  OXT LIG    1       23.712 -18.813   3.748  0.00  0.00    -0.479 OA
ATOM     34  HXT LIG    1       22.976 -18.744   3.094  0.00  0.00    +0.295 HD
ENDBRANCH  31  33
ENDBRANCH  27  31
ENDBRANCH  26  27
ENDBRANCH  25  26
ENDBRANCH  24  25
ENDBRANCH  22  24
ENDBRANCH   1  22
TORSDOF 12
ENDMDL
MODEL 5
REMARK VINA RESULT:      -6.9      2.958      8.066
REMARK  Name = *****
REMARK                            x       y       z     vdW  Elec       q    Type
REMARK                         _______ _______ _______ _____ _____    ______ ____
ROOT
ATOM      1  C   LIG    1       25.478 -22.316   6.367  0.00  0.00    +0.201 C 
ATOM      2  C   LIG    1       23.946 -22.341   6.433  0.00  0.00    +0.181 C 
ATOM      3  C   LIG    1       23.664 -23.764   6.871  0.00  0.00    +0.195 C 
ATOM      4  C   LIG    1       24.738 -24.520   6.081  0.00  0.00    +0.253 C 
ATOM      5  O   LIG    1       25.897 -23.663   6.009  0.00  0.00    -0.343 OA
ENDROOT
BRANCH   4   6
ATOM      6  N   LIG    1       25.147 -25.805   6.611  0.00  0.00    -0.285 N 
ATOM      7  C   LIG    1       24.730 -27.048   6.219  0.00  0.00    +0.167 A 
ATOM      8  N   LIG    1       23.807 -27.360   5.296  0.00  0.00    -0.216 NA
ATOM      9  C   LIG    1       23.687 -28.691   5.147  0.00  0.00    +0.225 A 
ATOM     10  N   LIG    1       24.353 -29.662   5.798  0.00  0.00    -0.219 NA
ATOM     11  C   LIG    1       25.282 -29.303   6.713  0.00  0.00    +0.147 A 
ATOM     12  C   LIG    1       25.490 -27.935   6.963  0.00  0.00    +0.147 A 
ATOM     13  N   LIG    1       26.325 -27.259   7.827  0.00  0.00    -0.231 NA
ATOM     14  C   LIG    1       26.087 -25.984   7.595  0.00  0.00    +0.203 A 
BRANCH  11  15
ATOM     15  N   LIG    1       25.977 -30.314   7.361  0.00  0.00    -0.341 N 
ATOM     16  H   LIG    1       25.412 -30.837   8.019  0.00  0.00    +0.144 HD
ATOM     17  H   LIG    1       26.566 -30.836   6.726  0.00  0.00    +0.144 HD
ENDBRANCH  11  15
ENDBRANCH   4   6
BRANCH   2  18
ATOM     18  O   LIG    1       23.380 -22.140   5.132  0.00  0.00    -0.386 OA
ATOM     19  H   LIG    1       23.589 -21.208   4.911  0.00  0.00    +0.210 HD
ENDBRANCH   2  18
BRANCH   3  20
ATOM     20  O   LIG    1       22.329 -24.157   6.556  0.00  0.00    -0.385 OA
ATOM     21  H   LIG    1       21.961 -24.571   7.360  0.00  0.00    +0.210 HD
ENDBRANCH   3  20
BRANCH   1  22
ATOM     22  C   LIG    1       26.133 -21.980   7.715  0.00  0.00    +0.311 C 
BRANCH  22  24
ATOM     23  C   LIG    1       26.969 -20.211   5.834  0.00  0.00    +0.340 C 
ATOM     24  S   LIG    1       27.197 -20.510   7.612  0.00  0.00    -0.011 S 
BRANCH  24  25
ATOM     25  C   LIG    1       28.828 -21.326   7.486  0.00  0.00    +0.280 C 
BRANCH  25  26
ATOM     26  C   LIG    1       29.989 -20.323   7.505  0.00  0.00    +0.084 C 
BRANCH  26  27
ATOM     27  CA  LIG    1       30.788 -20.301   8.818  0.00  0.00    +0.165 C 
BRANCH  27  28
ATOM     28  N   LIG    1       31.950 -19.356   8.704  0.00  0.00    -0.318 NA
ATOM     29  H1  LIG    1       31.605 -18.478   8.303  0.00  0.00    +0.119 HD
ATOM     30  H2  LIG    1       32.595 -19.717   7.996  0.00  0.00    +0.119 HD
ENDBRANCH  27  28
BRANCH  27  31
ATOM     31  C   LIG    1       31.330 -21.685   9.234  0.00  0.00    +0.322 C 
ATOM     32  O   LIG    1       32.198 -22.297   8.655  0.00  0.00    -0.249 OA
BRANCH  31  33
ATOM     33  OXT LIG    1       30.679 -22.178  10.322  0.00  0.00    -0.479 OA
ATOM     34  HXT LIG    1       31.132 -23.021  10.560  0.00  0.00    +0.295 HD
ENDBRANCH  31  33
ENDBRANCH  27  31
ENDBRANCH  26  27
ENDBRANCH  25  26
ENDBRANCH  24  25
ENDBRANCH  22  24
ENDBRANCH   1  22
TORSDOF 12
ENDMDL
MODEL 6
REMARK VINA RESULT:      -6.9      2.577      8.794
REMARK  Name = *****
REMARK                            x       y       z     vdW  Elec       q    Type
REMARK                         _______ _______ _______ _____ _____    ______ ____
ROOT
ATOM      1  C   LIG    1       25.893 -23.783   6.621  0.00  0.00    +0.201 C 
ATOM      2  C   LIG    1       24.624 -23.966   5.778  0.00  0.00    +0.181 C 
ATOM      3  C   LIG    1       24.185 -25.367   6.153  0.00  0.00    +0.195 C 
ATOM      4  C   LIG    1       25.542 -26.070   6.253  0.00  0.00    +0.253 C 
ATOM      5  O   LIG    1       26.487 -25.105   6.760  0.00  0.00    -0.343 OA
ENDROOT
BRANCH   4   6
ATOM      6  N   LIG    1       25.599 -27.253   7.087  0.00  0.00    -0.285 N 
ATOM      7  C   LIG    1       24.972 -28.453   6.891  0.00  0.00    +0.167 A 
ATOM      8  N   LIG    1       24.117 -28.791   5.912  0.00  0.00    -0.216 NA
ATOM      9  C   LIG    1       23.731 -30.075   6.016  0.00  0.00    +0.225 A 
ATOM     10  N   LIG    1       24.090 -30.978   6.946  0.00  0.00    -0.219 NA
ATOM     11  C   LIG    1       24.961 -30.598   7.908  0.00  0.00    +0.147 A 
ATOM     12  C   LIG    1       25.430 -29.272   7.910  0.00  0.00    +0.147 A 
ATOM     13  N   LIG    1       26.285 -28.583   8.744  0.00  0.00    -0.231 NA
ATOM     14  C   LIG    1       26.357 -27.374   8.226  0.00  0.00    +0.203 A 
BRANCH  11  15
ATOM     15  N   LIG    1       25.341 -31.545   8.849  0.00  0.00    -0.341 N 
ATOM     16  H   LIG    1       25.075 -32.490   8.601  0.00  0.00    +0.144 HD
ATOM     17  H   LIG    1       26.284 -31.392   9.181  0.00  0.00    +0.144 HD
ENDBRANCH  11  15
ENDBRANCH   4   6
BRANCH   2  18
ATOM     18  O   LIG    1       24.936 -23.941   4.380  0.00  0.00    -0.386 OA
ATOM     19  H   LIG    1       24.161 -23.512   3.959  0.00  0.00    +0.210 HD
ENDBRANCH   2  18
BRANCH   3  20
ATOM     20  O   LIG    1       23.313 -25.926   5.171  0.00  0.00    -0.385 OA
ATOM     21  H   LIG    1       22.402 -25.718   5.454  0.00  0.00    +0.210 HD
ENDBRANCH   3  20
BRANCH   1  22
ATOM     22  C   LIG    1       25.605 -23.263   8.036  0.00  0.00    +0.311 C 
BRANCH  22  24
ATOM     23  C   LIG    1       25.020 -20.682   7.433  0.00  0.00    +0.340 C 
ATOM     24  S   LIG    1       26.309 -21.611   8.315  0.00  0.00    -0.011 S 
BRANCH  24  25
ATOM     25  C   LIG    1       27.551 -21.582   6.973  0.00  0.00    +0.280 C 
BRANCH  25  26
ATOM     26  C   LIG    1       28.166 -20.190   6.771  0.00  0.00    +0.084 C 
BRANCH  26  27
ATOM     27  CA  LIG    1       29.491 -19.967   7.515  0.00  0.00    +0.165 C 
BRANCH  27  28
ATOM     28  N   LIG    1       29.251 -19.220   8.796  0.00  0.00    -0.318 NA
ATOM     29  H1  LIG    1       28.850 -18.306   8.558  0.00  0.00    +0.119 HD
ATOM     30  H2  LIG    1       30.156 -18.993   9.215  0.00  0.00    +0.119 HD
ENDBRANCH  27  28
BRANCH  27  31
ATOM     31  C   LIG    1       30.538 -19.187   6.691  0.00  0.00    +0.322 C 
ATOM     32  O   LIG    1       30.286 -18.415   5.795  0.00  0.00    -0.249 OA
BRANCH  31  33
ATOM     33  OXT LIG    1       31.809 -19.505   7.057  0.00  0.00    -0.479 OA
ATOM     34  HXT LIG    1       32.230 -19.923   6.269  0.00  0.00    +0.295 HD
ENDBRANCH  31  33
ENDBRANCH  27  31
ENDBRANCH  26  27
ENDBRANCH  25  26
ENDBRANCH  24  25
ENDBRANCH  22  24
ENDBRANCH   1  22
TORSDOF 12
ENDMDL
MODEL 7
REMARK VINA RESULT:      -6.7      0.808      1.725
REMARK  Name = *****
REMARK                            x       y       z     vdW  Elec       q    Type
REMARK                         _______ _______ _______ _____ _____    ______ ____
ROOT
ATOM      1  C   LIG    1       24.169 -21.790   5.357  0.00  0.00    +0.201 C 
ATOM      2  C   LIG    1       24.022 -20.988   4.057  0.00  0.00    +0.181 C 
ATOM      3  C   LIG    1       25.374 -20.314   3.938  0.00  0.00    +0.195 C 
ATOM      4  C   LIG    1       25.650 -19.975   5.407  0.00  0.00    +0.253 C 
ATOM      5  O   LIG    1       25.082 -21.036   6.203  0.00  0.00    -0.343 OA
ENDROOT
BRANCH   4   6
ATOM      6  N   LIG    1       27.039 -19.808   5.783  0.00  0.00    -0.285 N 
ATOM      7  C   LIG    1       27.718 -20.431   6.794  0.00  0.00    +0.167 A 
ATOM      8  N   LIG    1       27.240 -21.294   7.705  0.00  0.00    -0.216 NA
ATOM      9  C   LIG    1       28.211 -21.735   8.524  0.00  0.00    +0.225 A 
ATOM     10  N   LIG    1       29.515 -21.407   8.519  0.00  0.00    -0.219 NA
ATOM     11  C   LIG    1       29.956 -20.540   7.578  0.00  0.00    +0.147 A 
ATOM     12  C   LIG    1       29.029 -20.002   6.668  0.00  0.00    +0.147 A 
ATOM     13  N   LIG    1       29.150 -19.102   5.631  0.00  0.00    -0.231 NA
ATOM     14  C   LIG    1       27.937 -19.002   5.128  0.00  0.00    +0.203 A 
BRANCH  11  15
ATOM     15  N   LIG    1       31.307 -20.226   7.569  0.00  0.00    -0.341 N 
ATOM     16  H   LIG    1       31.699 -20.096   8.494  0.00  0.00    +0.144 HD
ATOM     17  H   LIG    1       31.825 -20.797   6.914  0.00  0.00    +0.144 HD
ENDBRANCH  11  15
ENDBRANCH   4   6
BRANCH   2  18
ATOM     18  O   LIG    1       23.015 -19.978   4.195  0.00  0.00    -0.386 OA
ATOM     19  H   LIG    1       22.165 -20.463   4.128  0.00  0.00    +0.210 HD
ENDBRANCH   2  18
BRANCH   3  20
ATOM     20  O   LIG    1       25.320 -19.175   3.081  0.00  0.00    -0.385 OA
ATOM     21  H   LIG    1       25.616 -19.472   2.199  0.00  0.00    +0.210 HD
ENDBRANCH   3  20
BRANCH   1  22
ATOM     22  C   LIG    1       24.789 -23.178   5.141  0.00  0.00    +0.311 C 
BRANCH  22  24
ATOM     23  C   LIG    1       25.840 -24.583   7.213  0.00  0.00    +0.340 C 
ATOM     24  S   LIG    1       24.233 -24.377   6.388  0.00  0.00    -0.011 S 
BRANCH  24  25
ATOM     25  C   LIG    1       24.305 -25.906   5.389  0.00  0.00    +0.280 C 
BRANCH  25  26
ATOM     26  C   LIG    1       25.375 -26.886   5.892  0.00  0.00    +0.084 C 
BRANCH  26  27
ATOM     27  CA  LIG    1       24.816 -28.112   6.631  0.00  0.00    +0.165 C 
BRANCH  27  28
ATOM     28  N   LIG    1       25.772 -28.554   7.702  0.00  0.00    -0.318 NA
ATOM     29  H1  LIG    1       25.988 -29.544   7.542  0.00  0.00    +0.119 HD
ATOM     30  H2  LIG    1       25.280 -28.549   8.599  0.00  0.00    +0.119 HD
ENDBRANCH  27  28
BRANCH  27  31
ATOM     31  C   LIG    1       24.538 -29.316   5.706  0.00  0.00    +0.322 C 
ATOM     32  O   LIG    1       25.380 -30.053   5.247  0.00  0.00    -0.249 OA
BRANCH  31  33
ATOM     33  OXT LIG    1       23.214 -29.435   5.415  0.00  0.00    -0.479 OA
ATOM     34  HXT LIG    1       22.730 -29.316   6.267  0.00  0.00    +0.295 HD
ENDBRANCH  31  33
ENDBRANCH  27  31
ENDBRANCH  26  27
ENDBRANCH  25  26
ENDBRANCH  24  25
ENDBRANCH  22  24
ENDBRANCH   1  22
TORSDOF 12
ENDMDL
MODEL 8
REMARK VINA RESULT:      -6.7      2.020      3.168
REMARK  Name = *****
REMARK                            x       y       z     vdW  Elec       q    Type
REMARK                         _______ _______ _______ _____ _____    ______ ____
ROOT
ATOM      1  C   LIG    1       24.501 -24.341   6.694  0.00  0.00    +0.201 C 
ATOM      2  C   LIG    1       23.156 -23.865   6.131  0.00  0.00    +0.181 C 
ATOM      3  C   LIG    1       23.527 -22.550   5.474  0.00  0.00    +0.195 C 
ATOM      4  C   LIG    1       24.543 -22.008   6.484  0.00  0.00    +0.253 C 
ATOM      5  O   LIG    1       25.257 -23.141   7.022  0.00  0.00    -0.343 OA
ENDROOT
BRANCH   4   6
ATOM      6  N   LIG    1       25.508 -21.051   5.982  0.00  0.00    -0.285 N 
ATOM      7  C   LIG    1       26.723 -20.722   6.516  0.00  0.00    +0.167 A 
ATOM      8  N   LIG    1       27.276 -21.166   7.657  0.00  0.00    -0.216 NA
ATOM      9  C   LIG    1       28.505 -20.653   7.843  0.00  0.00    +0.225 A 
ATOM     10  N   LIG    1       29.174 -19.794   7.054  0.00  0.00    -0.219 NA
ATOM     11  C   LIG    1       28.585 -19.379   5.909  0.00  0.00    +0.147 A 
ATOM     12  C   LIG    1       27.291 -19.841   5.610  0.00  0.00    +0.147 A 
ATOM     13  N   LIG    1       26.429 -19.597   4.561  0.00  0.00    -0.231 NA
ATOM     14  C   LIG    1       25.367 -20.331   4.821  0.00  0.00    +0.203 A 
BRANCH  11  15
ATOM     15  N   LIG    1       29.294 -18.510   5.093  0.00  0.00    -0.341 N 
ATOM     16  H   LIG    1       29.130 -18.659   4.104  0.00  0.00    +0.144 HD
ATOM     17  H   LIG    1       29.269 -17.560   5.437  0.00  0.00    +0.144 HD
ENDBRANCH  11  15
ENDBRANCH   4   6
BRANCH   2  18
ATOM     18  O   LIG    1       22.227 -23.604   7.189  0.00  0.00    -0.386 OA
ATOM     19  H   LIG    1       22.657 -23.966   7.993  0.00  0.00    +0.210 HD
ENDBRANCH   2  18
BRANCH   3  20
ATOM     20  O   LIG    1       22.386 -21.713   5.293  0.00  0.00    -0.385 OA
ATOM     21  H   LIG    1       22.016 -21.929   4.416  0.00  0.00    +0.210 HD
ENDBRANCH   3  20
BRANCH   1  22
ATOM     22  C   LIG    1       25.331 -25.137   5.677  0.00  0.00    +0.311 C 
BRANCH  22  24
ATOM     23  C   LIG    1       26.951 -27.183   4.929  0.00  0.00    +0.340 C 
ATOM     24  S   LIG    1       25.997 -26.671   6.389  0.00  0.00    -0.011 S 
BRANCH  24  25
ATOM     25  C   LIG    1       24.568 -27.778   6.112  0.00  0.00    +0.280 C 
BRANCH  25  26
ATOM     26  C   LIG    1       24.947 -29.040   5.325  0.00  0.00    +0.084 C 
BRANCH  26  27
ATOM     27  CA  LIG    1       24.697 -30.356   6.078  0.00  0.00    +0.165 C 
BRANCH  27  28
ATOM     28  N   LIG    1       23.361 -30.929   5.697  0.00  0.00    -0.318 NA
ATOM     29  H1  LIG    1       23.524 -31.829   5.233  0.00  0.00    +0.119 HD
ATOM     30  H2  LIG    1       22.953 -30.342   4.965  0.00  0.00    +0.119 HD
ENDBRANCH  27  28
BRANCH  27  31
ATOM     31  C   LIG    1       24.737 -30.206   7.613  0.00  0.00    +0.322 C 
ATOM     32  O   LIG    1       23.768 -30.166   8.337  0.00  0.00    -0.249 OA
BRANCH  31  33
ATOM     33  OXT LIG    1       26.009 -30.073   8.076  0.00  0.00    -0.479 OA
ATOM     34  HXT LIG    1       26.602 -30.406   7.361  0.00  0.00    +0.295 HD
ENDBRANCH  31  33
ENDBRANCH  27  31
ENDBRANCH  26  27
ENDBRANCH  25  26
ENDBRANCH  24  25
ENDBRANCH  22  24
ENDBRANCH   1  22
TORSDOF 12
ENDMDL
MODEL 9
REMARK VINA RESULT:      -6.6      3.760      7.229
REMARK  Name = *****
REMARK                            x       y       z     vdW  Elec       q    Type
REMARK                         _______ _______ _______ _____ _____    ______ ____
ROOT
ATOM      1  C   LIG    1       25.007 -21.418   5.875  0.00  0.00    +0.201 C 
ATOM      2  C   LIG    1       24.892 -22.050   7.268  0.00  0.00    +0.181 C 
ATOM      3  C   LIG    1       26.094 -21.472   7.986  0.00  0.00    +0.195 C 
ATOM      4  C   LIG    1       27.132 -21.490   6.859  0.00  0.00    +0.253 C 
ATOM      5  O   LIG    1       26.428 -21.225   5.627  0.00  0.00    -0.343 OA
ENDROOT
BRANCH   4   6
ATOM      6  N   LIG    1       28.230 -20.553   6.974  0.00  0.00    -0.285 N 
ATOM      7  C   LIG    1       29.340 -20.649   7.768  0.00  0.00    +0.167 A 
ATOM      8  N   LIG    1       29.638 -21.604   8.664  0.00  0.00    -0.216 NA
ATOM      9  C   LIG    1       30.837 -21.391   9.232  0.00  0.00    +0.225 A 
ATOM     10  N   LIG    1       31.695 -20.380   9.007  0.00  0.00    -0.219 NA
ATOM     11  C   LIG    1       31.360 -19.444   8.089  0.00  0.00    +0.147 A 
ATOM     12  C   LIG    1       30.121 -19.556   7.433  0.00  0.00    +0.147 A 
ATOM     13  N   LIG    1       29.490 -18.776   6.487  0.00  0.00    -0.231 NA
ATOM     14  C   LIG    1       28.356 -19.399   6.240  0.00  0.00    +0.203 A 
BRANCH  11  15
ATOM     15  N   LIG    1       32.263 -18.418   7.850  0.00  0.00    -0.341 N 
ATOM     16  H   LIG    1       31.821 -17.524   7.671  0.00  0.00    +0.144 HD
ATOM     17  H   LIG    1       33.040 -18.439   8.496  0.00  0.00    +0.144 HD
ENDBRANCH  11  15
ENDBRANCH   4   6
BRANCH   2  18
ATOM     18  O   LIG    1       25.041 -23.473   7.192  0.00  0.00    -0.386 OA
ATOM     19  H   LIG    1       24.311 -23.770   6.609  0.00  0.00    +0.210 HD
ENDBRANCH   2  18
BRANCH   3  20
ATOM     20  O   LIG    1       26.457 -22.257   9.121  0.00  0.00    -0.385 OA
ATOM     21  H   LIG    1       27.251 -22.765   8.868  0.00  0.00    +0.210 HD
ENDBRANCH   3  20
BRANCH   1  22
ATOM     22  C   LIG    1       24.339 -20.038   5.783  0.00  0.00    +0.311 C 
BRANCH  22  24
ATOM     23  C   LIG    1       24.143 -21.280   3.377  0.00  0.00    +0.340 C 
ATOM     24  S   LIG    1       23.830 -19.636   4.085  0.00  0.00    -0.011 S 
BRANCH  24  25
ATOM     25  C   LIG    1       25.367 -18.847   3.488  0.00  0.00    +0.280 C 
BRANCH  25  26
ATOM     26  C   LIG    1       25.289 -17.314   3.513  0.00  0.00    +0.084 C 
BRANCH  26  27
ATOM     27  CA  LIG    1       26.603 -16.605   3.148  0.00  0.00    +0.165 C 
BRANCH  27  28
ATOM     28  N   LIG    1       27.718 -17.088   4.031  0.00  0.00    -0.318 NA
ATOM     29  H1  LIG    1       27.588 -16.671   4.960  0.00  0.00    +0.119 HD
ATOM     30  H2  LIG    1       28.596 -16.682   3.698  0.00  0.00    +0.119 HD
ENDBRANCH  27  28
BRANCH  27  31
ATOM     31  C   LIG    1       26.527 -15.068   3.264  0.00  0.00    +0.322 C 
ATOM     32  O   LIG    1       26.367 -14.452   4.293  0.00  0.00    -0.249 OA
BRANCH  31  33
ATOM     33  OXT LIG    1       26.614 -14.464   2.048  0.00  0.00    -0.479 OA
ATOM     34  HXT LIG    1       27.089 -15.094   1.456  0.00  0.00    +0.295 HD
ENDBRANCH  31  33
ENDBRANCH  27  31
ENDBRANCH  26  27
ENDBRANCH  25  26
ENDBRANCH  24  25
ENDBRANCH  22  24
ENDBRANCH   1  22
TORSDOF 12
ENDMDL
