MODEL 1
REMARK VINA RESULT:      -7.0      0.000      0.000
REMARK  Name = *****
REMARK                            x       y       z     vdW  Elec       q    Type
REMARK                         _______ _______ _______ _____ _____    ______ ____
ROOT
ATOM      1  C   LIG    1       30.822 -20.072   8.509  0.00  0.00    +0.314 C 
ATOM      2  C   LIG    1       30.773 -19.011   9.594  0.00  0.00    +0.199 C 
ATOM      3  C   LIG    1       30.096 -17.840   8.902  0.00  0.00    +0.182 C 
ATOM      4  C   LIG    1       30.813 -16.648   9.502  0.00  0.00    +0.171 C 
ATOM      5  C   LIG    1       32.227 -17.180   9.671  0.00  0.00    +0.194 C 
ATOM      6  O   LIG    1       30.363 -17.967   7.492  0.00  0.00    -0.367 OA
ATOM      7  O   LIG    1       32.095 -18.581   9.986  0.00  0.00    -0.367 OA
ATOM      8  C   LIG    1       31.046 -19.211   7.273  0.00  0.00    +0.215 C 
ENDROOT
BRANCH   4   9
ATOM      9  O   LIG    1       30.243 -16.325  10.775  0.00  0.00    -0.387 OA
ATOM     10  H   LIG    1       30.537 -16.995  11.421  0.00  0.00    +0.210 HD
ENDBRANCH   4   9
BRANCH   1  11
ATOM     11  O   LIG    1       31.876 -21.015   8.622  0.00  0.00    -0.208 OA
BRANCH  11  13
ATOM     12  O   LIG    1       30.717 -22.124  10.214  0.00  0.00    +0.093 OA
ATOM     13  N   LIG    1       31.495 -22.215   9.262  0.00  0.00    +0.285 N 
ATOM     14  O   LIG    1       31.979 -23.212   8.734  0.00  0.00    -0.534 OA
ENDBRANCH  11  13
ENDBRANCH   1  11
TORSDOF 3
ENDMDL
MODEL 2
REMARK VINA RESULT:      -6.8      2.326      2.833
REMARK  Name = *****
REMARK                            x       y       z     vdW  Elec       q    Type
REMARK                         _______ _______ _______ _____ _____    ______ ____
ROOT
ATOM      1  C   LIG    1       29.958 -19.499   8.043  0.00  0.00    +0.314 C 
ATOM      2  C   LIG    1       30.489 -18.090   8.238  0.00  0.00    +0.199 C 
ATOM      3  C   LIG    1       31.971 -18.311   8.489  0.00  0.00    +0.182 C 
ATOM      4  C   LIG    1       32.293 -17.239   9.510  0.00  0.00    +0.171 C 
ATOM      5  C   LIG    1       31.015 -17.192  10.334  0.00  0.00    +0.194 C 
ATOM      6  O   LIG    1       32.116 -19.634   9.042  0.00  0.00    -0.367 OA
ATOM      7  O   LIG    1       29.936 -17.466   9.417  0.00  0.00    -0.367 OA
ATOM      8  C   LIG    1       30.832 -20.275   9.018  0.00  0.00    +0.215 C 
ENDROOT
BRANCH   4   9
ATOM      9  O   LIG    1       32.511 -15.987   8.851  0.00  0.00    -0.387 OA
ATOM     10  H   LIG    1       33.466 -15.788   8.880  0.00  0.00    +0.210 HD
ENDBRANCH   4   9
BRANCH   1  11
ATOM     11  O   LIG    1       28.593 -19.691   8.379  0.00  0.00    -0.208 OA
BRANCH  11  13
ATOM     12  O   LIG    1       27.379 -21.579   8.652  0.00  0.00    +0.093 OA
ATOM     13  N   LIG    1       28.051 -20.895   7.876  0.00  0.00    +0.285 N 
ATOM     14  O   LIG    1       28.302 -21.072   6.687  0.00  0.00    -0.534 OA
ENDBRANCH  11  13
ENDBRANCH   1  11
TORSDOF 3
ENDMDL
MODEL 3
REMARK VINA RESULT:      -6.7      3.163      4.409
REMARK  Name = *****
REMARK                            x       y       z     vdW  Elec       q    Type
REMARK                         _______ _______ _______ _____ _____    ______ ____
ROOT
ATOM      1  C   LIG    1       29.756 -20.908   7.751  0.00  0.00    +0.314 C 
ATOM      2  C   LIG    1       28.411 -21.458   7.312  0.00  0.00    +0.199 C 
ATOM      3  C   LIG    1       27.996 -20.509   6.200  0.00  0.00    +0.182 C 
ATOM      4  C   LIG    1       26.497 -20.415   6.393  0.00  0.00    +0.171 C 
ATOM      5  C   LIG    1       26.366 -20.488   7.907  0.00  0.00    +0.194 C 
ATOM      6  O   LIG    1       28.645 -19.248   6.453  0.00  0.00    -0.367 OA
ATOM      7  O   LIG    1       27.422 -21.361   8.359  0.00  0.00    -0.367 OA
ATOM      8  C   LIG    1       29.530 -19.413   7.572  0.00  0.00    +0.215 C 
ENDROOT
BRANCH   4   9
ATOM      9  O   LIG    1       25.854 -21.538   5.780  0.00  0.00    -0.387 OA
ATOM     10  H   LIG    1       26.485 -21.953   5.163  0.00  0.00    +0.210 HD
ENDBRANCH   4   9
BRANCH   1  11
ATOM     11  O   LIG    1       30.115 -21.171   9.099  0.00  0.00    -0.208 OA
BRANCH  11  13
ATOM     12  O   LIG    1       31.523 -22.937   9.190  0.00  0.00    +0.093 OA
ATOM     13  N   LIG    1       31.412 -21.710   9.244  0.00  0.00    +0.285 N 
ATOM     14  O   LIG    1       32.276 -20.847   9.368  0.00  0.00    -0.534 OA
ENDBRANCH  11  13
ENDBRANCH   1  11
TORSDOF 3
ENDMDL
MODEL 4
REMARK VINA RESULT:      -6.3      2.551      4.484
REMARK  Name = *****
REMARK                            x       y       z     vdW  Elec       q    Type
REMARK                         _______ _______ _______ _____ _____    ______ ____
ROOT
ATOM      1  C   LIG    1       31.763 -17.367   9.945  0.00  0.00    +0.314 C 
ATOM      2  C   LIG    1       31.831 -18.301   8.750  0.00  0.00    +0.199 C 
ATOM      3  C   LIG    1       30.386 -18.372   8.284  0.00  0.00    +0.182 C 
ATOM      4  C   LIG    1       30.260 -19.810   7.827  0.00  0.00    +0.171 C 
ATOM      5  C   LIG    1       31.150 -20.538   8.823  0.00  0.00    +0.194 C 
ATOM      6  O   LIG    1       29.556 -18.101   9.430  0.00  0.00    -0.367 OA
ATOM      7  O   LIG    1       32.231 -19.635   9.131  0.00  0.00    -0.367 OA
ATOM      8  C   LIG    1       30.408 -17.742  10.528  0.00  0.00    +0.215 C 
ENDROOT
BRANCH   4   9
ATOM      9  O   LIG    1       30.778 -19.949   6.499  0.00  0.00    -0.387 OA
ATOM     10  H   LIG    1       30.727 -19.080   6.059  0.00  0.00    +0.210 HD
ENDBRANCH   4   9
BRANCH   1  11
ATOM     11  O   LIG    1       32.767 -17.557  10.929  0.00  0.00    -0.208 OA
BRANCH  11  13
ATOM     12  O   LIG    1       33.025 -15.369  11.434  0.00  0.00    +0.093 OA
ATOM     13  N   LIG    1       32.842 -16.507  11.871  0.00  0.00    +0.285 N 
ATOM     14  O   LIG    1       32.669 -16.888  13.025  0.00  0.00    -0.534 OA
ENDBRANCH  11  13
ENDBRANCH   1  11
TORSDOF 3
ENDMDL
MODEL 5
REMARK VINA RESULT:      -5.9      3.159      3.783
REMARK  Name = *****
REMARK                            x       y       z     vdW  Elec       q    Type
REMARK                         _______ _______ _______ _____ _____    ______ ____
ROOT
ATOM      1  C   LIG    1       28.215 -19.983   7.629  0.00  0.00    +0.314 C 
ATOM      2  C   LIG    1       29.330 -19.174   8.267  0.00  0.00    +0.199 C 
ATOM      3  C   LIG    1       30.173 -18.749   7.075  0.00  0.00    +0.182 C 
ATOM      4  C   LIG    1       31.580 -18.805   7.633  0.00  0.00    +0.171 C 
ATOM      5  C   LIG    1       31.500 -19.995   8.577  0.00  0.00    +0.194 C 
ATOM      6  O   LIG    1       29.971 -19.730   6.040  0.00  0.00    -0.367 OA
ATOM      7  O   LIG    1       30.164 -19.987   9.121  0.00  0.00    -0.367 OA
ATOM      8  C   LIG    1       28.960 -20.649   6.481  0.00  0.00    +0.215 C 
ENDROOT
BRANCH   4   9
ATOM      9  O   LIG    1       31.864 -17.606   8.362  0.00  0.00    -0.387 OA
ATOM     10  H   LIG    1       32.324 -16.986   7.765  0.00  0.00    +0.210 HD
ENDBRANCH   4   9
BRANCH   1  11
ATOM     11  O   LIG    1       27.634 -20.981   8.454  0.00  0.00    -0.208 OA
BRANCH  11  13
ATOM     12  O   LIG    1       25.689 -21.333   9.553  0.00  0.00    +0.093 OA
ATOM     13  N   LIG    1       26.225 -20.903   8.529  0.00  0.00    +0.285 N 
ATOM     14  O   LIG    1       25.724 -20.363   7.546  0.00  0.00    -0.534 OA
ENDBRANCH  11  13
ENDBRANCH   1  11
TORSDOF 3
ENDMDL
MODEL 6
REMARK VINA RESULT:      -5.9      6.591      7.232
REMARK  Name = *****
REMARK                            x       y       z     vdW  Elec       q    Type
REMARK                         _______ _______ _______ _____ _____    ______ ____
ROOT
ATOM      1  C   LIG    1       24.530 -23.028   6.019  0.00  0.00    +0.314 C 
ATOM      2  C   LIG    1       25.137 -22.566   7.332  0.00  0.00    +0.199 C 
ATOM      3  C   LIG    1       24.823 -21.079   7.353  0.00  0.00    +0.182 C 
ATOM      4  C   LIG    1       26.056 -20.494   8.009  0.00  0.00    +0.171 C 
ATOM      5  C   LIG    1       27.158 -21.395   7.475  0.00  0.00    +0.194 C 
ATOM      6  O   LIG    1       24.695 -20.652   5.983  0.00  0.00    -0.367 OA
ATOM      7  O   LIG    1       26.574 -22.707   7.340  0.00  0.00    -0.367 OA
ATOM      8  C   LIG    1       24.781 -21.811   5.140  0.00  0.00    +0.215 C 
ENDROOT
BRANCH   4   9
ATOM      9  O   LIG    1       25.956 -20.615   9.433  0.00  0.00    -0.387 OA
ATOM     10  H   LIG    1       26.735 -21.107   9.754  0.00  0.00    +0.210 HD
ENDBRANCH   4   9
BRANCH   1  11
ATOM     11  O   LIG    1       25.139 -24.166   5.430  0.00  0.00    -0.208 OA
BRANCH  11  13
ATOM     12  O   LIG    1       25.853 -26.015   6.519  0.00  0.00    +0.093 OA
ATOM     13  N   LIG    1       24.880 -25.369   6.125  0.00  0.00    +0.285 N 
ATOM     14  O   LIG    1       23.680 -25.584   6.275  0.00  0.00    -0.534 OA
ENDBRANCH  11  13
ENDBRANCH   1  11
TORSDOF 3
ENDMDL
MODEL 7
REMARK VINA RESULT:      -5.9      2.203      3.213
REMARK  Name = *****
REMARK                            x       y       z     vdW  Elec       q    Type
REMARK                         _______ _______ _______ _____ _____    ______ ____
ROOT
ATOM      1  C   LIG    1       31.022 -18.171   9.194  0.00  0.00    +0.314 C 
ATOM      2  C   LIG    1       32.029 -17.859  10.287  0.00  0.00    +0.199 C 
ATOM      3  C   LIG    1       31.181 -17.195  11.359  0.00  0.00    +0.182 C 
ATOM      4  C   LIG    1       32.120 -16.144  11.914  0.00  0.00    +0.171 C 
ATOM      5  C   LIG    1       32.887 -15.716  10.673  0.00  0.00    +0.194 C 
ATOM      6  O   LIG    1       30.048 -16.600  10.697  0.00  0.00    -0.367 OA
ATOM      7  O   LIG    1       33.013 -16.896   9.852  0.00  0.00    -0.367 OA
ATOM      8  C   LIG    1       30.088 -16.975   9.311  0.00  0.00    +0.215 C 
ENDROOT
BRANCH   4   9
ATOM      9  O   LIG    1       33.005 -16.736  12.871  0.00  0.00    -0.387 OA
ATOM     10  H   LIG    1       33.084 -16.131  13.632  0.00  0.00    +0.210 HD
ENDBRANCH   4   9
BRANCH   1  11
ATOM     11  O   LIG    1       31.547 -18.231   7.877  0.00  0.00    -0.208 OA
BRANCH  11  13
ATOM     12  O   LIG    1       30.321 -18.410   5.986  0.00  0.00    +0.093 OA
ATOM     13  N   LIG    1       30.753 -18.987   6.986  0.00  0.00    +0.285 N 
ATOM     14  O   LIG    1       30.639 -20.161   7.328  0.00  0.00    -0.534 OA
ENDBRANCH  11  13
ENDBRANCH   1  11
TORSDOF 3
ENDMDL
MODEL 8
REMARK VINA RESULT:      -5.9      3.759      4.956
REMARK  Name = *****
REMARK                            x       y       z     vdW  Elec       q    Type
REMARK                         _______ _______ _______ _____ _____    ______ ____
ROOT
ATOM      1  C   LIG    1       29.129 -20.703   7.379  0.00  0.00    +0.314 C 
ATOM      2  C   LIG    1       27.911 -21.513   7.787  0.00  0.00    +0.199 C 
ATOM      3  C   LIG    1       27.031 -21.461   6.549  0.00  0.00    +0.182 C 
ATOM      4  C   LIG    1       25.639 -21.390   7.140  0.00  0.00    +0.171 C 
ATOM      5  C   LIG    1       25.866 -20.547   8.385  0.00  0.00    +0.194 C 
ATOM      6  O   LIG    1       27.370 -20.256   5.836  0.00  0.00    -0.367 OA
ATOM      7  O   LIG    1       27.184 -20.883   8.864  0.00  0.00    -0.367 OA
ATOM      8  C   LIG    1       28.489 -19.642   6.495  0.00  0.00    +0.215 C 
ENDROOT
BRANCH   4   9
ATOM      9  O   LIG    1       25.193 -22.703   7.499  0.00  0.00    -0.387 OA
ATOM     10  H   LIG    1       24.786 -22.657   8.384  0.00  0.00    +0.210 HD
ENDBRANCH   4   9
BRANCH   1  11
ATOM     11  O   LIG    1       29.829 -20.072   8.439  0.00  0.00    -0.208 OA
BRANCH  11  13
ATOM     12  O   LIG    1       31.845 -20.672   9.267  0.00  0.00    +0.093 OA
ATOM     13  N   LIG    1       31.234 -20.164   8.325  0.00  0.00    +0.285 N 
ATOM     14  O   LIG    1       31.653 -19.748   7.248  0.00  0.00    -0.534 OA
ENDBRANCH  11  13
ENDBRANCH   1  11
TORSDOF 3
ENDMDL
MODEL 9
REMARK VINA RESULT:      -5.8      2.153      2.496
REMARK  Name = *****
REMARK                            x       y       z     vdW  Elec       q    Type
REMARK                         _______ _______ _______ _____ _____    ______ ____
ROOT
ATOM      1  C   LIG    1       30.275 -18.537   8.448  0.00  0.00    +0.314 C 
ATOM      2  C   LIG    1       30.075 -17.748   9.730  0.00  0.00    +0.199 C 
ATOM      3  C   LIG    1       31.067 -16.605   9.591  0.00  0.00    +0.182 C 
ATOM      4  C   LIG    1       31.547 -16.414  11.014  0.00  0.00    +0.171 C 
ATOM      5  C   LIG    1       31.554 -17.840  11.542  0.00  0.00    +0.194 C 
ATOM      6  O   LIG    1       32.126 -17.064   8.728  0.00  0.00    -0.367 OA
ATOM      7  O   LIG    1       30.453 -18.512  10.896  0.00  0.00    -0.367 OA
ATOM      8  C   LIG    1       31.772 -18.364   8.232  0.00  0.00    +0.215 C 
ENDROOT
BRANCH   4   9
ATOM      9  O   LIG    1       30.609 -15.614  11.743  0.00  0.00    -0.387 OA
ATOM     10  H   LIG    1       29.916 -16.203  12.098  0.00  0.00    +0.210 HD
ENDBRANCH   4   9
BRANCH   1  11
ATOM     11  O   LIG    1       29.968 -19.920   8.526  0.00  0.00    -0.208 OA
BRANCH  11  13
ATOM     12  O   LIG    1       27.732 -20.140   8.275  0.00  0.00    +0.093 OA
ATOM     13  N   LIG    1       28.841 -20.293   7.759  0.00  0.00    +0.285 N 
ATOM     14  O   LIG    1       29.139 -20.692   6.637  0.00  0.00    -0.534 OA
ENDBRANCH  11  13
ENDBRANCH   1  11
TORSDOF 3
ENDMDL
