MODEL 1
REMARK VINA RESULT:      -9.8      0.000      0.000
REMARK  Name = *****
REMARK                            x       y       z     vdW  Elec       q    Type
REMARK                         _______ _______ _______ _____ _____    ______ ____
ROOT
ATOM      1  C   LIG    1       27.687 -19.786   5.780  0.00  0.00    +0.105 C 
ATOM      2  N   LIG    1       27.977 -20.996   6.543  0.00  0.00    -0.297 NA
ENDROOT
BRANCH   2   3
ATOM      3  C   LIG    1       27.079 -21.200   7.694  0.00  0.00    +0.120 C 
BRANCH   3   4
ATOM      4  C   LIG    1       25.640 -21.615   7.382  0.00  0.00    -0.026 A 
ATOM      5  C   LIG    1       25.249 -22.945   7.044  0.00  0.00    -0.013 A 
ATOM      6  C   LIG    1       23.874 -23.219   6.806  0.00  0.00    -0.018 A 
ATOM      7  C   LIG    1       23.451 -24.519   6.471  0.00  0.00    +0.008 A 
ATOM      8  C   LIG    1       24.368 -25.561   6.369  0.00  0.00    +0.001 A 
ATOM      9  C   LIG    1       25.709 -25.320   6.611  0.00  0.00    +0.001 A 
ATOM     10  C   LIG    1       22.923 -22.198   6.916  0.00  0.00    +0.008 A 
ATOM     11  C   LIG    1       23.301 -20.912   7.279  0.00  0.00    +0.001 A 
ATOM     12  C   LIG    1       26.148 -24.031   6.947  0.00  0.00    +0.009 A 
ATOM     13  C   LIG    1       24.643 -20.628   7.517  0.00  0.00    +0.005 A 
ENDBRANCH   3   4
ENDBRANCH   2   3
BRANCH   2  14
ATOM     14  C   LIG    1       29.391 -21.077   6.940  0.00  0.00    +0.111 C 
BRANCH  14  15
ATOM     15  C   LIG    1       29.870 -20.109   7.995  0.00  0.00    -0.011 C 
ATOM     16  C   LIG    1       30.631 -19.029   7.753  0.00  0.00    +0.005 C 
BRANCH  16  17
ATOM     17  C   LIG    1       30.965 -18.077   8.817  0.00  0.00    -0.025 A 
ATOM     18  C   LIG    1       32.177 -17.380   8.797  0.00  0.00    +0.008 A 
ATOM     19  C   LIG    1       32.507 -16.512   9.842  0.00  0.00    +0.001 A 
ATOM     20  C   LIG    1       31.628 -16.339  10.911  0.00  0.00    +0.000 A 
ATOM     21  C   LIG    1       30.414 -17.023  10.932  0.00  0.00    +0.001 A 
ATOM     22  C   LIG    1       30.083 -17.889   9.887  0.00  0.00    +0.008 A 
ENDBRANCH  16  17
ENDBRANCH  14  15
ENDBRANCH   2  14
TORSDOF 5
ENDMDL
MODEL 2
REMARK VINA RESULT:      -9.6      1.875      3.021
REMARK  Name = *****
REMARK                            x       y       z     vdW  Elec       q    Type
REMARK                         _______ _______ _______ _____ _____    ______ ____
ROOT
ATOM      1  C   LIG    1       29.244 -21.421   8.000  0.00  0.00    +0.105 C 
ATOM      2  N   LIG    1       28.593 -20.359   7.239  0.00  0.00    -0.297 NA
ENDROOT
BRANCH   2   3
ATOM      3  C   LIG    1       27.699 -20.855   6.176  0.00  0.00    +0.120 C 
BRANCH   3   4
ATOM      4  C   LIG    1       26.199 -20.850   6.477  0.00  0.00    -0.026 A 
ATOM      5  C   LIG    1       25.211 -20.316   5.597  0.00  0.00    -0.013 A 
ATOM      6  C   LIG    1       23.841 -20.397   5.970  0.00  0.00    -0.018 A 
ATOM      7  C   LIG    1       22.839 -19.882   5.127  0.00  0.00    +0.008 A 
ATOM      8  C   LIG    1       23.166 -19.286   3.913  0.00  0.00    +0.001 A 
ATOM      9  C   LIG    1       24.493 -19.210   3.523  0.00  0.00    +0.001 A 
ATOM     10  C   LIG    1       23.474 -21.004   7.177  0.00  0.00    +0.008 A 
ATOM     11  C   LIG    1       24.435 -21.554   8.015  0.00  0.00    +0.001 A 
ATOM     12  C   LIG    1       25.504 -19.719   4.351  0.00  0.00    +0.009 A 
ATOM     13  C   LIG    1       25.780 -21.484   7.664  0.00  0.00    +0.005 A 
ENDBRANCH   3   4
ENDBRANCH   2   3
BRANCH   2  14
ATOM     14  C   LIG    1       29.556 -19.376   6.719  0.00  0.00    +0.111 C 
BRANCH  14  15
ATOM     15  C   LIG    1       30.450 -18.687   7.721  0.00  0.00    -0.011 C 
ATOM     16  C   LIG    1       30.030 -17.804   8.641  0.00  0.00    +0.005 C 
BRANCH  16  17
ATOM     17  C   LIG    1       30.944 -17.260   9.649  0.00  0.00    -0.025 A 
ATOM     18  C   LIG    1       32.137 -16.637   9.269  0.00  0.00    +0.008 A 
ATOM     19  C   LIG    1       33.025 -16.165  10.241  0.00  0.00    +0.001 A 
ATOM     20  C   LIG    1       32.724 -16.315  11.594  0.00  0.00    +0.000 A 
ATOM     21  C   LIG    1       31.532 -16.925  11.980  0.00  0.00    +0.001 A 
ATOM     22  C   LIG    1       30.643 -17.395  11.009  0.00  0.00    +0.008 A 
ENDBRANCH  16  17
ENDBRANCH  14  15
ENDBRANCH   2  14
TORSDOF 5
ENDMDL
MODEL 3
REMARK VINA RESULT:      -9.3      2.483      5.631
REMARK  Name = *****
REMARK                            x       y       z     vdW  Elec       q    Type
REMARK                         _______ _______ _______ _____ _____    ______ ____
ROOT
ATOM      1  C   LIG    1       29.835 -20.493   7.434  0.00  0.00    +0.105 C 
ATOM      2  N   LIG    1       28.399 -20.576   7.180  0.00  0.00    -0.297 NA
ENDROOT
BRANCH   2   3
ATOM      3  C   LIG    1       27.776 -21.807   7.700  0.00  0.00    +0.120 C 
BRANCH   3   4
ATOM      4  C   LIG    1       26.249 -21.886   7.640  0.00  0.00    -0.026 A 
ATOM      5  C   LIG    1       25.528 -23.017   7.154  0.00  0.00    -0.013 A 
ATOM      6  C   LIG    1       24.106 -22.989   7.178  0.00  0.00    -0.018 A 
ATOM      7  C   LIG    1       23.361 -24.086   6.707  0.00  0.00    +0.008 A 
ATOM      8  C   LIG    1       23.999 -25.220   6.213  0.00  0.00    +0.001 A 
ATOM      9  C   LIG    1       25.382 -25.275   6.196  0.00  0.00    +0.001 A 
ATOM     10  C   LIG    1       23.432 -21.870   7.683  0.00  0.00    +0.008 A 
ATOM     11  C   LIG    1       24.136 -20.785   8.187  0.00  0.00    +0.001 A 
ATOM     12  C   LIG    1       26.140 -24.190   6.661  0.00  0.00    +0.009 A 
ATOM     13  C   LIG    1       25.529 -20.798   8.173  0.00  0.00    +0.005 A 
ENDBRANCH   3   4
ENDBRANCH   2   3
BRANCH   2  14
ATOM     14  C   LIG    1       28.072 -20.363   5.761  0.00  0.00    +0.111 C 
BRANCH  14  15
ATOM     15  C   LIG    1       26.698 -19.826   5.441  0.00  0.00    -0.011 C 
ATOM     16  C   LIG    1       25.861 -20.357   4.535  0.00  0.00    +0.005 C 
BRANCH  16  17
ATOM     17  C   LIG    1       24.501 -19.841   4.359  0.00  0.00    -0.025 A 
ATOM     18  C   LIG    1       24.285 -18.551   3.865  0.00  0.00    +0.008 A 
ATOM     19  C   LIG    1       22.985 -18.051   3.747  0.00  0.00    +0.001 A 
ATOM     20  C   LIG    1       21.897 -18.838   4.123  0.00  0.00    +0.000 A 
ATOM     21  C   LIG    1       22.104 -20.128   4.605  0.00  0.00    +0.001 A 
ATOM     22  C   LIG    1       23.403 -20.630   4.722  0.00  0.00    +0.008 A 
ENDBRANCH  16  17
ENDBRANCH  14  15
ENDBRANCH   2  14
TORSDOF 5
ENDMDL
MODEL 4
REMARK VINA RESULT:      -8.7      2.385      4.658
REMARK  Name = *****
REMARK                            x       y       z     vdW  Elec       q    Type
REMARK                         _______ _______ _______ _____ _____    ______ ____
ROOT
ATOM      1  C   LIG    1       25.396 -24.770   6.864  0.00  0.00    +0.105 C 
ATOM      2  N   LIG    1       24.928 -23.388   6.811  0.00  0.00    -0.297 NA
ENDROOT
BRANCH   2   3
ATOM      3  C   LIG    1       25.042 -22.776   5.474  0.00  0.00    +0.120 C 
BRANCH   3   4
ATOM      4  C   LIG    1       24.104 -21.607   5.167  0.00  0.00    -0.026 A 
ATOM      5  C   LIG    1       24.528 -20.375   4.587  0.00  0.00    -0.013 A 
ATOM      6  C   LIG    1       23.557 -19.372   4.317  0.00  0.00    -0.018 A 
ATOM      7  C   LIG    1       23.938 -18.144   3.744  0.00  0.00    +0.008 A 
ATOM      8  C   LIG    1       25.269 -17.887   3.430  0.00  0.00    +0.001 A 
ATOM      9  C   LIG    1       26.228 -18.857   3.671  0.00  0.00    +0.001 A 
ATOM     10  C   LIG    1       22.206 -19.602   4.606  0.00  0.00    +0.008 A 
ATOM     11  C   LIG    1       21.791 -20.815   5.138  0.00  0.00    +0.001 A 
ATOM     12  C   LIG    1       25.866 -20.086   4.240  0.00  0.00    +0.009 A 
ATOM     13  C   LIG    1       22.729 -21.808   5.408  0.00  0.00    +0.005 A 
ENDBRANCH   3   4
ENDBRANCH   2   3
BRANCH   2  14
ATOM     14  C   LIG    1       25.553 -22.549   7.844  0.00  0.00    +0.111 C 
BRANCH  14  15
ATOM     15  C   LIG    1       26.920 -21.984   7.544  0.00  0.00    -0.011 C 
ATOM     16  C   LIG    1       27.232 -20.678   7.572  0.00  0.00    +0.005 C 
BRANCH  16  17
ATOM     17  C   LIG    1       28.609 -20.218   7.373  0.00  0.00    -0.025 A 
ATOM     18  C   LIG    1       29.636 -20.652   8.216  0.00  0.00    +0.008 A 
ATOM     19  C   LIG    1       30.938 -20.168   8.047  0.00  0.00    +0.001 A 
ATOM     20  C   LIG    1       31.215 -19.249   7.036  0.00  0.00    +0.000 A 
ATOM     21  C   LIG    1       30.199 -18.820   6.185  0.00  0.00    +0.001 A 
ATOM     22  C   LIG    1       28.898 -19.305   6.352  0.00  0.00    +0.008 A 
ENDBRANCH  16  17
ENDBRANCH  14  15
ENDBRANCH   2  14
TORSDOF 5
ENDMDL
MODEL 5
REMARK VINA RESULT:      -8.6      2.341      3.887
REMARK  Name = *****
REMARK                            x       y       z     vdW  Elec       q    Type
REMARK                         _______ _______ _______ _____ _____    ______ ____
ROOT
ATOM      1  C   LIG    1       23.134 -18.678   4.486  0.00  0.00    +0.105 C 
ATOM      2  N   LIG    1       23.316 -20.039   3.990  0.00  0.00    -0.297 NA
ENDROOT
BRANCH   2   3
ATOM      3  C   LIG    1       22.752 -21.073   4.878  0.00  0.00    +0.120 C 
BRANCH   3   4
ATOM      4  C   LIG    1       23.624 -21.527   6.050  0.00  0.00    -0.026 A 
ATOM      5  C   LIG    1       24.364 -22.747   6.068  0.00  0.00    -0.013 A 
ATOM      6  C   LIG    1       25.167 -23.047   7.202  0.00  0.00    -0.018 A 
ATOM      7  C   LIG    1       25.911 -24.241   7.256  0.00  0.00    +0.008 A 
ATOM      8  C   LIG    1       25.877 -25.149   6.202  0.00  0.00    +0.001 A 
ATOM      9  C   LIG    1       25.112 -24.869   5.082  0.00  0.00    +0.001 A 
ATOM     10  C   LIG    1       25.238 -22.149   8.274  0.00  0.00    +0.008 A 
ATOM     11  C   LIG    1       24.545 -20.946   8.239  0.00  0.00    +0.001 A 
ATOM     12  C   LIG    1       24.366 -23.684   5.012  0.00  0.00    +0.009 A 
ATOM     13  C   LIG    1       23.754 -20.637   7.135  0.00  0.00    +0.005 A 
ENDBRANCH   3   4
ENDBRANCH   2   3
BRANCH   2  14
ATOM     14  C   LIG    1       24.719 -20.325   3.651  0.00  0.00    +0.111 C 
BRANCH  14  15
ATOM     15  C   LIG    1       25.779 -19.768   4.570  0.00  0.00    -0.011 C 
ATOM     16  C   LIG    1       26.796 -20.479   5.085  0.00  0.00    +0.005 C 
BRANCH  16  17
ATOM     17  C   LIG    1       27.846 -19.841   5.883  0.00  0.00    -0.025 A 
ATOM     18  C   LIG    1       28.733 -18.932   5.300  0.00  0.00    +0.008 A 
ATOM     19  C   LIG    1       29.762 -18.366   6.060  0.00  0.00    +0.001 A 
ATOM     20  C   LIG    1       29.908 -18.709   7.403  0.00  0.00    +0.000 A 
ATOM     21  C   LIG    1       29.020 -19.605   7.994  0.00  0.00    +0.001 A 
ATOM     22  C   LIG    1       27.991 -20.170   7.236  0.00  0.00    +0.008 A 
ENDBRANCH  16  17
ENDBRANCH  14  15
ENDBRANCH   2  14
TORSDOF 5
ENDMDL
MODEL 6
REMARK VINA RESULT:      -8.5      4.353     10.052
REMARK  Name = *****
REMARK                            x       y       z     vdW  Elec       q    Type
REMARK                         _______ _______ _______ _____ _____    ______ ____
ROOT
ATOM      1  C   LIG    1       25.872 -26.709   4.434  0.00  0.00    +0.105 C 
ATOM      2  N   LIG    1       24.967 -26.461   5.552  0.00  0.00    -0.297 NA
ENDROOT
BRANCH   2   3
ATOM      3  C   LIG    1       25.515 -25.540   6.565  0.00  0.00    +0.120 C 
BRANCH   3   4
ATOM      4  C   LIG    1       24.724 -24.259   6.834  0.00  0.00    -0.026 A 
ATOM      5  C   LIG    1       25.320 -23.018   7.209  0.00  0.00    -0.013 A 
ATOM      6  C   LIG    1       24.484 -21.884   7.400  0.00  0.00    -0.018 A 
ATOM      7  C   LIG    1       25.036 -20.643   7.770  0.00  0.00    +0.008 A 
ATOM      8  C   LIG    1       26.407 -20.501   7.953  0.00  0.00    +0.001 A 
ATOM      9  C   LIG    1       27.241 -21.589   7.758  0.00  0.00    +0.001 A 
ATOM     10  C   LIG    1       23.101 -21.987   7.208  0.00  0.00    +0.008 A 
ATOM     11  C   LIG    1       22.528 -23.187   6.809  0.00  0.00    +0.001 A 
ATOM     12  C   LIG    1       26.708 -22.832   7.388  0.00  0.00    +0.009 A 
ATOM     13  C   LIG    1       23.332 -24.307   6.616  0.00  0.00    +0.005 A 
ENDBRANCH   3   4
ENDBRANCH   2   3
BRANCH   2  14
ATOM     14  C   LIG    1       24.483 -27.709   6.163  0.00  0.00    +0.111 C 
BRANCH  14  15
ATOM     15  C   LIG    1       25.326 -28.946   5.969  0.00  0.00    -0.011 C 
ATOM     16  C   LIG    1       24.873 -30.206   6.080  0.00  0.00    +0.005 C 
BRANCH  16  17
ATOM     17  C   LIG    1       25.729 -31.355   5.771  0.00  0.00    -0.025 A 
ATOM     18  C   LIG    1       26.562 -31.907   6.749  0.00  0.00    +0.008 A 
ATOM     19  C   LIG    1       27.411 -32.972   6.430  0.00  0.00    +0.001 A 
ATOM     20  C   LIG    1       27.431 -33.485   5.134  0.00  0.00    +0.000 A 
ATOM     21  C   LIG    1       26.597 -32.946   4.157  0.00  0.00    +0.001 A 
ATOM     22  C   LIG    1       25.746 -31.884   4.475  0.00  0.00    +0.008 A 
ENDBRANCH  16  17
ENDBRANCH  14  15
ENDBRANCH   2  14
TORSDOF 5
ENDMDL
MODEL 7
REMARK VINA RESULT:      -8.5      3.016      8.441
REMARK  Name = *****
REMARK                            x       y       z     vdW  Elec       q    Type
REMARK                         _______ _______ _______ _____ _____    ______ ____
ROOT
ATOM      1  C   LIG    1       22.265 -23.272   6.620  0.00  0.00    +0.105 C 
ATOM      2  N   LIG    1       23.523 -22.933   7.280  0.00  0.00    -0.297 NA
ENDROOT
BRANCH   2   3
ATOM      3  C   LIG    1       23.748 -21.482   7.415  0.00  0.00    +0.120 C 
BRANCH   3   4
ATOM      4  C   LIG    1       24.617 -20.816   6.347  0.00  0.00    -0.026 A 
ATOM      5  C   LIG    1       26.011 -20.554   6.502  0.00  0.00    -0.013 A 
ATOM      6  C   LIG    1       26.723 -19.959   5.425  0.00  0.00    -0.018 A 
ATOM      7  C   LIG    1       28.099 -19.686   5.541  0.00  0.00    +0.008 A 
ATOM      8  C   LIG    1       28.789 -19.994   6.709  0.00  0.00    +0.001 A 
ATOM      9  C   LIG    1       28.118 -20.588   7.765  0.00  0.00    +0.001 A 
ATOM     10  C   LIG    1       26.064 -19.650   4.229  0.00  0.00    +0.008 A 
ATOM     11  C   LIG    1       24.715 -19.937   4.067  0.00  0.00    +0.001 A 
ATOM     12  C   LIG    1       26.747 -20.868   7.665  0.00  0.00    +0.009 A 
ATOM     13  C   LIG    1       24.003 -20.521   5.112  0.00  0.00    +0.005 A 
ENDBRANCH   3   4
ENDBRANCH   2   3
BRANCH   2  14
ATOM     14  C   LIG    1       24.675 -23.603   6.658  0.00  0.00    +0.111 C 
BRANCH  14  15
ATOM     15  C   LIG    1       24.593 -25.099   6.480  0.00  0.00    -0.011 C 
ATOM     16  C   LIG    1       25.630 -25.943   6.604  0.00  0.00    +0.005 C 
BRANCH  16  17
ATOM     17  C   LIG    1       25.447 -27.395   6.522  0.00  0.00    -0.025 A 
ATOM     18  C   LIG    1       25.154 -28.009   5.300  0.00  0.00    +0.008 A 
ATOM     19  C   LIG    1       24.933 -29.389   5.242  0.00  0.00    +0.001 A 
ATOM     20  C   LIG    1       25.002 -30.157   6.403  0.00  0.00    +0.000 A 
ATOM     21  C   LIG    1       25.304 -29.553   7.622  0.00  0.00    +0.001 A 
ATOM     22  C   LIG    1       25.527 -28.175   7.681  0.00  0.00    +0.008 A 
ENDBRANCH  16  17
ENDBRANCH  14  15
ENDBRANCH   2  14
TORSDOF 5
ENDMDL
MODEL 8
REMARK VINA RESULT:      -8.4      3.891      8.531
REMARK  Name = *****
REMARK                            x       y       z     vdW  Elec       q    Type
REMARK                         _______ _______ _______ _____ _____    ______ ____
ROOT
ATOM      1  C   LIG    1       25.903 -26.644   4.281  0.00  0.00    +0.105 C 
ATOM      2  N   LIG    1       25.077 -26.503   5.476  0.00  0.00    -0.297 NA
ENDROOT
BRANCH   2   3
ATOM      3  C   LIG    1       25.626 -25.558   6.467  0.00  0.00    +0.120 C 
BRANCH   3   4
ATOM      4  C   LIG    1       24.790 -24.313   6.770  0.00  0.00    -0.026 A 
ATOM      5  C   LIG    1       25.344 -23.053   7.144  0.00  0.00    -0.013 A 
ATOM      6  C   LIG    1       24.468 -21.956   7.370  0.00  0.00    -0.018 A 
ATOM      7  C   LIG    1       24.978 -20.697   7.740  0.00  0.00    +0.008 A 
ATOM      8  C   LIG    1       26.347 -20.500   7.890  0.00  0.00    +0.001 A 
ATOM      9  C   LIG    1       27.219 -21.551   7.660  0.00  0.00    +0.001 A 
ATOM     10  C   LIG    1       23.085 -22.114   7.212  0.00  0.00    +0.008 A 
ATOM     11  C   LIG    1       22.552 -23.332   6.814  0.00  0.00    +0.001 A 
ATOM     12  C   LIG    1       26.728 -22.811   7.290  0.00  0.00    +0.009 A 
ATOM     13  C   LIG    1       23.396 -24.416   6.588  0.00  0.00    +0.005 A 
ENDBRANCH   3   4
ENDBRANCH   2   3
BRANCH   2  14
ATOM     14  C   LIG    1       24.756 -27.801   6.088  0.00  0.00    +0.111 C 
BRANCH  14  15
ATOM     15  C   LIG    1       25.291 -28.063   7.475  0.00  0.00    -0.011 C 
ATOM     16  C   LIG    1       25.120 -29.207   8.158  0.00  0.00    +0.005 C 
BRANCH  16  17
ATOM     17  C   LIG    1       25.761 -29.423   9.458  0.00  0.00    -0.025 A 
ATOM     18  C   LIG    1       25.342 -30.459  10.297  0.00  0.00    +0.008 A 
ATOM     19  C   LIG    1       25.929 -30.626  11.556  0.00  0.00    +0.001 A 
ATOM     20  C   LIG    1       26.933 -29.756  11.980  0.00  0.00    +0.000 A 
ATOM     21  C   LIG    1       27.362 -28.728  11.144  0.00  0.00    +0.001 A 
ATOM     22  C   LIG    1       26.779 -28.562   9.885  0.00  0.00    +0.008 A 
ENDBRANCH  16  17
ENDBRANCH  14  15
ENDBRANCH   2  14
TORSDOF 5
ENDMDL
MODEL 9
REMARK VINA RESULT:      -8.4      1.660      2.633
REMARK  Name = *****
REMARK                            x       y       z     vdW  Elec       q    Type
REMARK                         _______ _______ _______ _____ _____    ______ ____
ROOT
ATOM      1  C   LIG    1       28.942 -18.645   5.524  0.00  0.00    +0.105 C 
ATOM      2  N   LIG    1       28.708 -19.984   6.057  0.00  0.00    -0.297 NA
ENDROOT
BRANCH   2   3
ATOM      3  C   LIG    1       27.374 -20.156   6.661  0.00  0.00    +0.120 C 
BRANCH   3   4
ATOM      4  C   LIG    1       26.186 -20.240   5.701  0.00  0.00    -0.026 A 
ATOM      5  C   LIG    1       24.959 -20.900   6.006  0.00  0.00    -0.013 A 
ATOM      6  C   LIG    1       23.912 -20.883   5.044  0.00  0.00    -0.018 A 
ATOM      7  C   LIG    1       22.686 -21.523   5.310  0.00  0.00    +0.008 A 
ATOM      8  C   LIG    1       22.475 -22.181   6.518  0.00  0.00    +0.001 A 
ATOM      9  C   LIG    1       23.476 -22.196   7.474  0.00  0.00    +0.001 A 
ATOM     10  C   LIG    1       24.085 -20.217   3.825  0.00  0.00    +0.008 A 
ATOM     11  C   LIG    1       25.267 -19.547   3.544  0.00  0.00    +0.001 A 
ATOM     12  C   LIG    1       24.702 -21.563   7.226  0.00  0.00    +0.009 A 
ATOM     13  C   LIG    1       26.302 -19.551   4.476  0.00  0.00    +0.005 A 
ENDBRANCH   3   4
ENDBRANCH   2   3
BRANCH   2  14
ATOM     14  C   LIG    1       29.775 -20.412   6.975  0.00  0.00    +0.111 C 
BRANCH  14  15
ATOM     15  C   LIG    1       30.501 -19.334   7.742  0.00  0.00    -0.011 C 
ATOM     16  C   LIG    1       30.089 -18.816   8.911  0.00  0.00    +0.005 C 
BRANCH  16  17
ATOM     17  C   LIG    1       30.906 -17.848   9.647  0.00  0.00    -0.025 A 
ATOM     18  C   LIG    1       30.533 -17.426  10.927  0.00  0.00    +0.008 A 
ATOM     19  C   LIG    1       31.293 -16.464  11.600  0.00  0.00    +0.001 A 
ATOM     20  C   LIG    1       32.426 -15.921  10.996  0.00  0.00    +0.000 A 
ATOM     21  C   LIG    1       32.810 -16.345   9.726  0.00  0.00    +0.001 A 
ATOM     22  C   LIG    1       32.052 -17.307   9.053  0.00  0.00    +0.008 A 
ENDBRANCH  16  17
ENDBRANCH  14  15
ENDBRANCH   2  14
TORSDOF 5
ENDMDL
