MODEL 1
REMARK VINA RESULT:      -3.7      0.000      0.000
REMARK  Name = *****
REMARK                            x       y       z     vdW  Elec       q    Type
REMARK                         _______ _______ _______ _____ _____    ______ ____
ROOT
ATOM      1  N   LIG    1       25.757 -17.898   2.894  0.00  0.00    -0.199 N 
ATOM      2  H   LIG    1       25.427 -17.987   1.935  0.00  0.00    +0.175 HD
ENDROOT
BRANCH   1   7
ATOM      3  C   LIG    1       24.860 -14.555   4.001  0.00  0.00    +0.222 A 
ATOM      4  N   LIG    1       26.083 -14.023   4.136  0.00  0.00    -0.160 NA
ATOM      5  C   LIG    1       27.114 -14.816   3.829  0.00  0.00    +0.323 A 
ATOM      6  N   LIG    1       27.017 -16.083   3.425  0.00  0.00    -0.178 NA
ATOM      7  C   LIG    1       25.770 -16.552   3.319  0.00  0.00    +0.148 A 
ATOM      8  C   LIG    1       24.629 -15.836   3.578  0.00  0.00    +0.112 A 
BRANCH   3  10
ATOM      9  C   LIG    1       24.019 -12.394   4.238  0.00  0.00    +0.278 C 
ATOM     10  O   LIG    1       23.771 -13.794   4.371  0.00  0.00    -0.479 OA
ENDBRANCH   3  10
BRANCH   5  11
ATOM     11  O   LIG    1       28.397 -14.323   3.918  0.00  0.00    -0.466 OA
ATOM     12  C   LIG    1       28.424 -12.900   3.947  0.00  0.00    +0.280 C 
ENDBRANCH   5  11
ENDBRANCH   1   7
BRANCH   1  13
ATOM     13  S   LIG    1       24.983 -19.019   3.880  0.00  0.00    +0.073 S 
ATOM     14  O   LIG    1       24.472 -20.081   3.047  0.00  0.00    -0.150 OA
ATOM     15  O   LIG    1       24.095 -18.255   4.741  0.00  0.00    -0.150 OA
BRANCH  13  16
ATOM     16  C   LIG    1       26.274 -19.697   4.902  0.00  0.00    +0.109 A 
ATOM     17  C   LIG    1       27.568 -19.174   4.794  0.00  0.00    +0.030 A 
ATOM     18  C   LIG    1       28.603 -19.733   5.545  0.00  0.00    +0.024 A 
ATOM     19  C   LIG    1       28.358 -20.792   6.424  0.00  0.00    +0.025 A 
ATOM     20  C   LIG    1       27.074 -21.345   6.472  0.00  0.00    +0.024 A 
ATOM     21  C   LIG    1       26.026 -20.795   5.724  0.00  0.00    +0.030 A 
BRANCH  19  22
ATOM     22  N   LIG    1       29.429 -21.440   7.050  0.00  0.00    -0.358 N 
ATOM     23  H   LIG    1       29.933 -20.862   7.715  0.00  0.00    +0.142 HD
ATOM     24  H   LIG    1       29.198 -22.353   7.427  0.00  0.00    +0.142 HD
ENDBRANCH  19  22
ENDBRANCH  13  16
ENDBRANCH   1  13
TORSDOF 6
ENDMDL
MODEL 2
REMARK VINA RESULT:      -3.3      2.351      6.191
REMARK  Name = *****
REMARK                            x       y       z     vdW  Elec       q    Type
REMARK                         _______ _______ _______ _____ _____    ______ ____
ROOT
ATOM      1  N   LIG    1       26.289 -16.746   2.958  0.00  0.00    -0.199 N 
ATOM      2  H   LIG    1       27.286 -16.646   3.136  0.00  0.00    +0.175 HD
ENDROOT
BRANCH   1   7
ATOM      3  C   LIG    1       24.139 -19.430   4.134  0.00  0.00    +0.222 A 
ATOM      4  N   LIG    1       25.032 -20.149   4.829  0.00  0.00    -0.160 NA
ATOM      5  C   LIG    1       26.279 -19.673   4.867  0.00  0.00    +0.323 A 
ATOM      6  N   LIG    1       26.700 -18.564   4.257  0.00  0.00    -0.178 NA
ATOM      7  C   LIG    1       25.761 -17.899   3.577  0.00  0.00    +0.148 A 
ATOM      8  C   LIG    1       24.443 -18.266   3.480  0.00  0.00    +0.112 A 
BRANCH   3  10
ATOM      9  C   LIG    1       22.468 -20.706   5.139  0.00  0.00    +0.278 C 
ATOM     10  O   LIG    1       22.856 -19.919   4.012  0.00  0.00    -0.479 OA
ENDBRANCH   3  10
BRANCH   5  11
ATOM     11  O   LIG    1       27.239 -20.349   5.588  0.00  0.00    -0.466 OA
ATOM     12  C   LIG    1       26.827 -20.600   6.927  0.00  0.00    +0.280 C 
ENDBRANCH   5  11
ENDBRANCH   1   7
BRANCH   1  13
ATOM     13  S   LIG    1       25.502 -15.285   3.231  0.00  0.00    +0.073 S 
ATOM     14  O   LIG    1       24.459 -15.505   4.205  0.00  0.00    -0.150 OA
ATOM     15  O   LIG    1       25.192 -14.742   1.919  0.00  0.00    -0.150 OA
BRANCH  13  16
ATOM     16  C   LIG    1       26.733 -14.234   3.973  0.00  0.00    +0.109 A 
ATOM     17  C   LIG    1       26.529 -13.770   5.278  0.00  0.00    +0.030 A 
ATOM     18  C   LIG    1       27.455 -12.899   5.853  0.00  0.00    +0.024 A 
ATOM     19  C   LIG    1       28.599 -12.506   5.152  0.00  0.00    +0.025 A 
ATOM     20  C   LIG    1       28.756 -12.928   3.828  0.00  0.00    +0.024 A 
ATOM     21  C   LIG    1       27.834 -13.801   3.237  0.00  0.00    +0.030 A 
BRANCH  19  22
ATOM     22  N   LIG    1       29.435 -11.516   5.681  0.00  0.00    -0.358 N 
ATOM     23  H   LIG    1       30.313 -11.867   6.050  0.00  0.00    +0.142 HD
ATOM     24  H   LIG    1       29.563 -10.714   5.073  0.00  0.00    +0.142 HD
ENDBRANCH  19  22
ENDBRANCH  13  16
ENDBRANCH   1  13
TORSDOF 6
ENDMDL
MODEL 3
REMARK VINA RESULT:      -3.0      2.157      2.758
REMARK  Name = *****
REMARK                            x       y       z     vdW  Elec       q    Type
REMARK                         _______ _______ _______ _____ _____    ______ ____
ROOT
ATOM      1  N   LIG    1       24.954 -16.817   3.009  0.00  0.00    -0.199 N 
ATOM      2  H   LIG    1       24.025 -17.058   3.348  0.00  0.00    +0.175 HD
ENDROOT
BRANCH   1   7
ATOM      3  C   LIG    1       25.072 -13.464   4.405  0.00  0.00    +0.222 A 
ATOM      4  N   LIG    1       26.328 -13.125   4.080  0.00  0.00    -0.160 NA
ATOM      5  C   LIG    1       27.033 -14.036   3.403  0.00  0.00    +0.323 A 
ATOM      6  N   LIG    1       26.594 -15.245   3.051  0.00  0.00    -0.178 NA
ATOM      7  C   LIG    1       25.337 -15.520   3.412  0.00  0.00    +0.148 A 
ATOM      8  C   LIG    1       24.500 -14.667   4.085  0.00  0.00    +0.112 A 
BRANCH   3  10
ATOM      9  C   LIG    1       23.771 -11.530   4.373  0.00  0.00    +0.278 C 
ATOM     10  O   LIG    1       24.330 -12.582   5.162  0.00  0.00    -0.479 OA
ENDBRANCH   3  10
BRANCH   5  11
ATOM     11  O   LIG    1       28.321 -13.741   3.013  0.00  0.00    -0.466 OA
ATOM     12  C   LIG    1       29.004 -12.942   3.974  0.00  0.00    +0.280 C 
ENDBRANCH   5  11
ENDBRANCH   1   7
BRANCH   1  13
ATOM     13  S   LIG    1       26.027 -18.077   3.314  0.00  0.00    +0.073 S 
ATOM     14  O   LIG    1       27.144 -17.552   4.062  0.00  0.00    -0.150 OA
ATOM     15  O   LIG    1       26.233 -18.748   2.042  0.00  0.00    -0.150 OA
BRANCH  13  16
ATOM     16  C   LIG    1       25.132 -19.192   4.375  0.00  0.00    +0.109 A 
ATOM     17  C   LIG    1       23.732 -19.160   4.364  0.00  0.00    +0.030 A 
ATOM     18  C   LIG    1       23.017 -19.986   5.232  0.00  0.00    +0.024 A 
ATOM     19  C   LIG    1       23.680 -20.866   6.093  0.00  0.00    +0.025 A 
ATOM     20  C   LIG    1       25.078 -20.839   6.137  0.00  0.00    +0.024 A 
ATOM     21  C   LIG    1       25.809 -20.015   5.273  0.00  0.00    +0.030 A 
BRANCH  19  22
ATOM     22  N   LIG    1       22.957 -21.572   7.062  0.00  0.00    -0.358 N 
ATOM     23  H   LIG    1       22.024 -21.209   7.229  0.00  0.00    +0.142 HD
ATOM     24  H   LIG    1       22.965 -22.578   6.934  0.00  0.00    +0.142 HD
ENDBRANCH  19  22
ENDBRANCH  13  16
ENDBRANCH   1  13
TORSDOF 6
ENDMDL
MODEL 4
REMARK VINA RESULT:      -2.9      0.684      2.331
REMARK  Name = *****
REMARK                            x       y       z     vdW  Elec       q    Type
REMARK                         _______ _______ _______ _____ _____    ______ ____
ROOT
ATOM      1  N   LIG    1       25.880 -17.516   2.833  0.00  0.00    -0.199 N 
ATOM      2  H   LIG    1       25.580 -17.481   1.862  0.00  0.00    +0.175 HD
ENDROOT
BRANCH   1   7
ATOM      3  C   LIG    1       27.197 -14.407   4.179  0.00  0.00    +0.222 A 
ATOM      4  N   LIG    1       26.051 -13.740   4.377  0.00  0.00    -0.160 NA
ATOM      5  C   LIG    1       24.925 -14.387   4.062  0.00  0.00    +0.323 A 
ATOM      6  N   LIG    1       24.859 -15.619   3.556  0.00  0.00    -0.178 NA
ATOM      7  C   LIG    1       26.037 -16.223   3.378  0.00  0.00    +0.148 A 
ATOM      8  C   LIG    1       27.260 -15.682   3.682  0.00  0.00    +0.112 A 
BRANCH   3  10
ATOM      9  C   LIG    1       28.809 -12.963   3.314  0.00  0.00    +0.278 C 
ATOM     10  O   LIG    1       28.386 -13.754   4.426  0.00  0.00    -0.479 OA
ENDBRANCH   3  10
BRANCH   5  11
ATOM     11  O   LIG    1       23.711 -13.769   4.268  0.00  0.00    -0.466 OA
ATOM     12  C   LIG    1       23.838 -12.355   4.373  0.00  0.00    +0.280 C 
ENDBRANCH   5  11
ENDBRANCH   1   7
BRANCH   1  13
ATOM     13  S   LIG    1       24.939 -18.614   3.692  0.00  0.00    +0.073 S 
ATOM     14  O   LIG    1       24.415 -19.587   2.764  0.00  0.00    -0.150 OA
ATOM     15  O   LIG    1       24.048 -17.821   4.521  0.00  0.00    -0.150 OA
BRANCH  13  16
ATOM     16  C   LIG    1       26.082 -19.449   4.773  0.00  0.00    +0.109 A 
ATOM     17  C   LIG    1       27.423 -19.048   4.779  0.00  0.00    +0.030 A 
ATOM     18  C   LIG    1       28.343 -19.730   5.576  0.00  0.00    +0.024 A 
ATOM     19  C   LIG    1       27.937 -20.792   6.390  0.00  0.00    +0.025 A 
ATOM     20  C   LIG    1       26.607 -21.220   6.324  0.00  0.00    +0.024 A 
ATOM     21  C   LIG    1       25.673 -20.547   5.528  0.00  0.00    +0.030 A 
BRANCH  19  22
ATOM     22  N   LIG    1       28.894 -21.561   7.062  0.00  0.00    -0.358 N 
ATOM     23  H   LIG    1       29.630 -21.017   7.501  0.00  0.00    +0.142 HD
ATOM     24  H   LIG    1       28.502 -22.258   7.686  0.00  0.00    +0.142 HD
ENDBRANCH  19  22
ENDBRANCH  13  16
ENDBRANCH   1  13
TORSDOF 6
ENDMDL
MODEL 5
REMARK VINA RESULT:      -2.7      2.310      6.434
REMARK  Name = *****
REMARK                            x       y       z     vdW  Elec       q    Type
REMARK                         _______ _______ _______ _____ _____    ______ ____
ROOT
ATOM      1  N   LIG    1       26.314 -16.714   2.910  0.00  0.00    -0.199 N 
ATOM      2  H   LIG    1       27.319 -16.567   2.968  0.00  0.00    +0.175 HD
ENDROOT
BRANCH   1   7
ATOM      3  C   LIG    1       26.196 -19.765   4.881  0.00  0.00    +0.222 A 
ATOM      4  N   LIG    1       24.909 -20.098   4.709  0.00  0.00    -0.160 NA
ATOM      5  C   LIG    1       24.184 -19.288   3.933  0.00  0.00    +0.323 A 
ATOM      6  N   LIG    1       24.633 -18.180   3.343  0.00  0.00    -0.178 NA
ATOM      7  C   LIG    1       25.922 -17.903   3.561  0.00  0.00    +0.148 A 
ATOM      8  C   LIG    1       26.780 -18.663   4.314  0.00  0.00    +0.112 A 
BRANCH   3  10
ATOM      9  C   LIG    1       28.169 -19.872   6.118  0.00  0.00    +0.278 C 
ATOM     10  O   LIG    1       26.965 -20.535   5.728  0.00  0.00    -0.479 OA
ENDBRANCH   3  10
BRANCH   5  11
ATOM     11  O   LIG    1       22.861 -19.589   3.692  0.00  0.00    -0.466 OA
ATOM     12  C   LIG    1       21.976 -18.743   4.420  0.00  0.00    +0.280 C 
ENDBRANCH   5  11
ENDBRANCH   1   7
BRANCH   1  13
ATOM     13  S   LIG    1       25.498 -15.299   3.312  0.00  0.00    +0.073 S 
ATOM     14  O   LIG    1       24.539 -15.605   4.346  0.00  0.00    -0.150 OA
ATOM     15  O   LIG    1       25.074 -14.707   2.055  0.00  0.00    -0.150 OA
BRANCH  13  16
ATOM     16  C   LIG    1       26.743 -14.238   4.016  0.00  0.00    +0.109 A 
ATOM     17  C   LIG    1       26.564 -13.756   5.318  0.00  0.00    +0.030 A 
ATOM     18  C   LIG    1       27.501 -12.877   5.863  0.00  0.00    +0.024 A 
ATOM     19  C   LIG    1       28.630 -12.492   5.135  0.00  0.00    +0.025 A 
ATOM     20  C   LIG    1       28.760 -12.931   3.813  0.00  0.00    +0.024 A 
ATOM     21  C   LIG    1       27.828 -13.812   3.252  0.00  0.00    +0.030 A 
BRANCH  19  22
ATOM     22  N   LIG    1       29.475 -11.494   5.633  0.00  0.00    -0.358 N 
ATOM     23  H   LIG    1       28.992 -10.751   6.128  0.00  0.00    +0.142 HD
ATOM     24  H   LIG    1       30.275 -11.846   6.147  0.00  0.00    +0.142 HD
ENDBRANCH  19  22
ENDBRANCH  13  16
ENDBRANCH   1  13
TORSDOF 6
ENDMDL
MODEL 6
REMARK VINA RESULT:      -2.1      2.126      2.759
REMARK  Name = *****
REMARK                            x       y       z     vdW  Elec       q    Type
REMARK                         _______ _______ _______ _____ _____    ______ ____
ROOT
ATOM      1  N   LIG    1       22.180 -17.617   4.812  0.00  0.00    -0.199 N 
ATOM      2  H   LIG    1       22.132 -17.722   5.823  0.00  0.00    +0.175 HD
ENDROOT
BRANCH   1   7
ATOM      3  C   LIG    1       23.827 -14.458   4.096  0.00  0.00    +0.222 A 
ATOM      4  N   LIG    1       25.020 -14.910   3.684  0.00  0.00    -0.160 NA
ATOM      5  C   LIG    1       25.176 -16.237   3.659  0.00  0.00    +0.323 A 
ATOM      6  N   LIG    1       24.255 -17.129   4.026  0.00  0.00    -0.178 NA
ATOM      7  C   LIG    1       23.093 -16.610   4.434  0.00  0.00    +0.148 A 
ATOM      8  C   LIG    1       22.796 -15.272   4.483  0.00  0.00    +0.112 A 
BRANCH   3  10
ATOM      9  C   LIG    1       24.227 -12.385   3.109  0.00  0.00    +0.278 C 
ATOM     10  O   LIG    1       23.645 -13.095   4.203  0.00  0.00    -0.479 OA
ENDBRANCH   3  10
BRANCH   5  11
ATOM     11  O   LIG    1       26.367 -16.769   3.217  0.00  0.00    -0.466 OA
ATOM     12  C   LIG    1       27.491 -16.026   3.676  0.00  0.00    +0.280 C 
ENDBRANCH   5  11
ENDBRANCH   1   7
BRANCH   1  13
ATOM     13  S   LIG    1       22.333 -19.123   4.079  0.00  0.00    +0.073 S 
ATOM     14  O   LIG    1       22.710 -18.922   2.701  0.00  0.00    -0.150 OA
ATOM     15  O   LIG    1       21.131 -19.863   4.422  0.00  0.00    -0.150 OA
BRANCH  13  16
ATOM     16  C   LIG    1       23.701 -19.900   4.914  0.00  0.00    +0.109 A 
ATOM     17  C   LIG    1       23.519 -20.367   6.221  0.00  0.00    +0.030 A 
ATOM     18  C   LIG    1       24.597 -20.925   6.910  0.00  0.00    +0.024 A 
ATOM     19  C   LIG    1       25.850 -21.049   6.301  0.00  0.00    +0.025 A 
ATOM     20  C   LIG    1       26.030 -20.520   5.019  0.00  0.00    +0.024 A 
ATOM     21  C   LIG    1       24.959 -19.956   4.316  0.00  0.00    +0.030 A 
BRANCH  19  22
ATOM     22  N   LIG    1       26.953 -21.466   7.054  0.00  0.00    -0.358 N 
ATOM     23  H   LIG    1       27.264 -20.790   7.744  0.00  0.00    +0.142 HD
ATOM     24  H   LIG    1       26.863 -22.400   7.439  0.00  0.00    +0.142 HD
ENDBRANCH  19  22
ENDBRANCH  13  16
ENDBRANCH   1  13
TORSDOF 6
ENDMDL
MODEL 7
REMARK VINA RESULT:      -1.9      2.073      3.278
REMARK  Name = *****
REMARK                            x       y       z     vdW  Elec       q    Type
REMARK                         _______ _______ _______ _____ _____    ______ ____
ROOT
ATOM      1  N   LIG    1       22.340 -17.519   4.771  0.00  0.00    -0.199 N 
ATOM      2  H   LIG    1       22.265 -17.606   5.782  0.00  0.00    +0.175 HD
ENDROOT
BRANCH   1   7
ATOM      3  C   LIG    1       25.319 -15.806   3.588  0.00  0.00    +0.222 A 
ATOM      4  N   LIG    1       24.929 -14.534   3.748  0.00  0.00    -0.160 NA
ATOM      5  C   LIG    1       23.707 -14.345   4.255  0.00  0.00    +0.323 A 
ATOM      6  N   LIG    1       22.854 -15.313   4.591  0.00  0.00    -0.178 NA
ATOM      7  C   LIG    1       23.303 -16.557   4.400  0.00  0.00    +0.148 A 
ATOM      8  C   LIG    1       24.542 -16.887   3.911  0.00  0.00    +0.112 A 
BRANCH   3  10
ATOM      9  C   LIG    1       27.590 -15.286   3.608  0.00  0.00    +0.278 C 
ATOM     10  O   LIG    1       26.544 -16.048   3.004  0.00  0.00    -0.479 OA
ENDBRANCH   3  10
BRANCH   5  11
ATOM     11  O   LIG    1       23.256 -13.061   4.472  0.00  0.00    -0.466 OA
ATOM     12  C   LIG    1       24.313 -12.108   4.438  0.00  0.00    +0.280 C 
ENDBRANCH   5  11
ENDBRANCH   1   7
BRANCH   1  13
ATOM     13  S   LIG    1       22.444 -19.041   4.064  0.00  0.00    +0.073 S 
ATOM     14  O   LIG    1       22.821 -18.876   2.681  0.00  0.00    -0.150 OA
ATOM     15  O   LIG    1       21.222 -19.739   4.424  0.00  0.00    -0.150 OA
BRANCH  13  16
ATOM     16  C   LIG    1       23.793 -19.845   4.906  0.00  0.00    +0.109 A 
ATOM     17  C   LIG    1       23.600 -20.294   6.217  0.00  0.00    +0.030 A 
ATOM     18  C   LIG    1       24.663 -20.873   6.912  0.00  0.00    +0.024 A 
ATOM     19  C   LIG    1       25.912 -21.034   6.304  0.00  0.00    +0.025 A 
ATOM     20  C   LIG    1       26.105 -20.522   5.017  0.00  0.00    +0.024 A 
ATOM     21  C   LIG    1       25.049 -19.938   4.309  0.00  0.00    +0.030 A 
BRANCH  19  22
ATOM     22  N   LIG    1       27.005 -21.472   7.061  0.00  0.00    -0.358 N 
ATOM     23  H   LIG    1       27.559 -22.193   6.611  0.00  0.00    +0.142 HD
ATOM     24  H   LIG    1       27.575 -20.722   7.438  0.00  0.00    +0.142 HD
ENDBRANCH  19  22
ENDBRANCH  13  16
ENDBRANCH   1  13
TORSDOF 6
ENDMDL
MODEL 8
REMARK VINA RESULT:      -1.8      3.375      6.003
REMARK  Name = *****
REMARK                            x       y       z     vdW  Elec       q    Type
REMARK                         _______ _______ _______ _____ _____    ______ ____
ROOT
ATOM      1  N   LIG    1       23.097 -14.769   4.938  0.00  0.00    -0.199 N 
ATOM      2  H   LIG    1       22.159 -14.607   5.297  0.00  0.00    +0.175 HD
ENDROOT
BRANCH   1   7
ATOM      3  C   LIG    1       22.711 -18.324   4.289  0.00  0.00    +0.222 A 
ATOM      4  N   LIG    1       23.876 -18.571   3.673  0.00  0.00    -0.160 NA
ATOM      5  C   LIG    1       24.708 -17.536   3.538  0.00  0.00    +0.323 A 
ATOM      6  N   LIG    1       24.462 -16.290   3.946  0.00  0.00    -0.178 NA
ATOM      7  C   LIG    1       23.281 -16.112   4.545  0.00  0.00    +0.148 A 
ATOM      8  C   LIG    1       22.349 -17.093   4.768  0.00  0.00    +0.112 A 
BRANCH   3  10
ATOM      9  C   LIG    1       22.383 -20.559   4.864  0.00  0.00    +0.278 C 
ATOM     10  O   LIG    1       21.793 -19.348   4.390  0.00  0.00    -0.479 OA
ENDBRANCH   3  10
BRANCH   5  11
ATOM     11  O   LIG    1       25.935 -17.728   2.940  0.00  0.00    -0.466 OA
ATOM     12  C   LIG    1       26.992 -17.121   3.675  0.00  0.00    +0.280 C 
ENDBRANCH   5  11
ENDBRANCH   1   7
BRANCH   1  13
ATOM     13  S   LIG    1       23.509 -13.570   3.833  0.00  0.00    +0.073 S 
ATOM     14  O   LIG    1       23.085 -12.297   4.364  0.00  0.00    -0.150 OA
ATOM     15  O   LIG    1       23.035 -14.032   2.540  0.00  0.00    -0.150 OA
BRANCH  13  16
ATOM     16  C   LIG    1       25.289 -13.580   3.790  0.00  0.00    +0.109 A 
ATOM     17  C   LIG    1       25.996 -13.388   4.983  0.00  0.00    +0.030 A 
ATOM     18  C   LIG    1       27.390 -13.335   4.958  0.00  0.00    +0.024 A 
ATOM     19  C   LIG    1       28.092 -13.498   3.760  0.00  0.00    +0.025 A 
ATOM     20  C   LIG    1       27.369 -13.624   2.569  0.00  0.00    +0.024 A 
ATOM     21  C   LIG    1       25.970 -13.678   2.578  0.00  0.00    +0.030 A 
BRANCH  19  22
ATOM     22  N   LIG    1       29.475 -13.288   3.727  0.00  0.00    -0.358 N 
ATOM     23  H   LIG    1       30.008 -14.087   3.402  0.00  0.00    +0.142 HD
ATOM     24  H   LIG    1       29.753 -12.425   3.272  0.00  0.00    +0.142 HD
ENDBRANCH  19  22
ENDBRANCH  13  16
ENDBRANCH   1  13
TORSDOF 6
ENDMDL
MODEL 9
REMARK VINA RESULT:      -1.5      3.405      6.406
REMARK  Name = *****
REMARK                            x       y       z     vdW  Elec       q    Type
REMARK                         _______ _______ _______ _____ _____    ______ ____
ROOT
ATOM      1  N   LIG    1       23.130 -14.801   4.975  0.00  0.00    -0.199 N 
ATOM      2  H   LIG    1       22.151 -14.766   5.251  0.00  0.00    +0.175 HD
ENDROOT
BRANCH   1   7
ATOM      3  C   LIG    1       24.855 -17.638   3.499  0.00  0.00    +0.222 A 
ATOM      4  N   LIG    1       23.913 -18.580   3.645  0.00  0.00    -0.160 NA
ATOM      5  C   LIG    1       22.766 -18.191   4.209  0.00  0.00    +0.323 A 
ATOM      6  N   LIG    1       22.501 -16.960   4.648  0.00  0.00    -0.178 NA
ATOM      7  C   LIG    1       23.486 -16.073   4.478  0.00  0.00    +0.148 A 
ATOM      8  C   LIG    1       24.698 -16.336   3.893  0.00  0.00    +0.112 A 
BRANCH   3  10
ATOM      9  C   LIG    1       27.162 -17.321   3.611  0.00  0.00    +0.278 C 
ATOM     10  O   LIG    1       26.079 -18.011   2.985  0.00  0.00    -0.479 OA
ENDBRANCH   3  10
BRANCH   5  11
ATOM     11  O   LIG    1       21.744 -19.103   4.362  0.00  0.00    -0.466 OA
ATOM     12  C   LIG    1       22.208 -20.348   4.873  0.00  0.00    +0.280 C 
ENDBRANCH   5  11
ENDBRANCH   1   7
BRANCH   1  13
ATOM     13  S   LIG    1       23.516 -13.460   4.036  0.00  0.00    +0.073 S 
ATOM     14  O   LIG    1       23.137 -12.272   4.761  0.00  0.00    -0.150 OA
ATOM     15  O   LIG    1       22.981 -13.727   2.712  0.00  0.00    -0.150 OA
BRANCH  13  16
ATOM     16  C   LIG    1       25.293 -13.484   3.914  0.00  0.00    +0.109 A 
ATOM     17  C   LIG    1       26.053 -13.362   5.084  0.00  0.00    +0.030 A 
ATOM     18  C   LIG    1       27.445 -13.320   5.000  0.00  0.00    +0.024 A 
ATOM     19  C   LIG    1       28.092 -13.426   3.765  0.00  0.00    +0.025 A 
ATOM     20  C   LIG    1       27.317 -13.483   2.602  0.00  0.00    +0.024 A 
ATOM     21  C   LIG    1       25.919 -13.524   2.670  0.00  0.00    +0.030 A 
BRANCH  19  22
ATOM     22  N   LIG    1       29.475 -13.227   3.683  0.00  0.00    -0.358 N 
ATOM     23  H   LIG    1       29.848 -13.289   2.741  0.00  0.00    +0.142 HD
ATOM     24  H   LIG    1       29.806 -12.406   4.177  0.00  0.00    +0.142 HD
ENDBRANCH  19  22
ENDBRANCH  13  16
ENDBRANCH   1  13
TORSDOF 6
ENDMDL
