MODEL 1
REMARK VINA RESULT:      23.0      0.000      0.000
REMARK  Name = *****
REMARK                            x       y       z     vdW  Elec       q    Type
REMARK                         _______ _______ _______ _____ _____    ______ ____
ROOT
ATOM      1  C   LIG    1       24.510 -18.273   2.534  0.00  0.00    +0.160 C 
ENDROOT
BRANCH   1   2
ATOM      2  N   LIG    1       25.779 -17.915   3.176  0.00  0.00    -0.302 N 
ATOM      3  H   LIG    1       26.113 -18.620   3.813  0.00  0.00    +0.149 HD
ATOM      4  C   LIG    1       26.140 -16.613   3.497  0.00  0.00    +0.234 C 
ATOM      5  O   LIG    1       25.428 -15.645   3.230  0.00  0.00    -0.274 OA
BRANCH   4   6
ATOM      6  C   LIG    1       27.542 -16.435   4.151  0.00  0.00    +0.163 C 
BRANCH   6   7
ATOM      7  N   LIG    1       28.131 -17.770   4.363  0.00  0.00    -0.304 N 
ATOM      8  H   LIG    1       27.707 -18.536   3.850  0.00  0.00    +0.149 HD
ATOM      9  C   LIG    1       29.036 -18.062   5.350  0.00  0.00    +0.215 C 
ATOM     10  O   LIG    1       29.463 -17.238   6.152  0.00  0.00    -0.276 OA
BRANCH   9  11
ATOM     11  C   LIG    1       29.474 -19.507   5.370  0.00  0.00    +0.114 C 
BRANCH  11  12
ATOM     12  C   LIG    1       29.063 -20.169   6.669  0.00  0.00    +0.117 C 
BRANCH  12  13
ATOM     13  N   LIG    1       27.931 -21.044   6.449  0.00  0.00    -0.281 N 
ATOM     14  H   LIG    1       28.030 -22.052   6.486  0.00  0.00    +0.152 HD
ATOM     15  C   LIG    1       26.706 -20.571   6.131  0.00  0.00    +0.400 C 
ATOM     16  O   LIG    1       26.450 -19.364   5.953  0.00  0.00    -0.227 OA
BRANCH  15  17
ATOM     17  O   LIG    1       25.796 -21.558   6.101  0.00  0.00    -0.450 OA
BRANCH  17  18
ATOM     18  C   LIG    1       24.730 -21.440   7.059  0.00  0.00    +0.236 C 
BRANCH  18  19
ATOM     19  C   LIG    1       23.506 -20.823   6.362  0.00  0.00    +0.021 C 
ATOM     20  C   LIG    1       23.382 -19.329   6.677  0.00  0.00    +0.010 C 
ATOM     21  C   LIG    1       22.214 -21.537   6.747  0.00  0.00    +0.010 C 
ENDBRANCH  18  19
ENDBRANCH  17  18
ENDBRANCH  15  17
ENDBRANCH  12  13
ENDBRANCH  11  12
ENDBRANCH   9  11
ENDBRANCH   6   7
BRANCH   6  22
ATOM     22  C   LIG    1       28.535 -15.638   3.302  0.00  0.00    +0.069 C 
BRANCH  22  23
ATOM     23  C   LIG    1       28.163 -14.231   2.992  0.00  0.00    -0.020 C 
ATOM     24  C   LIG    1       26.865 -13.755   2.598  0.00  0.00    +0.003 C 
ATOM     25  C   LIG    1       26.994 -12.391   2.357  0.00  0.00    +0.047 C 
ATOM     26  C   LIG    1       25.945 -11.595   1.894  0.00  0.00    +0.026 C 
ATOM     27  C   LIG    1       24.681 -12.178   1.815  0.00  0.00    +0.002 C 
ATOM     28  C   LIG    1       24.501 -13.533   2.081  0.00  0.00    +0.001 C 
ATOM     29  N   LIG    1       28.286 -12.047   2.658  0.00  0.00    -0.360 NA
ATOM     30  H   LIG    1       28.646 -11.108   2.625  0.00  0.00    +0.165 HD
ATOM     31  C   LIG    1       25.591 -14.343   2.431  0.00  0.00    +0.010 C 
ATOM     32  C   LIG    1       28.985 -13.128   3.106  0.00  0.00    +0.087 C 
ENDBRANCH  22  23
ENDBRANCH   6  22
ENDBRANCH   4   6
ENDBRANCH   1   2
BRANCH   1  33
ATOM     33  C   LIG    1       23.281 -17.657   3.301  0.00  0.00    +0.234 C 
ATOM     34  N   LIG    1       22.172 -17.284   2.542  0.00  0.00    -0.302 N 
ATOM     35  H   LIG    1       22.182 -17.470   1.546  0.00  0.00    +0.149 HD
ATOM     36  O   LIG    1       23.359 -17.371   4.495  0.00  0.00    -0.274 OA
BRANCH  34  37
ATOM     37  C   LIG    1       21.032 -16.492   3.102  0.00  0.00    +0.169 C 
BRANCH  37  38
ATOM     38  C   LIG    1       21.420 -15.855   4.493  0.00  0.00    +0.234 C 
ATOM     39  N   LIG    1       22.243 -14.740   4.448  0.00  0.00    -0.302 N 
ATOM     40  H   LIG    1       22.142 -14.170   3.615  0.00  0.00    +0.149 HD
ATOM     41  O   LIG    1       21.140 -16.415   5.552  0.00  0.00    -0.274 OA
BRANCH  39  42
ATOM     42  C   LIG    1       22.796 -14.048   5.644  0.00  0.00    +0.163 C 
BRANCH  42  43
ATOM     43  C   LIG    1       22.737 -12.498   5.634  0.00  0.00    +0.231 C 
ATOM     44  O   LIG    1       22.149 -11.847   6.493  0.00  0.00    -0.274 OA
ATOM     45  N   LIG    1       23.346 -11.882   4.586  0.00  0.00    -0.328 N 
ATOM     46  H   LIG    1       23.371 -10.876   4.528  0.00  0.00    +0.145 HD
ATOM     47  H   LIG    1       23.336 -12.386   3.697  0.00  0.00    +0.145 HD
ENDBRANCH  42  43
BRANCH  42  48
ATOM     48  C   LIG    1       24.105 -14.587   6.281  0.00  0.00    +0.067 C 
BRANCH  48  49
ATOM     49  C   LIG    1       25.305 -13.676   6.214  0.00  0.00    -0.045 C 
ATOM     50  C   LIG    1       26.575 -14.159   6.527  0.00  0.00    +0.003 C 
ATOM     51  C   LIG    1       27.705 -13.401   6.220  0.00  0.00    +0.000 C 
ATOM     52  C   LIG    1       27.578 -12.181   5.559  0.00  0.00    +0.000 C 
ATOM     53  C   LIG    1       26.314 -11.657   5.315  0.00  0.00    +0.000 C 
ATOM     54  C   LIG    1       25.185 -12.368   5.716  0.00  0.00    +0.003 C 
ENDBRANCH  48  49
ENDBRANCH  42  48
ENDBRANCH  39  42
ENDBRANCH  37  38
BRANCH  37  55
ATOM     55  C   LIG    1       19.812 -17.412   3.294  0.00  0.00    +0.152 C 
BRANCH  55  56
ATOM     56  C   LIG    1       20.208 -18.800   3.715  0.00  0.00    +0.307 C 
ATOM     57  O   LIG    1       19.851 -19.817   3.139  0.00  0.00    -0.251 OA
BRANCH  56  58
ATOM     58  O   LIG    1       21.065 -18.819   4.761  0.00  0.00    -0.481 OA
ATOM     59  H   LIG    1       20.794 -18.264   5.519  0.00  0.00    +0.295 HD
ENDBRANCH  56  58
ENDBRANCH  55  56
ENDBRANCH  37  55
ENDBRANCH  34  37
ENDBRANCH   1  33
BRANCH   1  60
ATOM     60  C   LIG    1       24.351 -19.803   2.375  0.00  0.00    +0.042 C 
BRANCH  60  61
ATOM     61  C   LIG    1       23.657 -20.434   3.579  0.00  0.00    +0.071 C 
BRANCH  61  63
ATOM     62  C   LIG    1       21.453 -21.561   4.731  0.00  0.00    +0.084 C 
ATOM     63  S   LIG    1       21.849 -20.260   3.533  0.00  0.00    -0.164 S 
ENDBRANCH  61  63
ENDBRANCH  60  61
ENDBRANCH   1  60
TORSDOF 24
ENDMDL
