MODEL 1
REMARK VINA RESULT:      -2.0      0.000      0.000
REMARK  Name = *****
REMARK                            x       y       z     vdW  Elec       q    Type
REMARK                         _______ _______ _______ _____ _____    ______ ____
ROOT
ATOM      1  C   LIG    1       22.930 -18.631   4.147  0.00  0.00    +0.122 C 
ATOM      2  C   LIG    1       24.118 -18.347   3.188  0.00  0.00    +0.036 C 
ATOM      3  C   LIG    1       24.946 -19.655   3.008  0.00  0.00    +0.028 C 
ATOM      4  C   LIG    1       24.991 -20.552   4.274  0.00  0.00    +0.058 C 
ATOM      5  N   LIG    1       24.752 -19.706   5.456  0.00  0.00    -0.296 NA
ATOM      6  C   LIG    1       23.844 -21.572   4.278  0.00  0.00    +0.020 C 
ATOM      7  C   LIG    1       22.769 -20.944   5.160  0.00  0.00    +0.021 C 
ATOM      8  C   LIG    1       23.281 -19.512   5.390  0.00  0.00    +0.071 C 
ENDROOT
BRANCH   2   9
ATOM      9  C   LIG    1       25.012 -17.132   3.483  0.00  0.00    -0.043 A 
ATOM     10  C   LIG    1       26.414 -17.219   3.494  0.00  0.00    +0.005 A 
ATOM     11  C   LIG    1       27.222 -16.095   3.675  0.00  0.00    +0.014 A 
ATOM     12  C   LIG    1       26.634 -14.855   3.875  0.00  0.00    +0.013 A 
ATOM     13  I   LIG    1       27.841 -13.188   4.151  0.00  0.00    -0.044 I 
ATOM     14  C   LIG    1       25.246 -14.734   3.887  0.00  0.00    +0.014 A 
ATOM     15  C   LIG    1       24.441 -15.864   3.682  0.00  0.00    +0.005 A 
ENDBRANCH   2   9
BRANCH   1  16
ATOM     16  C   LIG    1       22.104 -17.418   4.532  0.00  0.00    +0.312 C 
ATOM     17  O   LIG    1       22.401 -16.654   5.436  0.00  0.00    -0.251 OA
BRANCH  16  19
ATOM     18  C   LIG    1       20.408 -18.534   3.331  0.00  0.00    +0.280 C 
ATOM     19  O   LIG    1       21.010 -17.304   3.726  0.00  0.00    -0.468 OA
ENDBRANCH  16  19
ENDBRANCH   1  16
BRANCH   5  20
ATOM     20  C   LIG    1       25.242 -20.263   6.733  0.00  0.00    +0.087 C 
BRANCH  20  21
ATOM     21  C   LIG    1       26.566 -21.035   6.569  0.00  0.00    +0.049 C 
BRANCH  21  22
ATOM     22  C   LIG    1       27.792 -20.145   6.697  0.00  0.00    +0.214 C 
ATOM     23  F   LIG    1       27.935 -19.406   5.565  0.00  0.00    -0.249 F 
ENDBRANCH  21  22
ENDBRANCH  20  21
ENDBRANCH   5  20
TORSDOF 6
ENDMDL
MODEL 2
REMARK VINA RESULT:      -0.3      3.749      6.383
REMARK  Name = *****
REMARK                            x       y       z     vdW  Elec       q    Type
REMARK                         _______ _______ _______ _____ _____    ______ ____
ROOT
ATOM      1  C   LIG    1       26.506 -13.224   4.207  0.00  0.00    +0.122 C 
ATOM      2  C   LIG    1       26.881 -14.295   3.147  0.00  0.00    +0.036 C 
ATOM      3  C   LIG    1       25.849 -14.236   1.981  0.00  0.00    +0.028 C 
ATOM      4  C   LIG    1       24.410 -13.863   2.430  0.00  0.00    +0.058 C 
ATOM      5  N   LIG    1       24.256 -14.223   3.851  0.00  0.00    -0.296 NA
ATOM      6  C   LIG    1       24.184 -12.345   2.380  0.00  0.00    +0.020 C 
ATOM      7  C   LIG    1       24.404 -11.872   3.812  0.00  0.00    +0.021 C 
ATOM      8  C   LIG    1       24.977 -13.111   4.519  0.00  0.00    +0.071 C 
ENDROOT
BRANCH   2   9
ATOM      9  C   LIG    1       27.128 -15.734   3.629  0.00  0.00    -0.043 A 
ATOM     10  C   LIG    1       28.248 -16.083   4.402  0.00  0.00    +0.005 A 
ATOM     11  C   LIG    1       28.421 -17.371   4.910  0.00  0.00    +0.014 A 
ATOM     12  C   LIG    1       27.478 -18.349   4.632  0.00  0.00    +0.013 A 
ATOM     13  I   LIG    1       27.746 -20.266   5.385  0.00  0.00    -0.044 I 
ATOM     14  C   LIG    1       26.363 -18.043   3.855  0.00  0.00    +0.014 A 
ATOM     15  C   LIG    1       26.184 -16.742   3.365  0.00  0.00    +0.005 A 
ENDBRANCH   2   9
BRANCH   1  16
ATOM     16  C   LIG    1       27.339 -13.247   5.475  0.00  0.00    +0.312 C 
ATOM     17  O   LIG    1       27.007 -13.830   6.494  0.00  0.00    -0.251 OA
BRANCH  16  19
ATOM     18  C   LIG    1       29.003 -12.512   3.973  0.00  0.00    +0.280 C 
ATOM     19  O   LIG    1       28.496 -12.544   5.304  0.00  0.00    -0.468 OA
ENDBRANCH  16  19
ENDBRANCH   1  16
BRANCH   5  20
ATOM     20  C   LIG    1       22.860 -14.408   4.300  0.00  0.00    +0.087 C 
BRANCH  20  21
ATOM     21  C   LIG    1       22.678 -15.685   5.144  0.00  0.00    +0.049 C 
BRANCH  21  22
ATOM     22  C   LIG    1       22.322 -16.904   4.308  0.00  0.00    +0.214 C 
ATOM     23  F   LIG    1       22.208 -17.990   5.119  0.00  0.00    -0.249 F 
ENDBRANCH  21  22
ENDBRANCH  20  21
ENDBRANCH   5  20
TORSDOF 6
ENDMDL
