MODEL 1
REMARK VINA RESULT:      -2.5      0.000      0.000
REMARK  Name = *****
REMARK                            x       y       z     vdW  Elec       q    Type
REMARK                         _______ _______ _______ _____ _____    ______ ____
ROOT
ATOM      1  O   LIG    1       21.593 -21.187   4.871  0.00  0.00    -0.252 OA
ATOM      2  C   LIG    1       22.679 -20.783   4.491  0.00  0.00    +0.307 C 
ATOM      3  N   LIG    1       23.447 -19.868   5.154  0.00  0.00    -0.278 N 
ATOM      4  H   LIG    1       23.116 -19.417   5.994  0.00  0.00    +0.152 HD
ATOM      5  C   LIG    1       24.685 -19.538   4.462  0.00  0.00    +0.163 C 
ATOM      6  C   LIG    1       24.489 -20.485   3.232  0.00  0.00    +0.253 C 
ATOM      7  O   LIG    1       25.237 -20.626   2.271  0.00  0.00    -0.272 OA
ATOM      8  N   LIG    1       23.310 -21.152   3.360  0.00  0.00    -0.238 N 
ATOM      9  H   LIG    1       22.943 -21.807   2.692  0.00  0.00    +0.159 HD
ENDROOT
BRANCH   5  10
ATOM     10  C   LIG    1       24.670 -18.040   4.118  0.00  0.00    -0.011 A 
ATOM     11  C   LIG    1       23.566 -17.211   4.388  0.00  0.00    +0.006 A 
ATOM     12  C   LIG    1       23.590 -15.849   4.072  0.00  0.00    +0.000 A 
ATOM     13  C   LIG    1       24.717 -15.286   3.484  0.00  0.00    +0.000 A 
ATOM     14  C   LIG    1       25.825 -16.083   3.209  0.00  0.00    +0.000 A 
ATOM     15  C   LIG    1       25.803 -17.445   3.525  0.00  0.00    +0.006 A 
ENDBRANCH   5  10
BRANCH   5  16
ATOM     16  C   LIG    1       25.931 -19.958   5.256  0.00  0.00    -0.011 A 
ATOM     17  C   LIG    1       27.220 -19.478   4.956  0.00  0.00    +0.006 A 
ATOM     18  C   LIG    1       28.331 -19.888   5.697  0.00  0.00    +0.000 A 
ATOM     19  C   LIG    1       28.178 -20.784   6.752  0.00  0.00    +0.000 A 
ATOM     20  C   LIG    1       26.915 -21.278   7.061  0.00  0.00    +0.000 A 
ATOM     21  C   LIG    1       25.805 -20.874   6.318  0.00  0.00    +0.006 A 
ENDBRANCH   5  16
TORSDOF 2
ENDMDL
MODEL 2
REMARK VINA RESULT:      -2.4      4.634      6.514
REMARK  Name = *****
REMARK                            x       y       z     vdW  Elec       q    Type
REMARK                         _______ _______ _______ _____ _____    ______ ____
ROOT
ATOM      1  O   LIG    1       23.085 -11.447   5.893  0.00  0.00    -0.252 OA
ATOM      2  C   LIG    1       23.660 -12.092   5.034  0.00  0.00    +0.307 C 
ATOM      3  N   LIG    1       24.597 -13.057   5.277  0.00  0.00    -0.278 N 
ATOM      4  H   LIG    1       24.917 -13.251   6.214  0.00  0.00    +0.152 HD
ATOM      5  C   LIG    1       25.150 -13.650   4.067  0.00  0.00    +0.163 C 
ATOM      6  C   LIG    1       24.309 -12.825   3.035  0.00  0.00    +0.253 C 
ATOM      7  O   LIG    1       24.361 -12.886   1.812  0.00  0.00    -0.272 OA
ATOM      8  N   LIG    1       23.488 -11.972   3.704  0.00  0.00    -0.238 N 
ATOM      9  H   LIG    1       22.860 -11.318   3.268  0.00  0.00    +0.159 HD
ENDROOT
BRANCH   5  10
ATOM     10  C   LIG    1       26.660 -13.365   4.027  0.00  0.00    -0.011 A 
ATOM     11  C   LIG    1       27.441 -13.583   2.879  0.00  0.00    +0.006 A 
ATOM     12  C   LIG    1       28.811 -13.301   2.873  0.00  0.00    +0.000 A 
ATOM     13  C   LIG    1       29.427 -12.794   4.012  0.00  0.00    +0.000 A 
ATOM     14  C   LIG    1       28.675 -12.566   5.161  0.00  0.00    +0.000 A 
ATOM     15  C   LIG    1       27.306 -12.846   5.168  0.00  0.00    +0.006 A 
ENDBRANCH   5  10
BRANCH   5  16
ATOM     16  C   LIG    1       24.817 -15.144   3.941  0.00  0.00    -0.011 A 
ATOM     17  C   LIG    1       25.746 -16.092   3.471  0.00  0.00    +0.006 A 
ATOM     18  C   LIG    1       25.404 -17.442   3.364  0.00  0.00    +0.000 A 
ATOM     19  C   LIG    1       24.131 -17.874   3.724  0.00  0.00    +0.000 A 
ATOM     20  C   LIG    1       23.194 -16.954   4.184  0.00  0.00    +0.000 A 
ATOM     21  C   LIG    1       23.531 -15.603   4.286  0.00  0.00    +0.006 A 
ENDBRANCH   5  16
TORSDOF 2
ENDMDL
MODEL 3
REMARK VINA RESULT:      -2.2      4.625      6.522
REMARK  Name = *****
REMARK                            x       y       z     vdW  Elec       q    Type
REMARK                         _______ _______ _______ _____ _____    ______ ____
ROOT
ATOM      1  O   LIG    1       23.018 -11.447   5.880  0.00  0.00    -0.252 OA
ATOM      2  C   LIG    1       23.608 -12.087   5.026  0.00  0.00    +0.307 C 
ATOM      3  N   LIG    1       24.546 -13.048   5.280  0.00  0.00    -0.278 N 
ATOM      4  H   LIG    1       24.854 -13.243   6.220  0.00  0.00    +0.152 HD
ATOM      5  C   LIG    1       25.118 -13.635   4.076  0.00  0.00    +0.163 C 
ATOM      6  C   LIG    1       24.288 -12.811   3.035  0.00  0.00    +0.253 C 
ATOM      7  O   LIG    1       24.357 -12.869   1.812  0.00  0.00    -0.272 OA
ATOM      8  N   LIG    1       23.453 -11.963   3.694  0.00  0.00    -0.238 N 
ATOM      9  H   LIG    1       22.828 -11.312   3.252  0.00  0.00    +0.159 HD
ENDROOT
BRANCH   5  10
ATOM     10  C   LIG    1       26.627 -13.343   4.057  0.00  0.00    -0.011 A 
ATOM     11  C   LIG    1       27.319 -12.859   5.182  0.00  0.00    +0.006 A 
ATOM     12  C   LIG    1       28.695 -12.616   5.134  0.00  0.00    +0.000 A 
ATOM     13  C   LIG    1       29.409 -12.853   3.964  0.00  0.00    +0.000 A 
ATOM     14  C   LIG    1       28.748 -13.336   2.837  0.00  0.00    +0.000 A 
ATOM     15  C   LIG    1       27.373 -13.580   2.884  0.00  0.00    +0.006 A 
ENDBRANCH   5  10
BRANCH   5  16
ATOM     16  C   LIG    1       24.795 -15.130   3.941  0.00  0.00    -0.011 A 
ATOM     17  C   LIG    1       23.540 -15.670   4.281  0.00  0.00    +0.006 A 
ATOM     18  C   LIG    1       23.286 -17.038   4.149  0.00  0.00    +0.000 A 
ATOM     19  C   LIG    1       24.277 -17.893   3.676  0.00  0.00    +0.000 A 
ATOM     20  C   LIG    1       25.527 -17.383   3.341  0.00  0.00    +0.000 A 
ATOM     21  C   LIG    1       25.785 -16.018   3.477  0.00  0.00    +0.006 A 
ENDBRANCH   5  16
TORSDOF 2
ENDMDL
MODEL 4
REMARK VINA RESULT:      -0.9      4.459      6.397
REMARK  Name = *****
REMARK                            x       y       z     vdW  Elec       q    Type
REMARK                         _______ _______ _______ _____ _____    ______ ____
ROOT
ATOM      1  O   LIG    1       29.475 -12.987   2.811  0.00  0.00    -0.252 OA
ATOM      2  C   LIG    1       28.504 -13.373   3.439  0.00  0.00    +0.307 C 
ATOM      3  N   LIG    1       27.319 -13.764   2.883  0.00  0.00    -0.278 N 
ATOM      4  H   LIG    1       27.159 -13.695   1.889  0.00  0.00    +0.152 HD
ATOM      5  C   LIG    1       26.314 -14.148   3.865  0.00  0.00    +0.163 C 
ATOM      6  C   LIG    1       27.183 -13.912   5.146  0.00  0.00    +0.253 C 
ATOM      7  O   LIG    1       26.844 -14.061   6.315  0.00  0.00    -0.272 OA
ATOM      8  N   LIG    1       28.417 -13.476   4.779  0.00  0.00    -0.238 N 
ATOM      9  H   LIG    1       29.156 -13.234   5.417  0.00  0.00    +0.159 HD
ENDROOT
BRANCH   5  10
ATOM     10  C   LIG    1       25.111 -13.202   3.731  0.00  0.00    -0.011 A 
ATOM     11  C   LIG    1       24.485 -12.610   4.843  0.00  0.00    +0.006 A 
ATOM     12  C   LIG    1       23.399 -11.743   4.685  0.00  0.00    +0.000 A 
ATOM     13  C   LIG    1       22.918 -11.447   3.414  0.00  0.00    +0.000 A 
ATOM     14  C   LIG    1       23.522 -12.016   2.297  0.00  0.00    +0.000 A 
ATOM     15  C   LIG    1       24.608 -12.882   2.453  0.00  0.00    +0.006 A 
ENDBRANCH   5  10
BRANCH   5  16
ATOM     16  C   LIG    1       25.926 -15.631   3.759  0.00  0.00    -0.011 A 
ATOM     17  C   LIG    1       26.878 -16.656   3.603  0.00  0.00    +0.006 A 
ATOM     18  C   LIG    1       26.485 -17.993   3.505  0.00  0.00    +0.000 A 
ATOM     19  C   LIG    1       25.137 -18.334   3.561  0.00  0.00    +0.000 A 
ATOM     20  C   LIG    1       24.178 -17.337   3.707  0.00  0.00    +0.000 A 
ATOM     21  C   LIG    1       24.567 -15.999   3.799  0.00  0.00    +0.006 A 
ENDBRANCH   5  16
TORSDOF 2
ENDMDL
MODEL 5
REMARK VINA RESULT:      -0.4      4.935      7.850
REMARK  Name = *****
REMARK                            x       y       z     vdW  Elec       q    Type
REMARK                         _______ _______ _______ _____ _____    ______ ____
ROOT
ATOM      1  O   LIG    1       29.106 -12.339   6.599  0.00  0.00    -0.252 OA
ATOM      2  C   LIG    1       28.598 -12.682   5.545  0.00  0.00    +0.307 C 
ATOM      3  N   LIG    1       27.383 -13.298   5.427  0.00  0.00    -0.278 N 
ATOM      4  H   LIG    1       26.851 -13.565   6.241  0.00  0.00    +0.152 HD
ATOM      5  C   LIG    1       27.029 -13.627   4.054  0.00  0.00    +0.163 C 
ATOM      6  C   LIG    1       28.312 -13.046   3.369  0.00  0.00    +0.253 C 
ATOM      7  O   LIG    1       28.588 -13.053   2.174  0.00  0.00    -0.272 OA
ATOM      8  N   LIG    1       29.133 -12.526   4.320  0.00  0.00    -0.238 N 
ATOM      9  H   LIG    1       30.031 -12.109   4.140  0.00  0.00    +0.159 HD
ENDROOT
BRANCH   5  10
ATOM     10  C   LIG    1       26.884 -15.153   3.937  0.00  0.00    -0.011 A 
ATOM     11  C   LIG    1       27.872 -16.045   4.390  0.00  0.00    +0.006 A 
ATOM     12  C   LIG    1       27.702 -17.429   4.280  0.00  0.00    +0.000 A 
ATOM     13  C   LIG    1       26.541 -17.949   3.718  0.00  0.00    +0.000 A 
ATOM     14  C   LIG    1       25.546 -17.088   3.265  0.00  0.00    +0.000 A 
ATOM     15  C   LIG    1       25.714 -15.705   3.376  0.00  0.00    +0.006 A 
ENDBRANCH   5  10
BRANCH   5  16
ATOM     16  C   LIG    1       25.786 -12.867   3.569  0.00  0.00    -0.011 A 
ATOM     17  C   LIG    1       25.560 -12.565   2.213  0.00  0.00    +0.006 A 
ATOM     18  C   LIG    1       24.418 -11.866   1.812  0.00  0.00    +0.000 A 
ATOM     19  C   LIG    1       23.480 -11.456   2.755  0.00  0.00    +0.000 A 
ATOM     20  C   LIG    1       23.686 -11.736   4.102  0.00  0.00    +0.000 A 
ATOM     21  C   LIG    1       24.829 -12.429   4.506  0.00  0.00    +0.006 A 
ENDBRANCH   5  16
TORSDOF 2
ENDMDL
MODEL 6
REMARK VINA RESULT:       0.0      1.564      2.251
REMARK  Name = *****
REMARK                            x       y       z     vdW  Elec       q    Type
REMARK                         _______ _______ _______ _____ _____    ______ ____
ROOT
ATOM      1  O   LIG    1       20.356 -18.300   3.597  0.00  0.00    -0.252 OA
ATOM      2  C   LIG    1       21.531 -18.615   3.527  0.00  0.00    +0.307 C 
ATOM      3  N   LIG    1       22.494 -18.248   4.425  0.00  0.00    -0.278 N 
ATOM      4  H   LIG    1       22.285 -17.624   5.190  0.00  0.00    +0.152 HD
ATOM      5  C   LIG    1       23.823 -18.735   4.085  0.00  0.00    +0.163 C 
ATOM      6  C   LIG    1       23.431 -19.499   2.776  0.00  0.00    +0.253 C 
ATOM      7  O   LIG    1       24.174 -20.115   2.020  0.00  0.00    -0.272 OA
ATOM      8  N   LIG    1       22.094 -19.366   2.561  0.00  0.00    -0.238 N 
ATOM      9  H   LIG    1       21.597 -19.748   1.775  0.00  0.00    +0.159 HD
ENDROOT
BRANCH   5  10
ATOM     10  C   LIG    1       24.746 -17.526   3.860  0.00  0.00    -0.011 A 
ATOM     11  C   LIG    1       26.104 -17.661   3.520  0.00  0.00    +0.006 A 
ATOM     12  C   LIG    1       26.912 -16.539   3.311  0.00  0.00    +0.000 A 
ATOM     13  C   LIG    1       26.381 -15.260   3.434  0.00  0.00    +0.000 A 
ATOM     14  C   LIG    1       25.039 -15.098   3.766  0.00  0.00    +0.000 A 
ATOM     15  C   LIG    1       24.229 -16.219   3.975  0.00  0.00    +0.006 A 
ENDBRANCH   5  10
BRANCH   5  16
ATOM     16  C   LIG    1       24.372 -19.723   5.125  0.00  0.00    -0.011 A 
ATOM     17  C   LIG    1       25.741 -20.030   5.234  0.00  0.00    +0.006 A 
ATOM     18  C   LIG    1       26.201 -20.939   6.190  0.00  0.00    +0.000 A 
ATOM     19  C   LIG    1       25.305 -21.558   7.056  0.00  0.00    +0.000 A 
ATOM     20  C   LIG    1       23.946 -21.276   6.963  0.00  0.00    +0.000 A 
ATOM     21  C   LIG    1       23.483 -20.373   6.004  0.00  0.00    +0.006 A 
ENDBRANCH   5  16
TORSDOF 2
ENDMDL
MODEL 7
REMARK VINA RESULT:       0.1      4.681      6.970
REMARK  Name = *****
REMARK                            x       y       z     vdW  Elec       q    Type
REMARK                         _______ _______ _______ _____ _____    ______ ____
ROOT
ATOM      1  O   LIG    1       23.249 -11.447   1.812  0.00  0.00    -0.252 OA
ATOM      2  C   LIG    1       23.809 -12.050   2.712  0.00  0.00    +0.307 C 
ATOM      3  N   LIG    1       24.778 -12.997   2.533  0.00  0.00    -0.278 N 
ATOM      4  H   LIG    1       25.048 -13.300   1.610  0.00  0.00    +0.152 HD
ATOM      5  C   LIG    1       25.254 -13.584   3.777  0.00  0.00    +0.163 C 
ATOM      6  C   LIG    1       24.354 -12.752   4.752  0.00  0.00    +0.253 C 
ATOM      7  O   LIG    1       24.307 -12.830   5.974  0.00  0.00    -0.272 OA
ATOM      8  N   LIG    1       23.574 -11.904   4.030  0.00  0.00    -0.238 N 
ATOM      9  H   LIG    1       22.894 -11.274   4.420  0.00  0.00    +0.159 HD
ENDROOT
BRANCH   5  10
ATOM     10  C   LIG    1       24.946 -15.089   3.759  0.00  0.00    -0.011 A 
ATOM     11  C   LIG    1       25.901 -16.054   3.388  0.00  0.00    +0.006 A 
ATOM     12  C   LIG    1       25.590 -17.417   3.394  0.00  0.00    +0.000 A 
ATOM     13  C   LIG    1       24.323 -17.846   3.774  0.00  0.00    +0.000 A 
ATOM     14  C   LIG    1       23.362 -16.912   4.150  0.00  0.00    +0.000 A 
ATOM     15  C   LIG    1       23.670 -15.549   4.145  0.00  0.00    +0.006 A 
ENDBRANCH   5  10
BRANCH   5  16
ATOM     16  C   LIG    1       26.736 -13.278   4.041  0.00  0.00    -0.011 A 
ATOM     17  C   LIG    1       27.229 -12.949   5.319  0.00  0.00    +0.006 A 
ATOM     18  C   LIG    1       28.583 -12.671   5.518  0.00  0.00    +0.000 A 
ATOM     19  C   LIG    1       29.473 -12.716   4.449  0.00  0.00    +0.000 A 
ATOM     20  C   LIG    1       29.008 -13.031   3.176  0.00  0.00    +0.000 A 
ATOM     21  C   LIG    1       27.654 -13.303   2.973  0.00  0.00    +0.006 A 
ENDBRANCH   5  16
TORSDOF 2
ENDMDL
MODEL 8
REMARK VINA RESULT:       0.1      1.864      4.379
REMARK  Name = *****
REMARK                            x       y       z     vdW  Elec       q    Type
REMARK                         _______ _______ _______ _____ _____    ______ ____
ROOT
ATOM      1  O   LIG    1       25.718 -21.142   6.551  0.00  0.00    -0.252 OA
ATOM      2  C   LIG    1       25.291 -20.577   5.559  0.00  0.00    +0.307 C 
ATOM      3  N   LIG    1       24.409 -19.533   5.574  0.00  0.00    -0.278 N 
ATOM      4  H   LIG    1       24.004 -19.203   6.437  0.00  0.00    +0.152 HD
ATOM      5  C   LIG    1       24.039 -19.065   4.245  0.00  0.00    +0.163 C 
ATOM      6  C   LIG    1       24.922 -20.064   3.425  0.00  0.00    +0.253 C 
ATOM      7  O   LIG    1       25.010 -20.155   2.205  0.00  0.00    -0.272 OA
ATOM      8  N   LIG    1       25.598 -20.875   4.282  0.00  0.00    -0.238 N 
ATOM      9  H   LIG    1       26.219 -21.616   4.005  0.00  0.00    +0.159 HD
ENDROOT
BRANCH   5  10
ATOM     10  C   LIG    1       22.526 -19.258   4.061  0.00  0.00    -0.011 A 
ATOM     11  C   LIG    1       21.702 -18.277   3.481  0.00  0.00    +0.006 A 
ATOM     12  C   LIG    1       20.329 -18.491   3.317  0.00  0.00    +0.000 A 
ATOM     13  C   LIG    1       19.753 -19.689   3.726  0.00  0.00    +0.000 A 
ATOM     14  C   LIG    1       20.547 -20.677   4.300  0.00  0.00    +0.000 A 
ATOM     15  C   LIG    1       21.919 -20.466   4.464  0.00  0.00    +0.006 A 
ENDBRANCH   5  10
BRANCH   5  16
ATOM     16  C   LIG    1       24.496 -17.622   3.983  0.00  0.00    -0.011 A 
ATOM     17  C   LIG    1       25.765 -17.310   3.459  0.00  0.00    +0.006 A 
ATOM     18  C   LIG    1       26.146 -15.984   3.239  0.00  0.00    +0.000 A 
ATOM     19  C   LIG    1       25.271 -14.944   3.537  0.00  0.00    +0.000 A 
ATOM     20  C   LIG    1       24.014 -15.228   4.062  0.00  0.00    +0.000 A 
ATOM     21  C   LIG    1       23.633 -16.552   4.289  0.00  0.00    +0.006 A 
ENDBRANCH   5  16
TORSDOF 2
ENDMDL
