MODEL 1
REMARK VINA RESULT:      -5.9      0.000      0.000
REMARK  Name = *****
REMARK                            x       y       z     vdW  Elec       q    Type
REMARK                         _______ _______ _______ _____ _____    ______ ____
ROOT
ATOM      1  C   UNK A  0       28.067 -20.624   7.938  0.00  0.00    +0.268 C 
ATOM      2  N   UNK A  2       26.715 -20.457   7.727  0.00  0.00    -0.296 N 
ATOM      3  H   ACE A  1       26.440 -19.591   7.263  0.00  0.00    +0.150 HD
ATOM      4  O   UNK A  0       28.538 -21.551   8.581  0.00  0.00    -0.268 OA
ENDROOT
BRANCH   2   5
ATOM      5  C   UNK A  2       25.696 -21.354   8.327  0.00  0.00    +0.191 C 
ATOM      6  C   UNK A  2       24.268 -21.344   7.689  0.00  0.00    +0.169 C 
ATOM      7  N   UNK A  2       24.609 -22.619   7.091  0.00  0.00    -0.249 N 
ATOM      8  C   UNK A  2       23.836 -23.250   6.172  0.00  0.00    +0.119 C 
ATOM      9  C   UNK A  2       22.873 -22.561   5.528  0.00  0.00    +0.014 C 
ATOM     10  C   UNK A  2       22.582 -21.093   5.645  0.00  0.00    +0.100 C 
ATOM     11  S   UNK A  2       23.958 -20.141   6.366  0.00  0.00    -0.131 S 
ATOM     12  C   UNK A  2       25.728 -22.838   7.798  0.00  0.00    +0.244 C 
ATOM     13  O   UNK A  2       26.454 -23.809   7.794  0.00  0.00    -0.273 OA
BRANCH   8  14
ATOM     14  C   UNK A  2       24.015 -24.688   5.783  0.00  0.00    +0.351 C 
ATOM     15  O   UNK A  2       23.587 -25.606   6.470  0.00  0.00    -0.244 OA
BRANCH  14  16
ATOM     16  O   UNK A  2       24.638 -24.924   4.614  0.00  0.00    -0.476 OA
ATOM     17  H   UNK A  2       25.538 -25.319   4.652  0.00  0.00    +0.295 HD
ENDBRANCH  14  16
ENDBRANCH   8  14
ENDBRANCH   2   5
BRANCH   1  19
ATOM     18  N   UNK A  0       28.977 -19.271   6.030  0.00  0.00    -0.078 NA
ATOM     19  C   UNK A  0       28.990 -19.573   7.301  0.00  0.00    +0.190 C 
BRANCH  19  20
ATOM     20  C   UNK A  0       29.952 -18.837   8.128  0.00  0.00    +0.107 A 
ATOM     21  N   UNK A  0       29.624 -18.444   9.430  0.00  0.00    -0.223 NA
ATOM     22  C   UNK A  0       30.633 -17.842  10.004  0.00  0.00    +0.156 A 
ATOM     23  S   UNK A  0       32.025 -17.649   9.023  0.00  0.00    -0.060 S 
ATOM     24  C   UNK A  0       31.229 -18.469   7.744  0.00  0.00    +0.078 A 
BRANCH  22  25
ATOM     25  N   UNK A  0       30.603 -17.420  11.278  0.00  0.00    -0.338 N 
ATOM     26  H   UNK A  0       31.512 -17.263  11.700  0.00  0.00    +0.144 HD
ATOM     27  H   UNK A  0       29.905 -16.733  11.532  0.00  0.00    +0.144 HD
ENDBRANCH  22  25
ENDBRANCH  19  20
BRANCH  18  29
ATOM     28  C   UNK A  0       27.200 -18.990   4.615  0.00  0.00    +0.313 C 
ATOM     29  O   UNK A  0       28.003 -19.952   5.291  0.00  0.00    -0.396 OA
ENDBRANCH  18  29
ENDBRANCH   1  19
TORSDOF 7
ENDMDL
MODEL 2
REMARK VINA RESULT:      -5.8      7.223      9.783
REMARK  Name = *****
REMARK                            x       y       z     vdW  Elec       q    Type
REMARK                         _______ _______ _______ _____ _____    ______ ____
ROOT
ATOM      1  C   UNK A  0       24.533 -29.732   7.774  0.00  0.00    +0.268 C 
ATOM      2  N   UNK A  2       25.351 -29.507   8.860  0.00  0.00    -0.296 N 
ATOM      3  H   ACE A  1       26.205 -28.980   8.673  0.00  0.00    +0.150 HD
ATOM      4  O   UNK A  0       23.539 -30.442   7.816  0.00  0.00    -0.268 OA
ENDROOT
BRANCH   2   5
ATOM      5  C   UNK A  2       25.141 -30.170  10.171  0.00  0.00    +0.191 C 
ATOM      6  C   UNK A  2       25.832 -29.528  11.418  0.00  0.00    +0.169 C 
ATOM      7  N   UNK A  2       24.523 -29.031  11.792  0.00  0.00    -0.249 N 
ATOM      8  C   UNK A  2       24.311 -28.161  12.811  0.00  0.00    +0.119 C 
ATOM      9  C   UNK A  2       25.349 -27.462  13.314  0.00  0.00    +0.014 C 
ATOM     10  C   UNK A  2       26.765 -27.465  12.816  0.00  0.00    +0.100 C 
ATOM     11  S   UNK A  2       26.932 -28.116  11.123  0.00  0.00    -0.131 S 
ATOM     12  C   UNK A  2       23.814 -29.757  10.914  0.00  0.00    +0.244 C 
ATOM     13  O   UNK A  2       22.611 -29.830  10.782  0.00  0.00    -0.273 OA
BRANCH   8  14
ATOM     14  C   UNK A  2       22.960 -27.884  13.400  0.00  0.00    +0.351 C 
ATOM     15  O   UNK A  2       22.360 -28.714  14.071  0.00  0.00    -0.244 OA
BRANCH  14  16
ATOM     16  O   UNK A  2       22.450 -26.657  13.190  0.00  0.00    -0.476 OA
ATOM     17  H   UNK A  2       21.515 -26.601  12.888  0.00  0.00    +0.295 HD
ENDBRANCH  14  16
ENDBRANCH   8  14
ENDBRANCH   2   5
BRANCH   1  19
ATOM     18  N   UNK A  0       25.149 -29.641   5.342  0.00  0.00    -0.078 NA
ATOM     19  C   UNK A  0       24.923 -29.019   6.469  0.00  0.00    +0.190 C 
BRANCH  19  20
ATOM     20  C   UNK A  0       25.054 -27.558   6.436  0.00  0.00    +0.107 A 
ATOM     21  N   UNK A  0       23.935 -26.744   6.232  0.00  0.00    -0.223 NA
ATOM     22  C   UNK A  0       24.264 -25.479   6.281  0.00  0.00    +0.156 A 
ATOM     23  S   UNK A  0       25.931 -25.164   6.519  0.00  0.00    -0.060 S 
ATOM     24  C   UNK A  0       26.232 -26.851   6.600  0.00  0.00    +0.078 A 
BRANCH  22  25
ATOM     25  N   UNK A  0       23.366 -24.486   6.179  0.00  0.00    -0.338 N 
ATOM     26  H   UNK A  0       22.681 -24.600   5.439  0.00  0.00    +0.144 HD
ATOM     27  H   UNK A  0       22.989 -24.100   7.035  0.00  0.00    +0.144 HD
ENDBRANCH  22  25
ENDBRANCH  19  20
BRANCH  18  29
ATOM     28  C   UNK A  0       26.143 -31.666   4.959  0.00  0.00    +0.313 C 
ATOM     29  O   UNK A  0       24.953 -31.025   5.405  0.00  0.00    -0.396 OA
ENDBRANCH  18  29
ENDBRANCH   1  19
TORSDOF 7
ENDMDL
MODEL 3
REMARK VINA RESULT:      -5.7      2.587      3.935
REMARK  Name = *****
REMARK                            x       y       z     vdW  Elec       q    Type
REMARK                         _______ _______ _______ _____ _____    ______ ____
ROOT
ATOM      1  C   UNK A  0       27.851 -20.151   6.106  0.00  0.00    +0.268 C 
ATOM      2  N   UNK A  2       26.607 -20.715   5.920  0.00  0.00    -0.296 N 
ATOM      3  H   ACE A  1       26.243 -21.259   6.702  0.00  0.00    +0.150 HD
ATOM      4  O   UNK A  0       28.465 -19.570   5.222  0.00  0.00    -0.268 OA
ENDROOT
BRANCH   2   5
ATOM      5  C   UNK A  2       25.927 -20.733   4.601  0.00  0.00    +0.191 C 
ATOM      6  C   UNK A  2       24.520 -21.412   4.530  0.00  0.00    +0.169 C 
ATOM      7  N   UNK A  2       23.963 -20.075   4.467  0.00  0.00    -0.249 N 
ATOM      8  C   UNK A  2       22.635 -19.810   4.539  0.00  0.00    +0.119 C 
ATOM      9  C   UNK A  2       21.792 -20.754   5.004  0.00  0.00    +0.014 C 
ATOM     10  C   UNK A  2       22.161 -22.102   5.553  0.00  0.00    +0.100 C 
ATOM     11  S   UNK A  2       23.914 -22.229   6.033  0.00  0.00    -0.131 S 
ATOM     12  C   UNK A  2       25.118 -19.426   4.256  0.00  0.00    +0.244 C 
ATOM     13  O   UNK A  2       25.300 -18.246   4.047  0.00  0.00    -0.273 OA
BRANCH   8  14
ATOM     14  C   UNK A  2       22.031 -18.487   4.170  0.00  0.00    +0.351 C 
ATOM     15  O   UNK A  2       21.006 -18.403   3.505  0.00  0.00    -0.244 OA
BRANCH  14  16
ATOM     16  O   UNK A  2       22.649 -17.389   4.640  0.00  0.00    -0.476 OA
ATOM     17  H   UNK A  2       23.573 -17.493   4.964  0.00  0.00    +0.295 HD
ENDBRANCH  14  16
ENDBRANCH   8  14
ENDBRANCH   2   5
BRANCH   1  19
ATOM     18  N   UNK A  0       28.035 -21.131   8.409  0.00  0.00    -0.078 NA
ATOM     19  C   UNK A  0       28.448 -20.270   7.517  0.00  0.00    +0.190 C 
BRANCH  19  20
ATOM     20  C   UNK A  0       29.551 -19.394   7.928  0.00  0.00    +0.107 A 
ATOM     21  N   UNK A  0       29.374 -18.447   8.942  0.00  0.00    -0.223 NA
ATOM     22  C   UNK A  0       30.487 -17.805   9.181  0.00  0.00    +0.156 A 
ATOM     23  S   UNK A  0       31.812 -18.240   8.184  0.00  0.00    -0.060 S 
ATOM     24  C   UNK A  0       30.829 -19.405   7.396  0.00  0.00    +0.078 A 
BRANCH  22  25
ATOM     25  N   UNK A  0       30.607 -16.885  10.151  0.00  0.00    -0.338 N 
ATOM     26  H   UNK A  0       31.432 -16.299  10.088  0.00  0.00    +0.144 HD
ATOM     27  H   UNK A  0       29.772 -16.393  10.440  0.00  0.00    +0.144 HD
ENDBRANCH  22  25
ENDBRANCH  19  20
BRANCH  18  29
ATOM     28  C   UNK A  0       25.935 -21.915   8.865  0.00  0.00    +0.313 C 
ATOM     29  O   UNK A  0       27.026 -21.986   7.954  0.00  0.00    -0.396 OA
ENDBRANCH  18  29
ENDBRANCH   1  19
TORSDOF 7
ENDMDL
MODEL 4
REMARK VINA RESULT:      -5.6      9.710     11.133
REMARK  Name = *****
REMARK                            x       y       z     vdW  Elec       q    Type
REMARK                         _______ _______ _______ _____ _____    ______ ____
ROOT
ATOM      1  C   UNK A  0       24.992 -30.920  10.461  0.00  0.00    +0.268 C 
ATOM      2  N   UNK A  2       24.738 -29.895  11.347  0.00  0.00    -0.296 N 
ATOM      3  H   ACE A  1       25.324 -29.066  11.247  0.00  0.00    +0.150 HD
ATOM      4  O   UNK A  0       24.453 -32.016  10.529  0.00  0.00    -0.268 OA
ENDROOT
BRANCH   2   5
ATOM      5  C   UNK A  2       23.838 -30.052  12.516  0.00  0.00    +0.191 C 
ATOM      6  C   UNK A  2       23.810 -28.889  13.560  0.00  0.00    +0.169 C 
ATOM      7  N   UNK A  2       22.528 -28.515  12.997  0.00  0.00    -0.249 N 
ATOM      8  C   UNK A  2       21.864 -27.379  13.325  0.00  0.00    +0.119 C 
ATOM      9  C   UNK A  2       22.523 -26.380  13.948  0.00  0.00    +0.014 C 
ATOM     10  C   UNK A  2       23.988 -26.330  14.271  0.00  0.00    +0.100 C 
ATOM     11  S   UNK A  2       24.979 -27.523  13.314  0.00  0.00    -0.131 S 
ATOM     12  C   UNK A  2       22.343 -29.622  12.261  0.00  0.00    +0.244 C 
ATOM     13  O   UNK A  2       21.385 -29.939  11.590  0.00  0.00    -0.273 OA
BRANCH   8  14
ATOM     14  C   UNK A  2       20.422 -27.135  12.994  0.00  0.00    +0.351 C 
ATOM     15  O   UNK A  2       20.037 -26.081  12.503  0.00  0.00    -0.244 OA
BRANCH  14  16
ATOM     16  O   UNK A  2       19.569 -28.149  13.225  0.00  0.00    -0.476 OA
ATOM     17  H   UNK A  2       18.701 -27.927  13.631  0.00  0.00    +0.295 HD
ENDBRANCH  14  16
ENDBRANCH   8  14
ENDBRANCH   2   5
BRANCH   1  19
ATOM     18  N   UNK A  0       27.258 -30.345   9.550  0.00  0.00    -0.078 NA
ATOM     19  C   UNK A  0       25.998 -30.618   9.340  0.00  0.00    +0.190 C 
BRANCH  19  20
ATOM     20  C   UNK A  0       25.567 -30.634   7.937  0.00  0.00    +0.107 A 
ATOM     21  N   UNK A  0       24.688 -29.663   7.447  0.00  0.00    -0.223 NA
ATOM     22  C   UNK A  0       24.468 -29.833   6.170  0.00  0.00    +0.156 A 
ATOM     23  S   UNK A  0       25.246 -31.190   5.468  0.00  0.00    -0.060 S 
ATOM     24  C   UNK A  0       25.962 -31.555   6.983  0.00  0.00    +0.078 A 
BRANCH  22  25
ATOM     25  N   UNK A  0       23.710 -29.000   5.441  0.00  0.00    -0.338 N 
ATOM     26  H   UNK A  0       23.170 -29.442   4.705  0.00  0.00    +0.144 HD
ATOM     27  H   UNK A  0       23.218 -28.262   5.927  0.00  0.00    +0.144 HD
ENDBRANCH  22  25
ENDBRANCH  19  20
BRANCH  18  29
ATOM     28  C   UNK A  0       28.105 -29.115  11.283  0.00  0.00    +0.313 C 
ATOM     29  O   UNK A  0       27.638 -30.402  10.895  0.00  0.00    -0.396 OA
ENDBRANCH  18  29
ENDBRANCH   1  19
TORSDOF 7
ENDMDL
MODEL 5
REMARK VINA RESULT:      -5.5      9.089     10.482
REMARK  Name = *****
REMARK                            x       y       z     vdW  Elec       q    Type
REMARK                         _______ _______ _______ _____ _____    ______ ____
ROOT
ATOM      1  C   UNK A  0       26.030 -28.279  11.874  0.00  0.00    +0.268 C 
ATOM      2  N   UNK A  2       25.816 -29.426  11.140  0.00  0.00    -0.296 N 
ATOM      3  H   ACE A  1       25.208 -30.123  11.569  0.00  0.00    +0.150 HD
ATOM      4  O   UNK A  0       26.822 -27.407  11.545  0.00  0.00    -0.268 OA
ENDROOT
BRANCH   2   5
ATOM      5  C   UNK A  2       26.588 -29.744   9.913  0.00  0.00    +0.191 C 
ATOM      6  C   UNK A  2       26.144 -31.000   9.093  0.00  0.00    +0.169 C 
ATOM      7  N   UNK A  2       25.569 -30.076   8.135  0.00  0.00    -0.249 N 
ATOM      8  C   UNK A  2       24.791 -30.461   7.092  0.00  0.00    +0.119 C 
ATOM      9  C   UNK A  2       24.247 -31.694   7.088  0.00  0.00    +0.014 C 
ATOM     10  C   UNK A  2       24.330 -32.721   8.181  0.00  0.00    +0.100 C 
ATOM     11  S   UNK A  2       24.817 -32.021   9.792  0.00  0.00    -0.131 S 
ATOM     12  C   UNK A  2       26.132 -28.960   8.624  0.00  0.00    +0.244 C 
ATOM     13  O   UNK A  2       26.080 -27.829   8.192  0.00  0.00    -0.273 OA
BRANCH   8  14
ATOM     14  C   UNK A  2       24.452 -29.568   5.936  0.00  0.00    +0.351 C 
ATOM     15  O   UNK A  2       25.305 -28.926   5.338  0.00  0.00    -0.244 OA
BRANCH  14  16
ATOM     16  O   UNK A  2       23.162 -29.537   5.556  0.00  0.00    -0.476 OA
ATOM     17  H   UNK A  2       22.760 -30.381   5.248  0.00  0.00    +0.295 HD
ENDBRANCH  14  16
ENDBRANCH   8  14
ENDBRANCH   2   5
BRANCH   1  19
ATOM     18  N   UNK A  0       25.693 -28.214  14.360  0.00  0.00    -0.078 NA
ATOM     19  C   UNK A  0       25.195 -28.126  13.155  0.00  0.00    +0.190 C 
BRANCH  19  20
ATOM     20  C   UNK A  0       23.755 -27.858  13.071  0.00  0.00    +0.107 A 
ATOM     21  N   UNK A  0       22.877 -28.817  12.556  0.00  0.00    -0.223 NA
ATOM     22  C   UNK A  0       21.641 -28.395  12.610  0.00  0.00    +0.156 A 
ATOM     23  S   UNK A  0       21.434 -26.809  13.226  0.00  0.00    -0.060 S 
ATOM     24  C   UNK A  0       23.128 -26.692  13.474  0.00  0.00    +0.078 A 
BRANCH  22  25
ATOM     25  N   UNK A  0       20.594 -29.149  12.236  0.00  0.00    -0.338 N 
ATOM     26  H   UNK A  0       20.388 -29.135  11.243  0.00  0.00    +0.144 HD
ATOM     27  H   UNK A  0       20.488 -30.057  12.669  0.00  0.00    +0.144 HD
ENDBRANCH  22  25
ENDBRANCH  19  20
BRANCH  18  29
ATOM     28  C   UNK A  0       27.665 -27.325  15.107  0.00  0.00    +0.313 C 
ATOM     29  O   UNK A  0       27.078 -28.408  14.393  0.00  0.00    -0.396 OA
ENDBRANCH  18  29
ENDBRANCH   1  19
TORSDOF 7
ENDMDL
MODEL 6
REMARK VINA RESULT:      -5.4      9.369     11.978
REMARK  Name = *****
REMARK                            x       y       z     vdW  Elec       q    Type
REMARK                         _______ _______ _______ _____ _____    ______ ____
ROOT
ATOM      1  C   UNK A  0       25.402 -29.531   8.638  0.00  0.00    +0.268 C 
ATOM      2  N   UNK A  2       25.727 -29.671   9.970  0.00  0.00    -0.296 N 
ATOM      3  H   ACE A  1       25.351 -30.497  10.435  0.00  0.00    +0.150 HD
ATOM      4  O   UNK A  0       25.681 -28.540   7.977  0.00  0.00    -0.268 OA
ENDROOT
BRANCH   2   5
ATOM      5  C   UNK A  2       26.385 -28.594  10.749  0.00  0.00    +0.191 C 
ATOM      6  C   UNK A  2       25.905 -28.380  12.222  0.00  0.00    +0.169 C 
ATOM      7  N   UNK A  2       27.136 -29.025  12.636  0.00  0.00    -0.249 N 
ATOM      8  C   UNK A  2       27.408 -29.373  13.918  0.00  0.00    +0.119 C 
ATOM      9  C   UNK A  2       26.405 -29.434  14.818  0.00  0.00    +0.014 C 
ATOM     10  C   UNK A  2       24.942 -29.230  14.553  0.00  0.00    +0.100 C 
ATOM     11  S   UNK A  2       24.500 -29.378  12.791  0.00  0.00    -0.131 S 
ATOM     12  C   UNK A  2       27.740 -29.009  11.438  0.00  0.00    +0.244 C 
ATOM     13  O   UNK A  2       28.862 -29.364  11.147  0.00  0.00    -0.273 OA
BRANCH   8  14
ATOM     14  C   UNK A  2       28.776 -29.750  14.404  0.00  0.00    +0.351 C 
ATOM     15  O   UNK A  2       28.992 -30.804  14.987  0.00  0.00    -0.244 OA
BRANCH  14  16
ATOM     16  O   UNK A  2       29.772 -28.888  14.131  0.00  0.00    -0.476 OA
ATOM     17  H   UNK A  2       29.970 -28.710  13.183  0.00  0.00    +0.295 HD
ENDBRANCH  14  16
ENDBRANCH   8  14
ENDBRANCH   2   5
BRANCH   1  19
ATOM     18  N   UNK A  0       23.462 -31.093   8.327  0.00  0.00    -0.078 NA
ATOM     19  C   UNK A  0       24.665 -30.714   7.989  0.00  0.00    +0.190 C 
BRANCH  19  20
ATOM     20  C   UNK A  0       25.307 -31.487   6.920  0.00  0.00    +0.107 A 
ATOM     21  N   UNK A  0       24.776 -31.498   5.626  0.00  0.00    -0.223 NA
ATOM     22  C   UNK A  0       25.521 -32.210   4.821  0.00  0.00    +0.156 A 
ATOM     23  S   UNK A  0       26.877 -32.961   5.552  0.00  0.00    -0.060 S 
ATOM     24  C   UNK A  0       26.455 -32.248   7.054  0.00  0.00    +0.078 A 
BRANCH  22  25
ATOM     25  N   UNK A  0       25.269 -32.333   3.508  0.00  0.00    -0.338 N 
ATOM     26  H   UNK A  0       26.055 -32.132   2.899  0.00  0.00    +0.144 HD
ATOM     27  H   UNK A  0       24.701 -33.114   3.208  0.00  0.00    +0.144 HD
ENDBRANCH  22  25
ENDBRANCH  19  20
BRANCH  18  29
ATOM     28  C   UNK A  0       22.180 -31.138  10.222  0.00  0.00    +0.313 C 
ATOM     29  O   UNK A  0       22.865 -30.291   9.306  0.00  0.00    -0.396 OA
ENDBRANCH  18  29
ENDBRANCH   1  19
TORSDOF 7
ENDMDL
MODEL 7
REMARK VINA RESULT:      -5.3      7.905     10.594
REMARK  Name = *****
REMARK                            x       y       z     vdW  Elec       q    Type
REMARK                         _______ _______ _______ _____ _____    ______ ____
ROOT
ATOM      1  C   UNK A  0       24.249 -30.957   7.927  0.00  0.00    +0.268 C 
ATOM      2  N   UNK A  2       24.600 -30.507   9.181  0.00  0.00    -0.296 N 
ATOM      3  H   ACE A  1       25.434 -29.923   9.227  0.00  0.00    +0.150 HD
ATOM      4  O   UNK A  0       23.345 -31.757   7.727  0.00  0.00    -0.268 OA
ENDROOT
BRANCH   2   5
ATOM      5  C   UNK A  2       23.956 -31.011  10.420  0.00  0.00    +0.191 C 
ATOM      6  C   UNK A  2       24.295 -30.272  11.755  0.00  0.00    +0.169 C 
ATOM      7  N   UNK A  2       22.978 -29.672  11.668  0.00  0.00    -0.249 N 
ATOM      8  C   UNK A  2       22.544 -28.686  12.492  0.00  0.00    +0.119 C 
ATOM      9  C   UNK A  2       23.438 -27.988  13.222  0.00  0.00    +0.014 C 
ATOM     10  C   UNK A  2       24.933 -28.115  13.180  0.00  0.00    +0.100 C 
ATOM     11  S   UNK A  2       25.543 -28.956  11.683  0.00  0.00    -0.131 S 
ATOM     12  C   UNK A  2       22.506 -30.454  10.685  0.00  0.00    +0.244 C 
ATOM     13  O   UNK A  2       21.395 -30.482  10.201  0.00  0.00    -0.273 OA
BRANCH   8  14
ATOM     14  C   UNK A  2       21.106 -28.279  12.615  0.00  0.00    +0.351 C 
ATOM     15  O   UNK A  2       20.764 -27.105  12.678  0.00  0.00    -0.244 OA
BRANCH  14  16
ATOM     16  O   UNK A  2       20.196 -29.270  12.613  0.00  0.00    -0.476 OA
ATOM     17  H   UNK A  2       19.857 -29.572  11.740  0.00  0.00    +0.295 HD
ENDBRANCH  14  16
ENDBRANCH   8  14
ENDBRANCH   2   5
BRANCH   1  19
ATOM     18  N   UNK A  0       25.859 -31.098   6.007  0.00  0.00    -0.078 NA
ATOM     19  C   UNK A  0       25.054 -30.385   6.749  0.00  0.00    +0.190 C 
BRANCH  19  20
ATOM     20  C   UNK A  0       24.938 -28.966   6.396  0.00  0.00    +0.107 A 
ATOM     21  N   UNK A  0       25.590 -27.985   7.149  0.00  0.00    -0.223 NA
ATOM     22  C   UNK A  0       25.391 -26.797   6.641  0.00  0.00    +0.156 A 
ATOM     23  S   UNK A  0       24.373 -26.751   5.263  0.00  0.00    -0.060 S 
ATOM     24  C   UNK A  0       24.216 -28.458   5.330  0.00  0.00    +0.078 A 
BRANCH  22  25
ATOM     25  N   UNK A  0       25.957 -25.685   7.137  0.00  0.00    -0.338 N 
ATOM     26  H   UNK A  0       25.889 -25.581   8.144  0.00  0.00    +0.144 HD
ATOM     27  H   UNK A  0       26.846 -25.395   6.751  0.00  0.00    +0.144 HD
ENDBRANCH  22  25
ENDBRANCH  19  20
BRANCH  18  29
ATOM     28  C   UNK A  0       27.058 -33.032   5.762  0.00  0.00    +0.313 C 
ATOM     29  O   UNK A  0       25.891 -32.456   6.340  0.00  0.00    -0.396 OA
ENDBRANCH  18  29
ENDBRANCH   1  19
TORSDOF 7
ENDMDL
MODEL 8
REMARK VINA RESULT:      -5.2      8.441      9.803
REMARK  Name = *****
REMARK                            x       y       z     vdW  Elec       q    Type
REMARK                         _______ _______ _______ _____ _____    ______ ____
ROOT
ATOM      1  C   UNK A  0       26.122 -27.351  13.153  0.00  0.00    +0.268 C 
ATOM      2  N   UNK A  2       25.943 -27.619  11.813  0.00  0.00    -0.296 N 
ATOM      3  H   ACE A  1       25.250 -27.046  11.333  0.00  0.00    +0.150 HD
ATOM      4  O   UNK A  0       26.831 -28.027  13.885  0.00  0.00    -0.268 OA
ENDROOT
BRANCH   2   5
ATOM      5  C   UNK A  2       26.540 -28.804  11.148  0.00  0.00    +0.191 C 
ATOM      6  C   UNK A  2       25.640 -30.074  11.004  0.00  0.00    +0.169 C 
ATOM      7  N   UNK A  2       25.505 -29.725   9.603  0.00  0.00    -0.249 N 
ATOM      8  C   UNK A  2       24.656 -30.351   8.750  0.00  0.00    +0.119 C 
ATOM      9  C   UNK A  2       23.658 -31.112   9.244  0.00  0.00    +0.014 C 
ATOM     10  C   UNK A  2       23.299 -31.302  10.689  0.00  0.00    +0.100 C 
ATOM     11  S   UNK A  2       24.000 -30.023  11.780  0.00  0.00    -0.131 S 
ATOM     12  C   UNK A  2       26.464 -28.787   9.574  0.00  0.00    +0.244 C 
ATOM     13  O   UNK A  2       26.882 -28.155   8.628  0.00  0.00    -0.273 OA
BRANCH   8  14
ATOM     14  C   UNK A  2       24.728 -30.215   7.258  0.00  0.00    +0.351 C 
ATOM     15  O   UNK A  2       23.757 -29.890   6.587  0.00  0.00    -0.244 OA
BRANCH  14  16
ATOM     16  O   UNK A  2       25.928 -30.429   6.689  0.00  0.00    -0.476 OA
ATOM     17  H   UNK A  2       26.724 -30.136   7.188  0.00  0.00    +0.295 HD
ENDBRANCH  14  16
ENDBRANCH   8  14
ENDBRANCH   2   5
BRANCH   1  19
ATOM     18  N   UNK A  0       25.930 -24.939  13.820  0.00  0.00    -0.078 NA
ATOM     19  C   UNK A  0       25.385 -26.121  13.705  0.00  0.00    +0.190 C 
BRANCH  19  20
ATOM     20  C   UNK A  0       23.986 -26.229  14.133  0.00  0.00    +0.107 A 
ATOM     21  N   UNK A  0       22.971 -26.488  13.207  0.00  0.00    -0.223 NA
ATOM     22  C   UNK A  0       21.810 -26.588  13.801  0.00  0.00    +0.156 A 
ATOM     23  S   UNK A  0       21.830 -26.329  15.494  0.00  0.00    -0.060 S 
ATOM     24  C   UNK A  0       23.530 -26.103  15.434  0.00  0.00    +0.078 A 
BRANCH  22  25
ATOM     25  N   UNK A  0       20.679 -26.895  13.147  0.00  0.00    -0.338 N 
ATOM     26  H   UNK A  0       20.562 -26.436  12.250  0.00  0.00    +0.144 HD
ATOM     27  H   UNK A  0       20.371 -27.858  13.162  0.00  0.00    +0.144 HD
ENDBRANCH  22  25
ENDBRANCH  19  20
BRANCH  18  29
ATOM     28  C   UNK A  0       28.101 -24.562  14.437  0.00  0.00    +0.313 C 
ATOM     29  O   UNK A  0       27.243 -24.868  13.343  0.00  0.00    -0.396 OA
ENDBRANCH  18  29
ENDBRANCH   1  19
TORSDOF 7
ENDMDL
MODEL 9
REMARK VINA RESULT:      -5.2      9.002     11.791
REMARK  Name = *****
REMARK                            x       y       z     vdW  Elec       q    Type
REMARK                         _______ _______ _______ _____ _____    ______ ____
ROOT
ATOM      1  C   UNK A  0       24.189 -31.537   7.473  0.00  0.00    +0.268 C 
ATOM      2  N   UNK A  2       24.623 -31.109   8.709  0.00  0.00    -0.296 N 
ATOM      3  H   ACE A  1       25.494 -30.578   8.716  0.00  0.00    +0.150 HD
ATOM      4  O   UNK A  0       23.229 -32.279   7.317  0.00  0.00    -0.268 OA
ENDROOT
BRANCH   2   5
ATOM      5  C   UNK A  2       24.007 -31.571   9.978  0.00  0.00    +0.191 C 
ATOM      6  C   UNK A  2       24.484 -30.884  11.298  0.00  0.00    +0.169 C 
ATOM      7  N   UNK A  2       23.224 -30.168  11.292  0.00  0.00    -0.249 N 
ATOM      8  C   UNK A  2       22.928 -29.159  12.148  0.00  0.00    +0.119 C 
ATOM      9  C   UNK A  2       23.920 -28.554  12.833  0.00  0.00    +0.014 C 
ATOM     10  C   UNK A  2       25.393 -28.815  12.705  0.00  0.00    +0.100 C 
ATOM     11  S   UNK A  2       25.840 -29.685  11.168  0.00  0.00    -0.131 S 
ATOM     12  C   UNK A  2       22.630 -30.890  10.329  0.00  0.00    +0.244 C 
ATOM     13  O   UNK A  2       21.496 -30.811   9.909  0.00  0.00    -0.273 OA
BRANCH   8  14
ATOM     14  C   UNK A  2       21.541 -28.626  12.356  0.00  0.00    +0.351 C 
ATOM     15  O   UNK A  2       21.330 -27.457  12.652  0.00  0.00    -0.244 OA
BRANCH  14  16
ATOM     16  O   UNK A  2       20.527 -29.489  12.161  0.00  0.00    -0.476 OA
ATOM     17  H   UNK A  2       20.760 -30.411  11.905  0.00  0.00    +0.295 HD
ENDBRANCH  14  16
ENDBRANCH   8  14
ENDBRANCH   2   5
BRANCH   1  19
ATOM     18  N   UNK A  0       24.943 -29.776   5.852  0.00  0.00    -0.078 NA
ATOM     19  C   UNK A  0       24.973 -31.018   6.258  0.00  0.00    +0.190 C 
BRANCH  19  20
ATOM     20  C   UNK A  0       25.824 -31.929   5.484  0.00  0.00    +0.107 A 
ATOM     21  N   UNK A  0       25.683 -32.035   4.097  0.00  0.00    -0.223 NA
ATOM     22  C   UNK A  0       26.562 -32.866   3.601  0.00  0.00    +0.156 A 
ATOM     23  S   UNK A  0       27.585 -33.622   4.749  0.00  0.00    -0.060 S 
ATOM     24  C   UNK A  0       26.817 -32.740   6.004  0.00  0.00    +0.078 A 
BRANCH  22  25
ATOM     25  N   UNK A  0       26.683 -33.102   2.285  0.00  0.00    -0.338 N 
ATOM     26  H   UNK A  0       27.461 -32.633   1.833  0.00  0.00    +0.144 HD
ATOM     27  H   UNK A  0       26.523 -34.046   1.958  0.00  0.00    +0.144 HD
ENDBRANCH  22  25
ENDBRANCH  19  20
BRANCH  18  29
ATOM     28  C   UNK A  0       24.530 -27.585   6.365  0.00  0.00    +0.313 C 
ATOM     29  O   UNK A  0       24.169 -28.932   6.655  0.00  0.00    -0.396 OA
ENDBRANCH  18  29
ENDBRANCH   1  19
TORSDOF 7
ENDMDL
