MODEL 1
REMARK VINA RESULT:      -5.9      0.000      0.000
REMARK  Name = *****
REMARK                            x       y       z     vdW  Elec       q    Type
REMARK                         _______ _______ _______ _____ _____    ______ ____
ROOT
ATOM      1  C   UNK    1       29.283 -19.627   6.956  0.00  0.00    +0.111 C 
ATOM      2  C   UNK    1       30.601 -19.071   7.550  0.00  0.00    +0.165 C 
ATOM      3  C   UNK    1       30.915 -19.726   8.902  0.00  0.00    +0.174 C 
ATOM      4  C   UNK    1       30.880 -21.256   8.808  0.00  0.00    +0.159 C 
ATOM      5  C   UNK    1       29.557 -21.718   8.187  0.00  0.00    +0.115 C 
ATOM      6  N   UNK    1       29.284 -21.104   6.882  0.00  0.00    -0.306 NA
ATOM      7  H   UNK    1       29.938 -21.446   6.181  0.00  0.00    +0.122 HD
ENDROOT
BRANCH   2   8
ATOM      8  O   UNK    1       31.712 -19.271   6.658  0.00  0.00    -0.388 OA
ATOM      9  H   UNK    1       31.853 -18.449   6.159  0.00  0.00    +0.210 HD
ENDBRANCH   2   8
BRANCH   3  10
ATOM     10  O   UNK    1       32.221 -19.331   9.357  0.00  0.00    -0.387 OA
ATOM     11  H   UNK    1       32.537 -18.655   8.724  0.00  0.00    +0.210 HD
ENDBRANCH   3  10
BRANCH   4  12
ATOM     12  O   UNK    1       31.035 -21.816  10.114  0.00  0.00    -0.388 OA
ATOM     13  H   UNK    1       31.880 -22.308  10.089  0.00  0.00    +0.210 HD
ENDBRANCH   4  12
BRANCH   1  14
ATOM     14  C   UNK    1       28.987 -19.038   5.562  0.00  0.00    +0.177 C 
BRANCH  14  15
ATOM     15  O   UNK    1       29.766 -17.873   5.309  0.00  0.00    -0.393 OA
ATOM     16  H   UNK    1       30.694 -18.161   5.232  0.00  0.00    +0.209 HD
ENDBRANCH  14  15
ENDBRANCH   1  14
TORSDOF 5
ENDMDL
MODEL 2
REMARK VINA RESULT:      -5.5      1.515      3.873
REMARK  Name = *****
REMARK                            x       y       z     vdW  Elec       q    Type
REMARK                         _______ _______ _______ _____ _____    ______ ____
ROOT
ATOM      1  C   UNK    1       30.653 -20.416   7.900  0.00  0.00    +0.111 C 
ATOM      2  C   UNK    1       30.668 -19.116   7.059  0.00  0.00    +0.165 C 
ATOM      3  C   UNK    1       29.790 -19.259   5.809  0.00  0.00    +0.174 C 
ATOM      4  C   UNK    1       28.380 -19.745   6.163  0.00  0.00    +0.159 C 
ATOM      5  C   UNK    1       28.457 -21.016   7.017  0.00  0.00    +0.115 C 
ATOM      6  N   UNK    1       29.278 -20.855   8.223  0.00  0.00    -0.306 NA
ATOM      7  H   UNK    1       28.826 -20.226   8.883  0.00  0.00    +0.122 HD
ENDROOT
BRANCH   2   8
ATOM      8  O   UNK    1       30.221 -17.981   7.824  0.00  0.00    -0.388 OA
ATOM      9  H   UNK    1       30.350 -18.181   8.766  0.00  0.00    +0.210 HD
ENDBRANCH   2   8
BRANCH   3  10
ATOM     10  O   UNK    1       29.675 -17.995   5.131  0.00  0.00    -0.387 OA
ATOM     11  H   UNK    1       30.509 -17.876   4.634  0.00  0.00    +0.210 HD
ENDBRANCH   3  10
BRANCH   4  12
ATOM     12  O   UNK    1       27.648 -20.000   4.963  0.00  0.00    -0.388 OA
ATOM     13  H   UNK    1       26.705 -19.944   5.214  0.00  0.00    +0.210 HD
ENDBRANCH   4  12
BRANCH   1  14
ATOM     14  C   UNK    1       31.469 -20.269   9.201  0.00  0.00    +0.177 C 
BRANCH  14  15
ATOM     15  O   UNK    1       32.204 -21.452   9.495  0.00  0.00    -0.393 OA
ATOM     16  H   UNK    1       32.058 -21.653  10.437  0.00  0.00    +0.209 HD
ENDBRANCH  14  15
ENDBRANCH   1  14
TORSDOF 5
ENDMDL
MODEL 3
REMARK VINA RESULT:      -5.5      2.114      3.921
REMARK  Name = *****
REMARK                            x       y       z     vdW  Elec       q    Type
REMARK                         _______ _______ _______ _____ _____    ______ ____
ROOT
ATOM      1  C   UNK    1       30.342 -18.666   7.697  0.00  0.00    +0.111 C 
ATOM      2  C   UNK    1       29.725 -20.043   8.045  0.00  0.00    +0.165 C 
ATOM      3  C   UNK    1       28.388 -20.246   7.318  0.00  0.00    +0.174 C 
ATOM      4  C   UNK    1       28.522 -19.995   5.812  0.00  0.00    +0.159 C 
ATOM      5  C   UNK    1       29.165 -18.626   5.558  0.00  0.00    +0.115 C 
ATOM      6  N   UNK    1       30.455 -18.457   6.238  0.00  0.00    -0.306 NA
ATOM      7  H   UNK    1       31.160 -19.064   5.823  0.00  0.00    +0.122 HD
ENDROOT
BRANCH   2   8
ATOM      8  O   UNK    1       30.614 -21.124   7.711  0.00  0.00    -0.388 OA
ATOM      9  H   UNK    1       30.133 -21.745   7.138  0.00  0.00    +0.210 HD
ENDBRANCH   2   8
BRANCH   3  10
ATOM     10  O   UNK    1       27.913 -21.590   7.511  0.00  0.00    -0.387 OA
ATOM     11  H   UNK    1       27.449 -21.835   6.685  0.00  0.00    +0.210 HD
ENDBRANCH   3  10
BRANCH   4  12
ATOM     12  O   UNK    1       27.230 -20.054   5.203  0.00  0.00    -0.388 OA
ATOM     13  H   UNK    1       26.926 -20.976   5.324  0.00  0.00    +0.210 HD
ENDBRANCH   4  12
BRANCH   1  14
ATOM     14  C   UNK    1       31.722 -18.472   8.357  0.00  0.00    +0.177 C 
BRANCH  14  15
ATOM     15  O   UNK    1       31.973 -19.463   9.348  0.00  0.00    -0.393 OA
ATOM     16  H   UNK    1       31.921 -20.330   8.906  0.00  0.00    +0.209 HD
ENDBRANCH  14  15
ENDBRANCH   1  14
TORSDOF 5
ENDMDL
MODEL 4
REMARK VINA RESULT:      -5.4      1.925      2.582
REMARK  Name = *****
REMARK                            x       y       z     vdW  Elec       q    Type
REMARK                         _______ _______ _______ _____ _____    ______ ____
ROOT
ATOM      1  C   UNK    1       29.538 -19.614   6.230  0.00  0.00    +0.111 C 
ATOM      2  C   UNK    1       29.120 -20.629   7.322  0.00  0.00    +0.165 C 
ATOM      3  C   UNK    1       30.329 -21.068   8.158  0.00  0.00    +0.174 C 
ATOM      4  C   UNK    1       31.103 -19.863   8.705  0.00  0.00    +0.159 C 
ATOM      5  C   UNK    1       31.453 -18.898   7.566  0.00  0.00    +0.115 C 
ATOM      6  N   UNK    1       30.283 -18.467   6.792  0.00  0.00    -0.306 NA
ATOM      7  H   UNK    1       29.683 -17.866   7.354  0.00  0.00    +0.122 HD
ENDROOT
BRANCH   2   8
ATOM      8  O   UNK    1       28.112 -20.087   8.195  0.00  0.00    -0.388 OA
ATOM      9  H   UNK    1       28.175 -20.545   9.050  0.00  0.00    +0.210 HD
ENDBRANCH   2   8
BRANCH   3  10
ATOM     10  O   UNK    1       29.902 -21.872   9.272  0.00  0.00    -0.387 OA
ATOM     11  H   UNK    1       30.713 -22.095   9.773  0.00  0.00    +0.210 HD
ENDBRANCH   3  10
BRANCH   4  12
ATOM     12  O   UNK    1       32.295 -20.316   9.352  0.00  0.00    -0.388 OA
ATOM     13  H   UNK    1       32.381 -19.766  10.156  0.00  0.00    +0.210 HD
ENDBRANCH   4  12
BRANCH   1  14
ATOM     14  C   UNK    1       28.326 -19.102   5.426  0.00  0.00    +0.177 C 
BRANCH  14  15
ATOM     15  O   UNK    1       27.412 -20.153   5.130  0.00  0.00    -0.393 OA
ATOM     16  H   UNK    1       27.860 -20.757   4.511  0.00  0.00    +0.209 HD
ENDBRANCH  14  15
ENDBRANCH   1  14
TORSDOF 5
ENDMDL
MODEL 5
REMARK VINA RESULT:      -5.2      6.032      7.021
REMARK  Name = *****
REMARK                            x       y       z     vdW  Elec       q    Type
REMARK                         _______ _______ _______ _____ _____    ______ ____
ROOT
ATOM      1  C   UNK    1       25.896 -21.534   7.190  0.00  0.00    +0.111 C 
ATOM      2  C   UNK    1       24.431 -21.252   6.778  0.00  0.00    +0.165 C 
ATOM      3  C   UNK    1       23.863 -22.404   5.939  0.00  0.00    +0.174 C 
ATOM      4  C   UNK    1       24.056 -23.756   6.636  0.00  0.00    +0.159 C 
ATOM      5  C   UNK    1       25.525 -23.942   7.034  0.00  0.00    +0.115 C 
ATOM      6  N   UNK    1       26.045 -22.845   7.858  0.00  0.00    -0.306 NA
ATOM      7  H   UNK    1       25.611 -22.851   8.779  0.00  0.00    +0.122 HD
ENDROOT
BRANCH   2   8
ATOM      8  O   UNK    1       23.586 -21.040   7.924  0.00  0.00    -0.388 OA
ATOM      9  H   UNK    1       23.862 -20.215   8.356  0.00  0.00    +0.210 HD
ENDBRANCH   2   8
BRANCH   3  10
ATOM     10  O   UNK    1       22.456 -22.212   5.711  0.00  0.00    -0.387 OA
ATOM     11  H   UNK    1       22.027 -23.068   5.915  0.00  0.00    +0.210 HD
ENDBRANCH   3  10
BRANCH   4  12
ATOM     12  O   UNK    1       23.645 -24.807   5.759  0.00  0.00    -0.388 OA
ATOM     13  H   UNK    1       22.730 -25.028   6.026  0.00  0.00    +0.210 HD
ENDBRANCH   4  12
BRANCH   1  14
ATOM     14  C   UNK    1       26.462 -20.422   8.097  0.00  0.00    +0.177 C 
BRANCH  14  15
ATOM     15  O   UNK    1       25.946 -20.512   9.421  0.00  0.00    -0.393 OA
ATOM     16  H   UNK    1       25.532 -19.654   9.626  0.00  0.00    +0.209 HD
ENDBRANCH  14  15
ENDBRANCH   1  14
TORSDOF 5
ENDMDL
MODEL 6
REMARK VINA RESULT:      -5.2      2.087      3.242
REMARK  Name = *****
REMARK                            x       y       z     vdW  Elec       q    Type
REMARK                         _______ _______ _______ _____ _____    ______ ____
ROOT
ATOM      1  C   UNK    1       30.490 -17.936   8.813  0.00  0.00    +0.111 C 
ATOM      2  C   UNK    1       30.867 -19.332   9.365  0.00  0.00    +0.165 C 
ATOM      3  C   UNK    1       30.015 -20.430   8.713  0.00  0.00    +0.174 C 
ATOM      4  C   UNK    1       30.057 -20.342   7.183  0.00  0.00    +0.159 C 
ATOM      5  C   UNK    1       29.700 -18.923   6.724  0.00  0.00    +0.115 C 
ATOM      6  N   UNK    1       30.540 -17.887   7.336  0.00  0.00    -0.306 NA
ATOM      7  H   UNK    1       31.495 -17.949   6.989  0.00  0.00    +0.122 HD
ENDROOT
BRANCH   2   8
ATOM      8  O   UNK    1       32.260 -19.629   9.157  0.00  0.00    -0.388 OA
ATOM      9  H   UNK    1       32.480 -19.420   8.234  0.00  0.00    +0.210 HD
ENDBRANCH   2   8
BRANCH   3  10
ATOM     10  O   UNK    1       30.491 -21.730   9.103  0.00  0.00    -0.387 OA
ATOM     11  H   UNK    1       29.967 -22.377   8.587  0.00  0.00    +0.210 HD
ENDBRANCH   3  10
BRANCH   4  12
ATOM     12  O   UNK    1       29.141 -21.287   6.626  0.00  0.00    -0.388 OA
ATOM     13  H   UNK    1       29.674 -21.845   6.025  0.00  0.00    +0.210 HD
ENDBRANCH   4  12
BRANCH   1  14
ATOM     14  C   UNK    1       31.385 -16.825   9.399  0.00  0.00    +0.177 C 
BRANCH  14  15
ATOM     15  O   UNK    1       32.521 -16.579   8.576  0.00  0.00    -0.393 OA
ATOM     16  H   UNK    1       32.254 -15.918   7.911  0.00  0.00    +0.209 HD
ENDBRANCH  14  15
ENDBRANCH   1  14
TORSDOF 5
ENDMDL
MODEL 7
REMARK VINA RESULT:      -5.1      2.170      3.486
REMARK  Name = *****
REMARK                            x       y       z     vdW  Elec       q    Type
REMARK                         _______ _______ _______ _____ _____    ______ ____
ROOT
ATOM      1  C   UNK    1       28.143 -20.348   8.031  0.00  0.00    +0.111 C 
ATOM      2  C   UNK    1       28.355 -19.585   6.701  0.00  0.00    +0.165 C 
ATOM      3  C   UNK    1       29.659 -18.777   6.731  0.00  0.00    +0.174 C 
ATOM      4  C   UNK    1       30.853 -19.651   7.136  0.00  0.00    +0.159 C 
ATOM      5  C   UNK    1       30.549 -20.390   8.444  0.00  0.00    +0.115 C 
ATOM      6  N   UNK    1       29.313 -21.179   8.391  0.00  0.00    -0.306 NA
ATOM      7  H   UNK    1       29.420 -21.971   7.761  0.00  0.00    +0.122 HD
ENDROOT
BRANCH   2   8
ATOM      8  O   UNK    1       28.377 -20.478   5.573  0.00  0.00    -0.388 OA
ATOM      9  H   UNK    1       29.263 -20.874   5.517  0.00  0.00    +0.210 HD
ENDBRANCH   2   8
BRANCH   3  10
ATOM     10  O   UNK    1       29.930 -18.215   5.436  0.00  0.00    -0.387 OA
ATOM     11  H   UNK    1       30.866 -17.929   5.454  0.00  0.00    +0.210 HD
ENDBRANCH   3  10
BRANCH   4  12
ATOM     12  O   UNK    1       32.013 -18.830   7.290  0.00  0.00    -0.388 OA
ATOM     13  H   UNK    1       32.538 -18.964   6.475  0.00  0.00    +0.210 HD
ENDBRANCH   4  12
BRANCH   1  14
ATOM     14  C   UNK    1       26.875 -21.226   7.995  0.00  0.00    +0.177 C 
BRANCH  14  15
ATOM     15  O   UNK    1       26.065 -21.024   9.148  0.00  0.00    -0.393 OA
ATOM     16  H   UNK    1       26.110 -20.075   9.367  0.00  0.00    +0.209 HD
ENDBRANCH  14  15
ENDBRANCH   1  14
TORSDOF 5
ENDMDL
MODEL 8
REMARK VINA RESULT:      -5.1      7.161      8.107
REMARK  Name = *****
REMARK                            x       y       z     vdW  Elec       q    Type
REMARK                         _______ _______ _______ _____ _____    ______ ____
ROOT
ATOM      1  C   UNK    1       25.080 -23.832   5.706  0.00  0.00    +0.111 C 
ATOM      2  C   UNK    1       24.116 -23.527   6.879  0.00  0.00    +0.165 C 
ATOM      3  C   UNK    1       23.887 -22.016   7.025  0.00  0.00    +0.174 C 
ATOM      4  C   UNK    1       23.460 -21.381   5.696  0.00  0.00    +0.159 C 
ATOM      5  C   UNK    1       24.451 -21.755   4.588  0.00  0.00    +0.115 C 
ATOM      6  N   UNK    1       24.639 -23.203   4.443  0.00  0.00    -0.306 NA
ATOM      7  H   UNK    1       23.794 -23.640   4.080  0.00  0.00    +0.122 HD
ENDROOT
BRANCH   2   8
ATOM      8  O   UNK    1       22.847 -24.183   6.709  0.00  0.00    -0.388 OA
ATOM      9  H   UNK    1       22.399 -23.784   5.945  0.00  0.00    +0.210 HD
ENDBRANCH   2   8
BRANCH   3  10
ATOM     10  O   UNK    1       22.861 -21.757   7.999  0.00  0.00    -0.387 OA
ATOM     11  H   UNK    1       22.989 -20.831   8.288  0.00  0.00    +0.210 HD
ENDBRANCH   3  10
BRANCH   4  12
ATOM     12  O   UNK    1       23.399 -19.961   5.846  0.00  0.00    -0.388 OA
ATOM     13  H   UNK    1       23.131 -19.617   4.970  0.00  0.00    +0.210 HD
ENDBRANCH   4  12
BRANCH   1  14
ATOM     14  C   UNK    1       25.266 -25.348   5.494  0.00  0.00    +0.177 C 
BRANCH  14  15
ATOM     15  O   UNK    1       24.060 -25.968   5.058  0.00  0.00    -0.393 OA
ATOM     16  H   UNK    1       24.227 -26.927   5.023  0.00  0.00    +0.209 HD
ENDBRANCH  14  15
ENDBRANCH   1  14
TORSDOF 5
ENDMDL
MODEL 9
REMARK VINA RESULT:      -5.1      3.177      4.184
REMARK  Name = *****
REMARK                            x       y       z     vdW  Elec       q    Type
REMARK                         _______ _______ _______ _____ _____    ______ ____
ROOT
ATOM      1  C   UNK    1       30.405 -18.251   9.191  0.00  0.00    +0.111 C 
ATOM      2  C   UNK    1       31.514 -17.328   8.632  0.00  0.00    +0.165 C 
ATOM      3  C   UNK    1       31.844 -16.201   9.620  0.00  0.00    +0.174 C 
ATOM      4  C   UNK    1       32.148 -16.750  11.019  0.00  0.00    +0.159 C 
ATOM      5  C   UNK    1       31.016 -17.673  11.483  0.00  0.00    +0.115 C 
ATOM      6  N   UNK    1       30.730 -18.760  10.541  0.00  0.00    -0.306 NA
ATOM      7  H   UNK    1       31.501 -19.425  10.517  0.00  0.00    +0.122 HD
ENDROOT
BRANCH   2   8
ATOM      8  O   UNK    1       32.716 -18.061   8.333  0.00  0.00    -0.388 OA
ATOM      9  H   UNK    1       33.155 -18.280   9.172  0.00  0.00    +0.210 HD
ENDBRANCH   2   8
BRANCH   3  10
ATOM     10  O   UNK    1       32.989 -15.457   9.168  0.00  0.00    -0.387 OA
ATOM     11  H   UNK    1       32.639 -14.643   8.753  0.00  0.00    +0.210 HD
ENDBRANCH   3  10
BRANCH   4  12
ATOM     12  O   UNK    1       32.306 -15.663  11.933  0.00  0.00    -0.388 OA
ATOM     13  H   UNK    1       31.837 -14.908  11.525  0.00  0.00    +0.210 HD
ENDBRANCH   4  12
BRANCH   1  14
ATOM     14  C   UNK    1       30.111 -19.434   8.247  0.00  0.00    +0.177 C 
BRANCH  14  15
ATOM     15  O   UNK    1       31.226 -20.313   8.145  0.00  0.00    -0.393 OA
ATOM     16  H   UNK    1       30.933 -21.186   8.464  0.00  0.00    +0.209 HD
ENDBRANCH  14  15
ENDBRANCH   1  14
TORSDOF 5
ENDMDL
