MODEL 1
REMARK VINA RESULT:      -6.6      0.000      0.000
REMARK  Name = *****
REMARK                            x       y       z     vdW  Elec       q    Type
REMARK                         _______ _______ _______ _____ _____    ______ ____
ROOT
ATOM      1  N   LIG    1       27.235 -20.391   6.161  0.00  0.00    -0.221 N 
ATOM      2  C   LIG    1       26.669 -19.942   4.875  0.00  0.00    +0.223 C 
ATOM      3  C   LIG    1       25.152 -19.897   4.877  0.00  0.00    -0.013 A 
ATOM      4  C   LIG    1       24.394 -20.501   5.896  0.00  0.00    -0.039 A 
ATOM      5  C   LIG    1       22.993 -20.440   5.855  0.00  0.00    +0.004 A 
ATOM      6  C   LIG    1       22.347 -19.809   4.793  0.00  0.00    +0.000 A 
ATOM      7  C   LIG    1       23.092 -19.229   3.769  0.00  0.00    +0.000 A 
ATOM      8  C   LIG    1       25.086 -21.155   7.062  0.00  0.00    +0.070 C 
ATOM      9  C   LIG    1       24.486 -19.274   3.810  0.00  0.00    +0.007 A 
ATOM     10  C   LIG    1       26.523 -21.551   6.716  0.00  0.00    +0.192 C 
ENDROOT
BRANCH   1  13
ATOM     11  N   LIG    1       29.351 -21.199   6.772  0.00  0.00    -0.134 NA
ATOM     12  H   LIG    1       30.314 -20.865   6.805  0.00  0.00    +0.306 HD
ATOM     13  C   LIG    1       28.588 -20.267   6.318  0.00  0.00    +0.362 C 
BRANCH  13  14
ATOM     14  N   LIG    1       29.094 -19.086   5.902  0.00  0.00    -0.252 N 
ATOM     15  H   LIG    1       28.994 -18.969   4.901  0.00  0.00    +0.241 HD
ATOM     16  H   LIG    1       30.045 -18.907   6.193  0.00  0.00    +0.241 HD
ENDBRANCH  13  14
ENDBRANCH   1  13
TORSDOF 2
ENDMDL
MODEL 2
REMARK VINA RESULT:      -5.6      2.517      5.114
REMARK  Name = *****
REMARK                            x       y       z     vdW  Elec       q    Type
REMARK                         _______ _______ _______ _____ _____    ______ ____
ROOT
ATOM      1  N   LIG    1       24.001 -20.195   4.888  0.00  0.00    -0.221 N 
ATOM      2  C   LIG    1       24.730 -21.149   5.745  0.00  0.00    +0.223 C 
ATOM      3  C   LIG    1       26.195 -20.791   5.919  0.00  0.00    -0.013 A 
ATOM      4  C   LIG    1       26.824 -19.826   5.112  0.00  0.00    -0.039 A 
ATOM      5  C   LIG    1       28.181 -19.529   5.305  0.00  0.00    +0.004 A 
ATOM      6  C   LIG    1       28.918 -20.207   6.274  0.00  0.00    +0.000 A 
ATOM      7  C   LIG    1       28.307 -21.180   7.062  0.00  0.00    +0.000 A 
ATOM      8  C   LIG    1       26.025 -19.068   4.085  0.00  0.00    +0.070 C 
ATOM      9  C   LIG    1       26.954 -21.470   6.885  0.00  0.00    +0.007 A 
ATOM     10  C   LIG    1       24.757 -19.824   3.684  0.00  0.00    +0.192 C 
ENDROOT
BRANCH   1  13
ATOM     11  N   LIG    1       22.004 -21.396   5.157  0.00  0.00    -0.134 NA
ATOM     12  H   LIG    1       21.003 -21.249   5.031  0.00  0.00    +0.306 HD
ATOM     13  C   LIG    1       22.640 -20.323   4.842  0.00  0.00    +0.362 C 
BRANCH  13  14
ATOM     14  N   LIG    1       21.983 -19.197   4.484  0.00  0.00    -0.252 N 
ATOM     15  H   LIG    1       22.624 -18.464   4.206  0.00  0.00    +0.241 HD
ATOM     16  H   LIG    1       21.321 -18.858   5.168  0.00  0.00    +0.241 HD
ENDBRANCH  13  14
ENDBRANCH   1  13
TORSDOF 2
ENDMDL
MODEL 3
REMARK VINA RESULT:      -5.2      2.359      4.692
REMARK  Name = *****
REMARK                            x       y       z     vdW  Elec       q    Type
REMARK                         _______ _______ _______ _____ _____    ______ ____
ROOT
ATOM      1  N   LIG    1       24.761 -20.935   4.939  0.00  0.00    -0.221 N 
ATOM      2  C   LIG    1       25.582 -19.783   4.522  0.00  0.00    +0.223 C 
ATOM      3  C   LIG    1       26.906 -19.699   5.260  0.00  0.00    -0.013 A 
ATOM      4  C   LIG    1       27.165 -20.470   6.408  0.00  0.00    -0.039 A 
ATOM      5  C   LIG    1       28.400 -20.357   7.062  0.00  0.00    +0.004 A 
ATOM      6  C   LIG    1       29.364 -19.464   6.597  0.00  0.00    +0.000 A 
ATOM      7  C   LIG    1       29.105 -18.682   5.474  0.00  0.00    +0.000 A 
ATOM      8  C   LIG    1       26.140 -21.460   6.896  0.00  0.00    +0.070 C 
ATOM      9  C   LIG    1       27.884 -18.798   4.810  0.00  0.00    +0.007 A 
ATOM     10  C   LIG    1       24.737 -21.113   6.397  0.00  0.00    +0.192 C 
ENDROOT
BRANCH   1  13
ATOM     11  N   LIG    1       23.684 -21.568   2.953  0.00  0.00    -0.134 NA
ATOM     12  H   LIG    1       22.732 -21.699   2.611  0.00  0.00    +0.306 HD
ATOM     13  C   LIG    1       23.650 -21.205   4.187  0.00  0.00    +0.362 C 
BRANCH  13  14
ATOM     14  N   LIG    1       22.483 -21.115   4.862  0.00  0.00    -0.252 N 
ATOM     15  H   LIG    1       22.243 -20.153   5.067  0.00  0.00    +0.241 HD
ATOM     16  H   LIG    1       22.430 -21.687   5.694  0.00  0.00    +0.241 HD
ENDBRANCH  13  14
ENDBRANCH   1  13
TORSDOF 2
ENDMDL
MODEL 4
REMARK VINA RESULT:      -5.0      0.979      1.403
REMARK  Name = *****
REMARK                            x       y       z     vdW  Elec       q    Type
REMARK                         _______ _______ _______ _____ _____    ______ ____
ROOT
ATOM      1  N   LIG    1       26.238 -20.501   5.889  0.00  0.00    -0.221 N 
ATOM      2  C   LIG    1       25.848 -19.883   4.607  0.00  0.00    +0.223 C 
ATOM      3  C   LIG    1       24.359 -19.606   4.510  0.00  0.00    -0.013 A 
ATOM      4  C   LIG    1       23.442 -20.154   5.425  0.00  0.00    -0.039 A 
ATOM      5  C   LIG    1       22.073 -19.876   5.294  0.00  0.00    +0.004 A 
ATOM      6  C   LIG    1       21.613 -19.082   4.244  0.00  0.00    +0.000 A 
ATOM      7  C   LIG    1       22.514 -18.556   3.322  0.00  0.00    +0.000 A 
ATOM      8  C   LIG    1       23.936 -20.985   6.579  0.00  0.00    +0.070 C 
ATOM      9  C   LIG    1       23.879 -18.816   3.453  0.00  0.00    +0.007 A 
ATOM     10  C   LIG    1       25.320 -21.572   6.301  0.00  0.00    +0.192 C 
ENDROOT
BRANCH   1  13
ATOM     11  N   LIG    1       28.468 -19.821   5.635  0.00  0.00    -0.134 NA
ATOM     12  H   LIG    1       29.392 -20.097   5.969  0.00  0.00    +0.306 HD
ATOM     13  C   LIG    1       27.578 -20.597   6.146  0.00  0.00    +0.362 C 
BRANCH  13  14
ATOM     14  N   LIG    1       27.909 -21.554   7.040  0.00  0.00    -0.252 N 
ATOM     15  H   LIG    1       28.733 -22.067   6.750  0.00  0.00    +0.241 HD
ATOM     16  H   LIG    1       27.158 -22.185   7.283  0.00  0.00    +0.241 HD
ENDBRANCH  13  14
ENDBRANCH   1  13
TORSDOF 2
ENDMDL
MODEL 5
REMARK VINA RESULT:      -4.8      1.368      2.080
REMARK  Name = *****
REMARK                            x       y       z     vdW  Elec       q    Type
REMARK                         _______ _______ _______ _____ _____    ______ ____
ROOT
ATOM      1  N   LIG    1       27.250 -19.209   5.293  0.00  0.00    -0.221 N 
ATOM      2  C   LIG    1       26.071 -19.423   4.432  0.00  0.00    +0.223 C 
ATOM      3  C   LIG    1       24.952 -20.172   5.132  0.00  0.00    -0.013 A 
ATOM      4  C   LIG    1       25.154 -20.831   6.359  0.00  0.00    -0.039 A 
ATOM      5  C   LIG    1       24.093 -21.515   6.968  0.00  0.00    +0.004 A 
ATOM      6  C   LIG    1       22.844 -21.570   6.351  0.00  0.00    +0.000 A 
ATOM      7  C   LIG    1       22.643 -20.939   5.126  0.00  0.00    +0.000 A 
ATOM      8  C   LIG    1       26.491 -20.747   7.045  0.00  0.00    +0.070 C 
ATOM      9  C   LIG    1       23.691 -20.244   4.519  0.00  0.00    +0.007 A 
ATOM     10  C   LIG    1       27.612 -20.408   6.061  0.00  0.00    +0.192 C 
ENDROOT
BRANCH   1  13
ATOM     11  N   LIG    1       27.989 -17.365   4.046  0.00  0.00    -0.134 NA
ATOM     12  H   LIG    1       28.868 -16.903   3.818  0.00  0.00    +0.306 HD
ATOM     13  C   LIG    1       28.219 -18.371   4.815  0.00  0.00    +0.362 C 
BRANCH  13  14
ATOM     14  N   LIG    1       29.464 -18.643   5.262  0.00  0.00    -0.252 N 
ATOM     15  H   LIG    1       29.946 -17.803   5.559  0.00  0.00    +0.241 HD
ATOM     16  H   LIG    1       30.035 -19.181   4.624  0.00  0.00    +0.241 HD
ENDBRANCH  13  14
ENDBRANCH   1  13
TORSDOF 2
ENDMDL
MODEL 6
REMARK VINA RESULT:      -4.3      4.346      5.590
REMARK  Name = *****
REMARK                            x       y       z     vdW  Elec       q    Type
REMARK                         _______ _______ _______ _____ _____    ______ ____
ROOT
ATOM      1  N   LIG    1       25.161 -14.844   3.192  0.00  0.00    -0.221 N 
ATOM      2  C   LIG    1       25.648 -16.235   3.261  0.00  0.00    +0.223 C 
ATOM      3  C   LIG    1       24.573 -17.220   3.683  0.00  0.00    -0.013 A 
ATOM      4  C   LIG    1       23.346 -16.793   4.222  0.00  0.00    -0.039 A 
ATOM      5  C   LIG    1       22.383 -17.739   4.603  0.00  0.00    +0.004 A 
ATOM      6  C   LIG    1       22.646 -19.102   4.477  0.00  0.00    +0.000 A 
ATOM      7  C   LIG    1       23.868 -19.531   3.964  0.00  0.00    +0.000 A 
ATOM      8  C   LIG    1       23.043 -15.322   4.331  0.00  0.00    +0.070 C 
ATOM      9  C   LIG    1       24.826 -18.596   3.570  0.00  0.00    +0.007 A 
ATOM     10  C   LIG    1       24.321 -14.481   4.341  0.00  0.00    +0.192 C 
ENDROOT
BRANCH   1  13
ATOM     11  N   LIG    1       27.159 -14.204   2.144  0.00  0.00    -0.134 NA
ATOM     12  H   LIG    1       27.596 -13.353   1.790  0.00  0.00    +0.306 HD
ATOM     13  C   LIG    1       26.000 -13.923   2.627  0.00  0.00    +0.362 C 
BRANCH  13  14
ATOM     14  N   LIG    1       25.494 -12.672   2.558  0.00  0.00    -0.252 N 
ATOM     15  H   LIG    1       24.708 -12.553   3.185  0.00  0.00    +0.241 HD
ATOM     16  H   LIG    1       25.264 -12.360   1.625  0.00  0.00    +0.241 HD
ENDBRANCH  13  14
ENDBRANCH   1  13
TORSDOF 2
ENDMDL
MODEL 7
REMARK VINA RESULT:      -4.2      3.386      4.807
REMARK  Name = *****
REMARK                            x       y       z     vdW  Elec       q    Type
REMARK                         _______ _______ _______ _____ _____    ______ ____
ROOT
ATOM      1  N   LIG    1       24.389 -19.049   4.039  0.00  0.00    -0.221 N 
ATOM      2  C   LIG    1       25.345 -18.102   3.434  0.00  0.00    +0.223 C 
ATOM      3  C   LIG    1       24.961 -16.650   3.652  0.00  0.00    -0.013 A 
ATOM      4  C   LIG    1       23.687 -16.282   4.122  0.00  0.00    -0.039 A 
ATOM      5  C   LIG    1       23.373 -14.928   4.304  0.00  0.00    +0.004 A 
ATOM      6  C   LIG    1       24.307 -13.941   3.995  0.00  0.00    +0.000 A 
ATOM      7  C   LIG    1       25.563 -14.297   3.509  0.00  0.00    +0.000 A 
ATOM      8  C   LIG    1       22.684 -17.345   4.487  0.00  0.00    +0.070 C 
ATOM      9  C   LIG    1       25.888 -15.644   3.338  0.00  0.00    +0.007 A 
ATOM     10  C   LIG    1       22.990 -18.673   3.793  0.00  0.00    +0.192 C 
ENDROOT
BRANCH   1  13
ATOM     11  N   LIG    1       23.973 -21.343   3.781  0.00  0.00    -0.134 NA
ATOM     12  H   LIG    1       24.474 -22.225   3.887  0.00  0.00    +0.306 HD
ATOM     13  C   LIG    1       24.759 -20.366   4.069  0.00  0.00    +0.362 C 
BRANCH  13  14
ATOM     14  N   LIG    1       26.057 -20.575   4.379  0.00  0.00    -0.252 N 
ATOM     15  H   LIG    1       26.652 -20.504   3.562  0.00  0.00    +0.241 HD
ATOM     16  H   LIG    1       26.239 -21.432   4.884  0.00  0.00    +0.241 HD
ENDBRANCH  13  14
ENDBRANCH   1  13
TORSDOF 2
ENDMDL
MODEL 8
REMARK VINA RESULT:      -4.1      3.650      5.000
REMARK  Name = *****
REMARK                            x       y       z     vdW  Elec       q    Type
REMARK                         _______ _______ _______ _____ _____    ______ ____
ROOT
ATOM      1  N   LIG    1       24.763 -18.662   3.902  0.00  0.00    -0.221 N 
ATOM      2  C   LIG    1       25.702 -17.679   3.328  0.00  0.00    +0.223 C 
ATOM      3  C   LIG    1       25.276 -16.242   3.567  0.00  0.00    -0.013 A 
ATOM      4  C   LIG    1       23.987 -15.916   4.026  0.00  0.00    -0.039 A 
ATOM      5  C   LIG    1       23.636 -14.574   4.229  0.00  0.00    +0.004 A 
ATOM      6  C   LIG    1       24.548 -13.557   3.950  0.00  0.00    +0.000 A 
ATOM      7  C   LIG    1       25.819 -13.872   3.475  0.00  0.00    +0.000 A 
ATOM      8  C   LIG    1       23.009 -17.011   4.359  0.00  0.00    +0.070 C 
ATOM      9  C   LIG    1       26.181 -15.206   3.284  0.00  0.00    +0.007 A 
ATOM     10  C   LIG    1       23.358 -18.318   3.645  0.00  0.00    +0.192 C 
ENDROOT
BRANCH   1  13
ATOM     11  N   LIG    1       26.303 -20.369   4.368  0.00  0.00    -0.134 NA
ATOM     12  H   LIG    1       26.376 -21.380   4.258  0.00  0.00    +0.306 HD
ATOM     13  C   LIG    1       25.167 -19.968   3.914  0.00  0.00    +0.362 C 
BRANCH  13  14
ATOM     14  N   LIG    1       24.247 -20.843   3.452  0.00  0.00    -0.252 N 
ATOM     15  H   LIG    1       23.560 -21.071   4.161  0.00  0.00    +0.241 HD
ATOM     16  H   LIG    1       24.631 -21.682   3.038  0.00  0.00    +0.241 HD
ENDBRANCH  13  14
ENDBRANCH   1  13
TORSDOF 2
ENDMDL
MODEL 9
REMARK VINA RESULT:      -3.9      4.353      5.700
REMARK  Name = *****
REMARK                            x       y       z     vdW  Elec       q    Type
REMARK                         _______ _______ _______ _____ _____    ______ ____
ROOT
ATOM      1  N   LIG    1       24.924 -14.729   4.178  0.00  0.00    -0.221 N 
ATOM      2  C   LIG    1       23.565 -15.288   4.306  0.00  0.00    +0.223 C 
ATOM      3  C   LIG    1       23.534 -16.802   4.194  0.00  0.00    -0.013 A 
ATOM      4  C   LIG    1       24.640 -17.534   3.727  0.00  0.00    -0.039 A 
ATOM      5  C   LIG    1       24.565 -18.931   3.634  0.00  0.00    +0.004 A 
ATOM      6  C   LIG    1       23.388 -19.597   3.975  0.00  0.00    +0.000 A 
ATOM      7  C   LIG    1       22.282 -18.876   4.416  0.00  0.00    +0.000 A 
ATOM      8  C   LIG    1       25.924 -16.824   3.388  0.00  0.00    +0.070 C 
ATOM      9  C   LIG    1       22.353 -17.486   4.525  0.00  0.00    +0.007 A 
ATOM     10  C   LIG    1       25.687 -15.344   3.083  0.00  0.00    +0.192 C 
ENDROOT
BRANCH   1  13
ATOM     11  N   LIG    1       24.257 -12.482   4.093  0.00  0.00    -0.134 NA
ATOM     12  H   LIG    1       24.588 -11.575   4.421  0.00  0.00    +0.306 HD
ATOM     13  C   LIG    1       25.075 -13.401   4.469  0.00  0.00    +0.362 C 
BRANCH  13  14
ATOM     14  N   LIG    1       26.143 -13.115   5.246  0.00  0.00    -0.252 N 
ATOM     15  H   LIG    1       26.910 -12.738   4.703  0.00  0.00    +0.241 HD
ATOM     16  H   LIG    1       26.455 -13.877   5.832  0.00  0.00    +0.241 HD
ENDBRANCH  13  14
ENDBRANCH   1  13
TORSDOF 2
ENDMDL
