MODEL 1
REMARK VINA RESULT:      -6.8      0.000      0.000
REMARK  Name = *****
REMARK                            x       y       z     vdW  Elec       q    Type
REMARK                         _______ _______ _______ _____ _____    ______ ____
ROOT
ATOM      1  C   LIG    1       25.551 -20.883   7.326  0.00  0.00    +0.178 C 
ATOM      2  C   LIG    1       25.609 -21.455   5.890  0.00  0.00    +0.151 C 
ATOM      3  C   LIG    1       25.797 -22.970   5.998  0.00  0.00    +0.095 C 
ATOM      4  C   LIG    1       24.803 -23.551   7.014  0.00  0.00    +0.253 C 
ATOM      5  O   LIG    1       23.766 -22.614   7.303  0.00  0.00    -0.346 OA
ATOM      6  C   LIG    1       24.265 -21.448   7.987  0.00  0.00    +0.150 C 
ATOM      7  C   LIG    1       23.135 -20.426   7.993  0.00  0.00    +0.040 C 
ENDROOT
BRANCH   2   8
ATOM      8  O   LIG    1       26.673 -20.879   5.130  0.00  0.00    -0.389 OA
ATOM      9  H   LIG    1       26.313 -20.650   4.256  0.00  0.00    +0.210 HD
ENDBRANCH   2   8
BRANCH   1  10
ATOM     10  O   LIG    1       26.752 -21.365   7.959  0.00  0.00    -0.343 OA
BRANCH  10  14
ATOM     11  C   LIG    1       30.307 -19.328   7.810  0.00  0.00    +0.178 C 
ATOM     12  C   LIG    1       30.373 -20.849   7.610  0.00  0.00    +0.151 C 
ATOM     13  C   LIG    1       29.087 -21.472   8.134  0.00  0.00    +0.095 C 
ATOM     14  C   LIG    1       27.886 -20.516   8.024  0.00  0.00    +0.254 C 
ATOM     15  O   LIG    1       27.979 -19.640   6.908  0.00  0.00    -0.346 OA
ATOM     16  C   LIG    1       29.182 -18.841   6.852  0.00  0.00    +0.150 C 
ATOM     17  C   LIG    1       29.635 -18.861   5.390  0.00  0.00    +0.040 C 
BRANCH  12  18
ATOM     18  O   LIG    1       31.541 -21.430   8.184  0.00  0.00    -0.389 OA
ATOM     19  H   LIG    1       32.323 -21.095   7.718  0.00  0.00    +0.210 HD
ENDBRANCH  12  18
BRANCH  11  20
ATOM     20  O   LIG    1       30.013 -19.065   9.216  0.00  0.00    -0.343 OA
BRANCH  20  26
ATOM     21  C   LIG    1       31.712 -17.763  13.383  0.00  0.00    +0.040 C 
ATOM     22  C   LIG    1       31.826 -17.480  11.893  0.00  0.00    +0.149 C 
ATOM     23  C   LIG    1       31.694 -15.987  11.557  0.00  0.00    +0.171 C 
ATOM     24  C   LIG    1       31.690 -15.782  10.030  0.00  0.00    +0.150 C 
ATOM     25  C   LIG    1       30.717 -16.733   9.328  0.00  0.00    +0.095 C 
ATOM     26  C   LIG    1       30.935 -18.165   9.830  0.00  0.00    +0.254 C 
ATOM     27  O   LIG    1       30.794 -18.219  11.240  0.00  0.00    -0.346 OA
BRANCH  23  28
ATOM     28  O   LIG    1       32.778 -15.248  12.126  0.00  0.00    -0.387 OA
ATOM     29  H   LIG    1       33.376 -15.920  12.512  0.00  0.00    +0.210 HD
ENDBRANCH  23  28
BRANCH  24  30
ATOM     30  O   LIG    1       33.025 -16.025   9.547  0.00  0.00    -0.389 OA
ATOM     31  H   LIG    1       33.265 -15.276   8.969  0.00  0.00    +0.210 HD
ENDBRANCH  24  30
ENDBRANCH  20  26
ENDBRANCH  11  20
ENDBRANCH  10  14
ENDBRANCH   1  10
BRANCH   4  32
ATOM     32  O   LIG    1       24.266 -24.743   6.460  0.00  0.00    -0.348 OA
BRANCH  32  33
ATOM     33  C   LIG    1       25.032 -25.356   5.415  0.00  0.00    +0.122 C 
ATOM     34  C   LIG    1       24.449 -26.688   4.922  0.00  0.00    +0.035 C 
ATOM     35  C   LIG    1       24.272 -27.671   6.088  0.00  0.00    -0.002 C 
ATOM     36  C   LIG    1       23.581 -28.973   5.638  0.00  0.00    +0.004 C 
ATOM     37  C   LIG    1       23.680 -30.113   6.666  0.00  0.00    +0.007 C 
ATOM     38  C   LIG    1       23.907 -29.592   8.082  0.00  0.00    +0.025 C 
ATOM     39  C   LIG    1       23.934 -30.594   9.239  0.00  0.00    +0.077 C 
ATOM     40  C   LIG    1       25.217 -31.480   9.331  0.00  0.00    +0.029 C 
ATOM     41  C   LIG    1       25.282 -32.655   8.285  0.00  0.00    +0.017 C 
ATOM     42  C   LIG    1       24.971 -32.206  10.708  0.00  0.00    +0.030 C 
ATOM     43  C   LIG    1       23.421 -32.494  10.626  0.00  0.00    +0.011 C 
ATOM     44  C   LIG    1       26.490 -30.654   9.037  0.00  0.00    +0.124 C 
ATOM     45  C   LIG    1       26.304 -29.142   9.120  0.00  0.00    +0.036 C 
ATOM     46  C   LIG    1       22.823 -31.602   9.495  0.00  0.00    +0.036 C 
ATOM     47  C   LIG    1       25.145 -28.612   8.228  0.00  0.00    +0.003 C 
ATOM     48  C   LIG    1       25.587 -27.932   6.883  0.00  0.00    -0.026 C 
ATOM     49  C   LIG    1       26.588 -28.787   6.069  0.00  0.00    +0.012 C 
ATOM     50  C   LIG    1       26.303 -26.583   7.212  0.00  0.00    +0.009 C 
ATOM     51  C   LIG    1       26.414 -25.631   6.015  0.00  0.00    +0.032 C 
BRANCH  42  52
ATOM     52  C   LIG    1       25.398 -31.552  12.011  0.00  0.00    -0.022 C 
ATOM     53  C   LIG    1       25.273 -32.260  13.310  0.00  0.00    +0.264 C 
ATOM     54  O   LIG    1       25.698 -31.303  14.294  0.00  0.00    -0.457 OA
ATOM     55  C   LIG    1       26.048 -30.166  13.670  0.00  0.00    +0.332 C 
ATOM     56  O   LIG    1       26.489 -29.147  14.217  0.00  0.00    -0.246 OA
ATOM     57  C   LIG    1       25.807 -30.303  12.243  0.00  0.00    +0.094 C 
ENDBRANCH  42  52
BRANCH  39  58
ATOM     58  O   LIG    1       23.843 -29.709  10.385  0.00  0.00    -0.388 OA
ATOM     59  H   LIG    1       23.159 -29.038  10.209  0.00  0.00    +0.210 HD
ENDBRANCH  39  58
BRANCH  44  60
ATOM     60  O   LIG    1       27.598 -31.098   9.803  0.00  0.00    -0.391 OA
ATOM     61  H   LIG    1       27.258 -31.698  10.490  0.00  0.00    +0.210 HD
ENDBRANCH  44  60
ENDBRANCH  32  33
ENDBRANCH   4  32
TORSDOF 13
ENDMDL
MODEL 2
REMARK VINA RESULT:      -6.1      3.330      6.214
REMARK  Name = *****
REMARK                            x       y       z     vdW  Elec       q    Type
REMARK                         _______ _______ _______ _____ _____    ______ ____
ROOT
ATOM      1  C   LIG    1       25.530 -26.244   5.811  0.00  0.00    +0.178 C 
ATOM      2  C   LIG    1       26.693 -27.259   5.923  0.00  0.00    +0.151 C 
ATOM      3  C   LIG    1       26.619 -27.902   7.310  0.00  0.00    +0.095 C 
ATOM      4  C   LIG    1       25.180 -28.350   7.603  0.00  0.00    +0.253 C 
ATOM      5  O   LIG    1       24.403 -28.378   6.408  0.00  0.00    -0.346 OA
ATOM      6  C   LIG    1       24.211 -27.060   5.855  0.00  0.00    +0.150 C 
ATOM      7  C   LIG    1       23.614 -27.250   4.466  0.00  0.00    +0.040 C 
ENDROOT
BRANCH   2   8
ATOM      8  O   LIG    1       27.964 -26.634   5.737  0.00  0.00    -0.389 OA
ATOM      9  H   LIG    1       28.180 -26.694   4.790  0.00  0.00    +0.210 HD
ENDBRANCH   2   8
BRANCH   1  10
ATOM     10  O   LIG    1       25.685 -25.385   6.956  0.00  0.00    -0.343 OA
BRANCH  10  14
ATOM     11  C   LIG    1       25.339 -21.380   6.149  0.00  0.00    +0.178 C 
ATOM     12  C   LIG    1       24.497 -22.334   5.290  0.00  0.00    +0.151 C 
ATOM     13  C   LIG    1       25.070 -23.739   5.406  0.00  0.00    +0.095 C 
ATOM     14  C   LIG    1       25.756 -23.981   6.761  0.00  0.00    +0.254 C 
ATOM     15  O   LIG    1       25.154 -23.250   7.822  0.00  0.00    -0.346 OA
ATOM     16  C   LIG    1       25.081 -21.821   7.619  0.00  0.00    +0.150 C 
ATOM     17  C   LIG    1       23.690 -21.397   8.100  0.00  0.00    +0.040 C 
BRANCH  12  18
ATOM     18  O   LIG    1       24.376 -21.896   3.939  0.00  0.00    -0.389 OA
ATOM     19  H   LIG    1       23.554 -21.391   3.841  0.00  0.00    +0.210 HD
ENDBRANCH  12  18
BRANCH  11  20
ATOM     20  O   LIG    1       26.736 -21.520   5.749  0.00  0.00    -0.343 OA
BRANCH  20  26
ATOM     21  C   LIG    1       29.257 -17.684   4.807  0.00  0.00    +0.040 C 
ATOM     22  C   LIG    1       28.872 -18.626   5.938  0.00  0.00    +0.149 C 
ATOM     23  C   LIG    1       30.087 -19.149   6.718  0.00  0.00    +0.171 C 
ATOM     24  C   LIG    1       29.642 -20.192   7.762  0.00  0.00    +0.150 C 
ATOM     25  C   LIG    1       28.709 -21.244   7.157  0.00  0.00    +0.095 C 
ATOM     26  C   LIG    1       27.599 -20.557   6.355  0.00  0.00    +0.254 C 
ATOM     27  O   LIG    1       28.160 -19.719   5.357  0.00  0.00    -0.346 OA
BRANCH  23  28
ATOM     28  O   LIG    1       30.754 -18.074   7.385  0.00  0.00    -0.387 OA
ATOM     29  H   LIG    1       31.484 -17.811   6.787  0.00  0.00    +0.210 HD
ENDBRANCH  23  28
BRANCH  24  30
ATOM     30  O   LIG    1       28.953 -19.496   8.818  0.00  0.00    -0.389 OA
ATOM     31  H   LIG    1       28.166 -19.075   8.423  0.00  0.00    +0.210 HD
ENDBRANCH  24  30
ENDBRANCH  20  26
ENDBRANCH  11  20
ENDBRANCH  10  14
ENDBRANCH   1  10
BRANCH   4  32
ATOM     32  O   LIG    1       25.242 -29.641   8.195  0.00  0.00    -0.348 OA
BRANCH  32  33
ATOM     33  C   LIG    1       26.338 -29.874   9.088  0.00  0.00    +0.122 C 
ATOM     34  C   LIG    1       26.209 -31.174   9.897  0.00  0.00    +0.035 C 
ATOM     35  C   LIG    1       24.885 -31.206  10.672  0.00  0.00    -0.002 C 
ATOM     36  C   LIG    1       24.679 -32.549  11.398  0.00  0.00    +0.004 C 
ATOM     37  C   LIG    1       23.556 -32.519  12.448  0.00  0.00    +0.007 C 
ATOM     38  C   LIG    1       22.537 -31.419  12.168  0.00  0.00    +0.025 C 
ATOM     39  C   LIG    1       21.302 -31.315  13.067  0.00  0.00    +0.077 C 
ATOM     40  C   LIG    1       21.560 -30.748  14.500  0.00  0.00    +0.029 C 
ATOM     41  C   LIG    1       22.227 -31.764  15.500  0.00  0.00    +0.017 C 
ATOM     42  C   LIG    1       20.081 -30.606  15.027  0.00  0.00    +0.030 C 
ATOM     43  C   LIG    1       19.426 -31.922  14.450  0.00  0.00    +0.011 C 
ATOM     44  C   LIG    1       22.551 -29.562  14.462  0.00  0.00    +0.124 C 
ATOM     45  C   LIG    1       22.753 -28.941  13.084  0.00  0.00    +0.036 C 
ATOM     46  C   LIG    1       20.370 -32.485  13.344  0.00  0.00    +0.036 C 
ATOM     47  C   LIG    1       23.165 -29.974  11.995  0.00  0.00    +0.003 C 
ATOM     48  C   LIG    1       24.688 -29.978  11.612  0.00  0.00    -0.026 C 
ATOM     49  C   LIG    1       25.625 -30.042  12.842  0.00  0.00    +0.012 C 
ATOM     50  C   LIG    1       25.020 -28.652  10.855  0.00  0.00    +0.009 C 
ATOM     51  C   LIG    1       26.337 -28.699  10.070  0.00  0.00    +0.032 C 
BRANCH  42  52
ATOM     52  C   LIG    1       19.277 -29.350  14.736  0.00  0.00    -0.022 C 
ATOM     53  C   LIG    1       17.824 -29.414  14.433  0.00  0.00    +0.264 C 
ATOM     54  O   LIG    1       17.448 -28.059  14.143  0.00  0.00    -0.457 OA
ATOM     55  C   LIG    1       18.530 -27.272  14.268  0.00  0.00    +0.332 C 
ATOM     56  O   LIG    1       18.552 -26.043  14.118  0.00  0.00    -0.246 OA
ATOM     57  C   LIG    1       19.689 -28.090  14.586  0.00  0.00    +0.094 C 
ENDBRANCH  42  52
BRANCH  39  58
ATOM     58  O   LIG    1       20.469 -30.406  12.302  0.00  0.00    -0.388 OA
ATOM     59  H   LIG    1       20.732 -30.453  11.366  0.00  0.00    +0.210 HD
ENDBRANCH  39  58
BRANCH  44  60
ATOM     60  O   LIG    1       22.249 -28.588  15.447  0.00  0.00    -0.391 OA
ATOM     61  H   LIG    1       23.088 -28.318  15.860  0.00  0.00    +0.210 HD
ENDBRANCH  44  60
ENDBRANCH  32  33
ENDBRANCH   4  32
TORSDOF 13
ENDMDL
MODEL 3
REMARK VINA RESULT:      -5.0      2.815      6.398
REMARK  Name = *****
REMARK                            x       y       z     vdW  Elec       q    Type
REMARK                         _______ _______ _______ _____ _____    ______ ____
ROOT
ATOM      1  C   LIG    1       24.819 -26.854   5.297  0.00  0.00    +0.178 C 
ATOM      2  C   LIG    1       26.239 -27.115   5.856  0.00  0.00    +0.151 C 
ATOM      3  C   LIG    1       26.093 -27.973   7.116  0.00  0.00    +0.095 C 
ATOM      4  C   LIG    1       25.149 -29.152   6.841  0.00  0.00    +0.253 C 
ATOM      5  O   LIG    1       24.956 -29.332   5.439  0.00  0.00    -0.346 OA
ATOM      6  C   LIG    1       24.253 -28.225   4.842  0.00  0.00    +0.150 C 
ATOM      7  C   LIG    1       24.350 -28.406   3.332  0.00  0.00    +0.040 C 
ENDROOT
BRANCH   2   8
ATOM      8  O   LIG    1       26.921 -25.898   6.165  0.00  0.00    -0.389 OA
ATOM      9  H   LIG    1       27.278 -25.988   7.066  0.00  0.00    +0.210 HD
ENDBRANCH   2   8
BRANCH   1  10
ATOM     10  O   LIG    1       24.087 -26.297   6.406  0.00  0.00    -0.343 OA
BRANCH  10  14
ATOM     11  C   LIG    1       24.139 -22.198   6.481  0.00  0.00    +0.178 C 
ATOM     12  C   LIG    1       24.457 -22.869   5.137  0.00  0.00    +0.151 C 
ATOM     13  C   LIG    1       24.832 -24.322   5.388  0.00  0.00    +0.095 C 
ATOM     14  C   LIG    1       24.143 -24.898   6.637  0.00  0.00    +0.254 C 
ATOM     15  O   LIG    1       22.862 -24.330   6.870  0.00  0.00    -0.346 OA
ATOM     16  C   LIG    1       22.839 -22.889   6.983  0.00  0.00    +0.150 C 
ATOM     17  C   LIG    1       21.610 -22.423   6.198  0.00  0.00    +0.040 C 
BRANCH  12  18
ATOM     18  O   LIG    1       25.444 -22.164   4.389  0.00  0.00    -0.389 OA
ATOM     19  H   LIG    1       25.264 -21.213   4.444  0.00  0.00    +0.210 HD
ENDBRANCH  12  18
BRANCH  11  20
ATOM     20  O   LIG    1       25.276 -22.404   7.373  0.00  0.00    -0.343 OA
BRANCH  20  26
ATOM     21  C   LIG    1       29.767 -21.712   8.518  0.00  0.00    +0.040 C 
ATOM     22  C   LIG    1       28.734 -21.399   7.446  0.00  0.00    +0.149 C 
ATOM     23  C   LIG    1       28.662 -19.904   7.105  0.00  0.00    +0.171 C 
ATOM     24  C   LIG    1       27.514 -19.638   6.110  0.00  0.00    +0.150 C 
ATOM     25  C   LIG    1       26.210 -20.306   6.552  0.00  0.00    +0.095 C 
ATOM     26  C   LIG    1       26.473 -21.769   6.923  0.00  0.00    +0.254 C 
ATOM     27  O   LIG    1       27.468 -21.850   7.930  0.00  0.00    -0.346 OA
BRANCH  23  28
ATOM     28  O   LIG    1       29.893 -19.461   6.528  0.00  0.00    -0.387 OA
ATOM     29  H   LIG    1       29.872 -18.484   6.590  0.00  0.00    +0.210 HD
ENDBRANCH  23  28
BRANCH  24  30
ATOM     30  O   LIG    1       27.909 -20.164   4.829  0.00  0.00    -0.389 OA
ATOM     31  H   LIG    1       28.360 -19.445   4.347  0.00  0.00    +0.210 HD
ENDBRANCH  24  30
ENDBRANCH  20  26
ENDBRANCH  11  20
ENDBRANCH  10  14
ENDBRANCH   1  10
BRANCH   4  32
ATOM     32  O   LIG    1       25.726 -30.312   7.424  0.00  0.00    -0.348 OA
BRANCH  32  33
ATOM     33  C   LIG    1       24.810 -31.255   7.995  0.00  0.00    +0.122 C 
ATOM     34  C   LIG    1       23.808 -30.626   8.975  0.00  0.00    +0.035 C 
ATOM     35  C   LIG    1       24.538 -29.862  10.089  0.00  0.00    -0.002 C 
ATOM     36  C   LIG    1       23.554 -29.126  11.018  0.00  0.00    +0.004 C 
ATOM     37  C   LIG    1       24.191 -28.633  12.328  0.00  0.00    +0.007 C 
ATOM     38  C   LIG    1       25.701 -28.453  12.200  0.00  0.00    +0.025 C 
ATOM     39  C   LIG    1       26.476 -27.876  13.389  0.00  0.00    +0.077 C 
ATOM     40  C   LIG    1       26.666 -28.844  14.601  0.00  0.00    +0.029 C 
ATOM     41  C   LIG    1       25.388 -29.032  15.499  0.00  0.00    +0.017 C 
ATOM     42  C   LIG    1       27.645 -27.996  15.499  0.00  0.00    +0.030 C 
ATOM     43  C   LIG    1       27.048 -26.546  15.312  0.00  0.00    +0.011 C 
ATOM     44  C   LIG    1       26.998 -30.277  14.125  0.00  0.00    +0.124 C 
ATOM     45  C   LIG    1       27.460 -30.380  12.676  0.00  0.00    +0.036 C 
ATOM     46  C   LIG    1       26.104 -26.569  14.071  0.00  0.00    +0.036 C 
ATOM     47  C   LIG    1       26.469 -29.733  11.664  0.00  0.00    +0.003 C 
ATOM     48  C   LIG    1       25.562 -30.740  10.872  0.00  0.00    -0.026 C 
ATOM     49  C   LIG    1       24.853 -31.769  11.785  0.00  0.00    +0.012 C 
ATOM     50  C   LIG    1       26.457 -31.551   9.880  0.00  0.00    +0.009 C 
ATOM     51  C   LIG    1       25.669 -32.258   8.770  0.00  0.00    +0.032 C 
BRANCH  42  52
ATOM     52  C   LIG    1       29.147 -28.066  15.280  0.00  0.00    -0.022 C 
ATOM     53  C   LIG    1       30.005 -26.861  15.414  0.00  0.00    +0.264 C 
ATOM     54  O   LIG    1       31.325 -27.308  15.060  0.00  0.00    -0.457 OA
ATOM     55  C   LIG    1       31.274 -28.617  14.763  0.00  0.00    +0.332 C 
ATOM     56  O   LIG    1       32.240 -29.325  14.447  0.00  0.00    -0.246 OA
ATOM     57  C   LIG    1       29.899 -29.080  14.847  0.00  0.00    +0.094 C 
ENDBRANCH  42  52
BRANCH  39  58
ATOM     58  O   LIG    1       27.755 -27.573  12.774  0.00  0.00    -0.388 OA
ATOM     59  H   LIG    1       27.696 -27.762  11.821  0.00  0.00    +0.210 HD
ENDBRANCH  39  58
BRANCH  44  60
ATOM     60  O   LIG    1       27.882 -30.938  15.015  0.00  0.00    -0.391 OA
ATOM     61  H   LIG    1       28.286 -30.260  15.585  0.00  0.00    +0.210 HD
ENDBRANCH  44  60
ENDBRANCH  32  33
ENDBRANCH   4  32
TORSDOF 13
ENDMDL
MODEL 4
REMARK VINA RESULT:      -4.8      3.840      7.103
REMARK  Name = *****
REMARK                            x       y       z     vdW  Elec       q    Type
REMARK                         _______ _______ _______ _____ _____    ______ ____
ROOT
ATOM      1  C   LIG    1       25.765 -26.210   5.598  0.00  0.00    +0.178 C 
ATOM      2  C   LIG    1       26.846 -27.311   5.712  0.00  0.00    +0.151 C 
ATOM      3  C   LIG    1       26.818 -27.844   7.147  0.00  0.00    +0.095 C 
ATOM      4  C   LIG    1       25.372 -28.143   7.568  0.00  0.00    +0.253 C 
ATOM      5  O   LIG    1       24.512 -28.189   6.431  0.00  0.00    -0.346 OA
ATOM      6  C   LIG    1       24.391 -26.902   5.791  0.00  0.00    +0.150 C 
ATOM      7  C   LIG    1       23.682 -27.138   4.463  0.00  0.00    +0.040 C 
ENDROOT
BRANCH   2   8
ATOM      8  O   LIG    1       28.148 -26.814   5.396  0.00  0.00    -0.389 OA
ATOM      9  H   LIG    1       28.424 -26.240   6.131  0.00  0.00    +0.210 HD
ENDBRANCH   2   8
BRANCH   1  10
ATOM     10  O   LIG    1       26.071 -25.287   6.661  0.00  0.00    -0.343 OA
BRANCH  10  14
ATOM     11  C   LIG    1       25.063 -21.313   6.712  0.00  0.00    +0.178 C 
ATOM     12  C   LIG    1       24.338 -22.223   7.713  0.00  0.00    +0.151 C 
ATOM     13  C   LIG    1       24.486 -23.669   7.263  0.00  0.00    +0.095 C 
ATOM     14  C   LIG    1       25.789 -23.908   6.480  0.00  0.00    +0.254 C 
ATOM     15  O   LIG    1       26.852 -23.070   6.911  0.00  0.00    -0.346 OA
ATOM     16  C   LIG    1       26.573 -21.653   6.872  0.00  0.00    +0.150 C 
ATOM     17  C   LIG    1       27.148 -21.073   8.167  0.00  0.00    +0.040 C 
BRANCH  12  18
ATOM     18  O   LIG    1       22.980 -21.845   7.918  0.00  0.00    -0.389 OA
ATOM     19  H   LIG    1       22.947 -20.913   8.187  0.00  0.00    +0.210 HD
ENDBRANCH  12  18
BRANCH  11  20
ATOM     20  O   LIG    1       24.552 -21.607   5.376  0.00  0.00    -0.343 OA
BRANCH  20  26
ATOM     21  C   LIG    1       25.620 -17.587   3.218  0.00  0.00    +0.040 C 
ATOM     22  C   LIG    1       24.443 -18.456   3.636  0.00  0.00    +0.149 C 
ATOM     23  C   LIG    1       23.370 -17.676   4.409  0.00  0.00    +0.171 C 
ATOM     24  C   LIG    1       22.271 -18.634   4.911  0.00  0.00    +0.150 C 
ATOM     25  C   LIG    1       22.860 -19.864   5.605  0.00  0.00    +0.095 C 
ATOM     26  C   LIG    1       23.961 -20.477   4.733  0.00  0.00    +0.254 C 
ATOM     27  O   LIG    1       24.959 -19.510   4.449  0.00  0.00    -0.346 OA
BRANCH  23  28
ATOM     28  O   LIG    1       22.775 -16.678   3.574  0.00  0.00    -0.387 OA
ATOM     29  H   LIG    1       21.814 -16.863   3.595  0.00  0.00    +0.210 HD
ENDBRANCH  23  28
BRANCH  24  30
ATOM     30  O   LIG    1       21.496 -19.054   3.773  0.00  0.00    -0.389 OA
ATOM     31  H   LIG    1       20.864 -19.728   4.085  0.00  0.00    +0.210 HD
ENDBRANCH  24  30
ENDBRANCH  20  26
ENDBRANCH  11  20
ENDBRANCH  10  14
ENDBRANCH   1  10
BRANCH   4  32
ATOM     32  O   LIG    1       25.371 -29.387   8.253  0.00  0.00    -0.348 OA
BRANCH  32  33
ATOM     33  C   LIG    1       26.464 -29.617   9.150  0.00  0.00    +0.122 C 
ATOM     34  C   LIG    1       26.499 -31.039   9.729  0.00  0.00    +0.035 C 
ATOM     35  C   LIG    1       25.172 -31.379  10.422  0.00  0.00    -0.002 C 
ATOM     36  C   LIG    1       25.140 -32.840  10.909  0.00  0.00    +0.004 C 
ATOM     37  C   LIG    1       23.996 -33.139  11.893  0.00  0.00    +0.007 C 
ATOM     38  C   LIG    1       22.839 -32.156  11.744  0.00  0.00    +0.025 C 
ATOM     39  C   LIG    1       21.578 -32.372  12.586  0.00  0.00    +0.077 C 
ATOM     40  C   LIG    1       21.714 -32.023  14.103  0.00  0.00    +0.029 C 
ATOM     41  C   LIG    1       22.492 -33.093  14.957  0.00  0.00    +0.017 C 
ATOM     42  C   LIG    1       20.217 -32.173  14.571  0.00  0.00    +0.030 C 
ATOM     43  C   LIG    1       19.771 -33.450  13.757  0.00  0.00    +0.011 C 
ATOM     44  C   LIG    1       22.528 -30.725  14.307  0.00  0.00    +0.124 C 
ATOM     45  C   LIG    1       22.677 -29.860  13.060  0.00  0.00    +0.036 C 
ATOM     46  C   LIG    1       20.814 -33.687  12.622  0.00  0.00    +0.036 C 
ATOM     47  C   LIG    1       23.260 -30.631  11.840  0.00  0.00    +0.003 C 
ATOM     48  C   LIG    1       24.778 -30.364  11.538  0.00  0.00    -0.026 C 
ATOM     49  C   LIG    1       25.682 -30.507  12.786  0.00  0.00    +0.012 C 
ATOM     50  C   LIG    1       24.939 -28.897  11.023  0.00  0.00    +0.009 C 
ATOM     51  C   LIG    1       26.270 -28.634  10.308  0.00  0.00    +0.032 C 
BRANCH  42  52
ATOM     52  C   LIG    1       19.251 -31.007  14.448  0.00  0.00    -0.022 C 
ATOM     53  C   LIG    1       17.874 -31.195  13.923  0.00  0.00    +0.264 C 
ATOM     54  O   LIG    1       17.310 -29.874  13.888  0.00  0.00    -0.457 OA
ATOM     55  C   LIG    1       18.223 -29.000  14.345  0.00  0.00    +0.332 C 
ATOM     56  O   LIG    1       18.054 -27.780  14.477  0.00  0.00    -0.246 OA
ATOM     57  C   LIG    1       19.459 -29.704  14.644  0.00  0.00    +0.094 C 
ENDBRANCH  42  52
BRANCH  39  58
ATOM     58  O   LIG    1       20.645 -31.469  11.938  0.00  0.00    -0.388 OA
ATOM     59  H   LIG    1       20.646 -30.621  12.417  0.00  0.00    +0.210 HD
ENDBRANCH  39  58
BRANCH  44  60
ATOM     60  O   LIG    1       22.065 -29.980  15.421  0.00  0.00    -0.391 OA
ATOM     61  H   LIG    1       22.501 -29.110  15.394  0.00  0.00    +0.210 HD
ENDBRANCH  44  60
ENDBRANCH  32  33
ENDBRANCH   4  32
TORSDOF 13
ENDMDL
