MODEL 1
REMARK VINA RESULT:      -7.4      0.000      0.000
REMARK  Name = *****
REMARK                            x       y       z     vdW  Elec       q    Type
REMARK                         _______ _______ _______ _____ _____    ______ ____
ROOT
ATOM      1  C   LIG    1       25.383 -22.754   7.456  0.00  0.00    +0.080 A 
ATOM      2  C   LIG    1       24.005 -22.769   7.171  0.00  0.00    +0.134 A 
ATOM      3  C   LIG    1       23.468 -23.867   6.481  0.00  0.00    +0.070 A 
ATOM      4  C   LIG    1       24.261 -24.944   6.075  0.00  0.00    +0.047 A 
ATOM      5  C   LIG    1       25.609 -24.958   6.456  0.00  0.00    +0.062 A 
ATOM      6 CL   LIG    1       26.621 -26.301   6.053  0.00  0.00    -0.082 Cl
ATOM      7  C   LIG    1       26.169 -23.872   7.126  0.00  0.00    +0.038 A 
ENDROOT
BRANCH   1  10
ATOM      8  N   LIG    1       26.983 -20.903   7.367  0.00  0.00    -0.310 N 
ATOM      9  H   LIG    1       27.088 -21.131   6.385  0.00  0.00    +0.149 HD
ATOM     10  C   LIG    1       26.090 -21.631   8.119  0.00  0.00    +0.248 C 
ATOM     11  O   LIG    1       25.899 -21.432   9.327  0.00  0.00    -0.270 OA
BRANCH   8  12
ATOM     12  C   LIG    1       27.845 -19.896   7.960  0.00  0.00    +0.120 C 
BRANCH  12  13
ATOM     13  C   LIG    1       29.355 -20.169   7.724  0.00  0.00    +0.103 C 
BRANCH  13  14
ATOM     14  N   LIG    1       30.272 -19.676   8.786  0.00  0.00    -0.301 NA
BRANCH  14  16
ATOM     15  C   LIG    1       31.201 -22.029   9.128  0.00  0.00    +0.020 C 
ATOM     16  C   LIG    1       31.464 -20.534   8.953  0.00  0.00    +0.081 C 
ENDBRANCH  14  16
BRANCH  14  17
ATOM     17  C   LIG    1       30.673 -18.282   8.483  0.00  0.00    +0.081 C 
ATOM     18  C   LIG    1       30.272 -17.245   9.523  0.00  0.00    +0.020 C 
ENDBRANCH  14  17
ENDBRANCH  13  14
ENDBRANCH  12  13
ENDBRANCH   8  12
ENDBRANCH   1  10
BRANCH   4  19
ATOM     19  N   LIG    1       23.626 -26.063   5.508  0.00  0.00    -0.357 N 
ATOM     20  H   LIG    1       24.264 -26.775   5.167  0.00  0.00    +0.142 HD
ATOM     21  H   LIG    1       22.899 -26.445   6.112  0.00  0.00    +0.142 HD
ENDBRANCH   4  19
BRANCH   2  22
ATOM     22  O   LIG    1       23.217 -21.717   7.571  0.00  0.00    -0.494 OA
ATOM     23  C   LIG    1       23.109 -20.655   6.617  0.00  0.00    +0.277 C 
ENDBRANCH   2  22
TORSDOF 8
ENDMDL
MODEL 2
REMARK VINA RESULT:      -7.4      2.710      3.583
REMARK  Name = *****
REMARK                            x       y       z     vdW  Elec       q    Type
REMARK                         _______ _______ _______ _____ _____    ______ ____
ROOT
ATOM      1  C   LIG    1       26.482 -21.231   6.640  0.00  0.00    +0.080 A 
ATOM      2  C   LIG    1       25.730 -22.414   6.519  0.00  0.00    +0.134 A 
ATOM      3  C   LIG    1       24.763 -22.502   5.505  0.00  0.00    +0.070 A 
ATOM      4  C   LIG    1       24.531 -21.451   4.613  0.00  0.00    +0.047 A 
ATOM      5  C   LIG    1       25.357 -20.322   4.686  0.00  0.00    +0.062 A 
ATOM      6 CL   LIG    1       25.171 -19.024   3.559  0.00  0.00    -0.082 Cl
ATOM      7  C   LIG    1       26.312 -20.205   5.694  0.00  0.00    +0.038 A 
ENDROOT
BRANCH   1  10
ATOM      8  N   LIG    1       28.726 -21.560   7.559  0.00  0.00    -0.310 N 
ATOM      9  H   LIG    1       28.918 -22.092   6.718  0.00  0.00    +0.149 HD
ATOM     10  C   LIG    1       27.487 -20.981   7.702  0.00  0.00    +0.248 C 
ATOM     11  O   LIG    1       27.156 -20.320   8.696  0.00  0.00    -0.270 OA
BRANCH   8  12
ATOM     12  C   LIG    1       29.721 -21.516   8.617  0.00  0.00    +0.120 C 
BRANCH  12  13
ATOM     13  C   LIG    1       30.888 -20.538   8.317  0.00  0.00    +0.103 C 
BRANCH  13  14
ATOM     14  N   LIG    1       30.491 -19.150   7.962  0.00  0.00    -0.301 NA
BRANCH  14  16
ATOM     15  C   LIG    1       30.359 -17.191   9.594  0.00  0.00    +0.020 C 
ATOM     16  C   LIG    1       31.217 -18.130   8.747  0.00  0.00    +0.081 C 
ENDBRANCH  14  16
BRANCH  14  17
ATOM     17  C   LIG    1       30.697 -18.933   6.510  0.00  0.00    +0.081 C 
ATOM     18  C   LIG    1       29.472 -18.467   5.738  0.00  0.00    +0.020 C 
ENDBRANCH  14  17
ENDBRANCH  13  14
ENDBRANCH  12  13
ENDBRANCH   8  12
ENDBRANCH   1  10
BRANCH   4  19
ATOM     19  N   LIG    1       23.640 -21.666   3.546  0.00  0.00    -0.357 N 
ATOM     20  H   LIG    1       23.536 -22.640   3.282  0.00  0.00    +0.142 HD
ATOM     21  H   LIG    1       22.745 -21.200   3.688  0.00  0.00    +0.142 HD
ENDBRANCH   4  19
BRANCH   2  22
ATOM     22  O   LIG    1       25.955 -23.454   7.387  0.00  0.00    -0.494 OA
ATOM     23  C   LIG    1       25.826 -24.756   6.806  0.00  0.00    +0.277 C 
ENDBRANCH   2  22
TORSDOF 8
ENDMDL
MODEL 3
REMARK VINA RESULT:      -7.3      0.401      1.630
REMARK  Name = *****
REMARK                            x       y       z     vdW  Elec       q    Type
REMARK                         _______ _______ _______ _____ _____    ______ ____
ROOT
ATOM      1  C   LIG    1       25.492 -22.634   7.437  0.00  0.00    +0.080 A 
ATOM      2  C   LIG    1       24.103 -22.616   7.206  0.00  0.00    +0.134 A 
ATOM      3  C   LIG    1       23.508 -23.717   6.573  0.00  0.00    +0.070 A 
ATOM      4  C   LIG    1       24.253 -24.830   6.170  0.00  0.00    +0.047 A 
ATOM      5  C   LIG    1       25.614 -24.873   6.499  0.00  0.00    +0.062 A 
ATOM      6 CL   LIG    1       26.569 -26.257   6.099  0.00  0.00    -0.082 Cl
ATOM      7  C   LIG    1       26.231 -23.784   7.113  0.00  0.00    +0.038 A 
ENDROOT
BRANCH   1  10
ATOM      8  N   LIG    1       27.239 -20.928   7.274  0.00  0.00    -0.310 N 
ATOM      9  H   LIG    1       27.371 -21.251   6.322  0.00  0.00    +0.149 HD
ATOM     10  C   LIG    1       26.257 -21.513   8.037  0.00  0.00    +0.248 C 
ATOM     11  O   LIG    1       26.026 -21.191   9.212  0.00  0.00    -0.270 OA
BRANCH   8  12
ATOM     12  C   LIG    1       28.152 -19.941   7.822  0.00  0.00    +0.120 C 
BRANCH  12  13
ATOM     13  C   LIG    1       29.623 -20.150   7.370  0.00  0.00    +0.103 C 
BRANCH  13  14
ATOM     14  N   LIG    1       30.629 -19.270   8.021  0.00  0.00    -0.301 NA
BRANCH  14  16
ATOM     15  C   LIG    1       30.420 -17.757  10.067  0.00  0.00    +0.020 C 
ATOM     16  C   LIG    1       30.025 -18.063   8.622  0.00  0.00    +0.081 C 
ENDBRANCH  14  16
BRANCH  14  17
ATOM     17  C   LIG    1       31.373 -20.044   9.043  0.00  0.00    +0.081 C 
ATOM     18  C   LIG    1       31.152 -21.549   9.013  0.00  0.00    +0.020 C 
ENDBRANCH  14  17
ENDBRANCH  13  14
ENDBRANCH  12  13
ENDBRANCH   8  12
ENDBRANCH   1  10
BRANCH   4  19
ATOM     19  N   LIG    1       23.564 -25.946   5.663  0.00  0.00    -0.357 N 
ATOM     20  H   LIG    1       23.348 -25.887   4.674  0.00  0.00    +0.142 HD
ATOM     21  H   LIG    1       24.012 -26.826   5.915  0.00  0.00    +0.142 HD
ENDBRANCH   4  19
BRANCH   2  22
ATOM     22  O   LIG    1       23.363 -21.529   7.604  0.00  0.00    -0.494 OA
ATOM     23  C   LIG    1       23.091 -20.581   6.567  0.00  0.00    +0.277 C 
ENDBRANCH   2  22
TORSDOF 8
ENDMDL
MODEL 4
REMARK VINA RESULT:      -7.3      2.352      3.000
REMARK  Name = *****
REMARK                            x       y       z     vdW  Elec       q    Type
REMARK                         _______ _______ _______ _____ _____    ______ ____
ROOT
ATOM      1  C   LIG    1       25.689 -21.682   6.978  0.00  0.00    +0.080 A 
ATOM      2  C   LIG    1       25.187 -22.996   7.018  0.00  0.00    +0.134 A 
ATOM      3  C   LIG    1       23.844 -23.218   6.676  0.00  0.00    +0.070 A 
ATOM      4  C   LIG    1       22.997 -22.174   6.293  0.00  0.00    +0.047 A 
ATOM      5  C   LIG    1       23.541 -20.890   6.162  0.00  0.00    +0.062 A 
ATOM      6 CL   LIG    1       22.562 -19.574   5.614  0.00  0.00    -0.082 Cl
ATOM      7  C   LIG    1       24.867 -20.642   6.512  0.00  0.00    +0.038 A 
ENDROOT
BRANCH   1  10
ATOM      8  N   LIG    1       27.873 -20.727   6.419  0.00  0.00    -0.310 N 
ATOM      9  H   LIG    1       27.483 -20.548   5.501  0.00  0.00    +0.149 HD
ATOM     10  C   LIG    1       27.067 -21.298   7.376  0.00  0.00    +0.248 C 
ATOM     11  O   LIG    1       27.454 -21.561   8.523  0.00  0.00    -0.270 OA
BRANCH   8  12
ATOM     12  C   LIG    1       29.282 -20.469   6.657  0.00  0.00    +0.120 C 
BRANCH  12  13
ATOM     13  C   LIG    1       29.532 -19.265   7.605  0.00  0.00    +0.103 C 
BRANCH  13  14
ATOM     14  N   LIG    1       30.281 -19.571   8.852  0.00  0.00    -0.301 NA
BRANCH  14  16
ATOM     15  C   LIG    1       30.926 -21.971   9.436  0.00  0.00    +0.020 C 
ATOM     16  C   LIG    1       31.242 -20.680   8.682  0.00  0.00    +0.081 C 
ENDBRANCH  14  16
BRANCH  14  17
ATOM     17  C   LIG    1       30.975 -18.349   9.324  0.00  0.00    +0.081 C 
ATOM     18  C   LIG    1       30.354 -17.671  10.537  0.00  0.00    +0.020 C 
ENDBRANCH  14  17
ENDBRANCH  13  14
ENDBRANCH  12  13
ENDBRANCH   8  12
ENDBRANCH   1  10
BRANCH   4  19
ATOM     19  N   LIG    1       21.706 -22.496   5.839  0.00  0.00    -0.357 N 
ATOM     20  H   LIG    1       21.684 -22.945   4.929  0.00  0.00    +0.142 HD
ATOM     21  H   LIG    1       21.163 -23.002   6.538  0.00  0.00    +0.142 HD
ENDBRANCH   4  19
BRANCH   2  22
ATOM     22  O   LIG    1       26.014 -24.029   7.388  0.00  0.00    -0.494 OA
ATOM     23  C   LIG    1       25.820 -25.241   6.652  0.00  0.00    +0.277 C 
ENDBRANCH   2  22
TORSDOF 8
ENDMDL
MODEL 5
REMARK VINA RESULT:      -7.1      3.361      7.146
REMARK  Name = *****
REMARK                            x       y       z     vdW  Elec       q    Type
REMARK                         _______ _______ _______ _____ _____    ______ ____
ROOT
ATOM      1  C   LIG    1       28.859 -19.751   6.472  0.00  0.00    +0.080 A 
ATOM      2  C   LIG    1       28.714 -20.974   7.153  0.00  0.00    +0.134 A 
ATOM      3  C   LIG    1       29.690 -21.348   8.089  0.00  0.00    +0.070 A 
ATOM      4  C   LIG    1       30.796 -20.540   8.366  0.00  0.00    +0.047 A 
ATOM      5  C   LIG    1       30.871 -19.283   7.753  0.00  0.00    +0.062 A 
ATOM      6 CL   LIG    1       32.173 -18.205   8.116  0.00  0.00    -0.082 Cl
ATOM      7  C   LIG    1       29.923 -18.896   6.807  0.00  0.00    +0.038 A 
ENDROOT
BRANCH   1  10
ATOM      8  N   LIG    1       26.813 -20.012   5.153  0.00  0.00    -0.310 N 
ATOM      9  H   LIG    1       26.633 -20.832   5.721  0.00  0.00    +0.149 HD
ATOM     10  C   LIG    1       27.939 -19.266   5.414  0.00  0.00    +0.248 C 
ATOM     11  O   LIG    1       28.247 -18.253   4.770  0.00  0.00    -0.270 OA
BRANCH   8  12
ATOM     12  C   LIG    1       25.939 -19.717   4.032  0.00  0.00    +0.120 C 
BRANCH  12  13
ATOM     13  C   LIG    1       24.595 -20.492   4.084  0.00  0.00    +0.103 C 
BRANCH  13  14
ATOM     14  N   LIG    1       23.918 -20.520   5.408  0.00  0.00    -0.301 NA
BRANCH  14  16
ATOM     15  C   LIG    1       22.419 -18.698   4.434  0.00  0.00    +0.020 C 
ATOM     16  C   LIG    1       22.583 -19.888   5.379  0.00  0.00    +0.081 C 
ENDBRANCH  14  16
BRANCH  14  17
ATOM     17  C   LIG    1       23.821 -21.921   5.882  0.00  0.00    +0.081 C 
ATOM     18  C   LIG    1       23.192 -22.103   7.256  0.00  0.00    +0.020 C 
ENDBRANCH  14  17
ENDBRANCH  13  14
ENDBRANCH  12  13
ENDBRANCH   8  12
ENDBRANCH   1  10
BRANCH   4  19
ATOM     19  N   LIG    1       31.657 -20.922   9.410  0.00  0.00    -0.357 N 
ATOM     20  H   LIG    1       31.297 -20.727  10.338  0.00  0.00    +0.142 HD
ATOM     21  H   LIG    1       31.986 -21.882   9.311  0.00  0.00    +0.142 HD
ENDBRANCH   4  19
BRANCH   2  22
ATOM     22  O   LIG    1       27.626 -21.772   6.891  0.00  0.00    -0.494 OA
ATOM     23  C   LIG    1       26.795 -22.038   8.026  0.00  0.00    +0.277 C 
ENDBRANCH   2  22
TORSDOF 8
ENDMDL
MODEL 6
REMARK VINA RESULT:      -7.0      2.726      3.433
REMARK  Name = *****
REMARK                            x       y       z     vdW  Elec       q    Type
REMARK                         _______ _______ _______ _____ _____    ______ ____
ROOT
ATOM      1  C   LIG    1       26.460 -21.397   6.632  0.00  0.00    +0.080 A 
ATOM      2  C   LIG    1       25.664 -22.548   6.479  0.00  0.00    +0.134 A 
ATOM      3  C   LIG    1       24.690 -22.567   5.469  0.00  0.00    +0.070 A 
ATOM      4  C   LIG    1       24.493 -21.481   4.611  0.00  0.00    +0.047 A 
ATOM      5  C   LIG    1       25.362 -20.387   4.714  0.00  0.00    +0.062 A 
ATOM      6 CL   LIG    1       25.220 -19.049   3.628  0.00  0.00    -0.082 Cl
ATOM      7  C   LIG    1       26.325 -20.337   5.719  0.00  0.00    +0.038 A 
ENDROOT
BRANCH   1  10
ATOM      8  N   LIG    1       28.797 -21.427   7.361  0.00  0.00    -0.310 N 
ATOM      9  H   LIG    1       29.023 -21.647   6.399  0.00  0.00    +0.149 HD
ATOM     10  C   LIG    1       27.479 -21.218   7.696  0.00  0.00    +0.248 C 
ATOM     11  O   LIG    1       27.103 -20.952   8.846  0.00  0.00    -0.270 OA
BRANCH   8  12
ATOM     12  C   LIG    1       29.850 -21.441   8.362  0.00  0.00    +0.120 C 
BRANCH  12  13
ATOM     13  C   LIG    1       30.322 -20.020   8.772  0.00  0.00    +0.103 C 
BRANCH  13  14
ATOM     14  N   LIG    1       31.437 -19.455   7.968  0.00  0.00    -0.301 NA
BRANCH  14  16
ATOM     15  C   LIG    1       29.752 -18.416   6.356  0.00  0.00    +0.020 C 
ATOM     16  C   LIG    1       31.052 -19.192   6.565  0.00  0.00    +0.081 C 
ENDBRANCH  14  16
BRANCH  14  17
ATOM     17  C   LIG    1       31.931 -18.215   8.612  0.00  0.00    +0.081 C 
ATOM     18  C   LIG    1       31.195 -17.797   9.877  0.00  0.00    +0.020 C 
ENDBRANCH  14  17
ENDBRANCH  13  14
ENDBRANCH  12  13
ENDBRANCH   8  12
ENDBRANCH   1  10
BRANCH   4  19
ATOM     19  N   LIG    1       23.591 -21.630   3.543  0.00  0.00    -0.357 N 
ATOM     20  H   LIG    1       22.689 -22.012   3.810  0.00  0.00    +0.142 HD
ATOM     21  H   LIG    1       23.506 -20.781   2.985  0.00  0.00    +0.142 HD
ENDBRANCH   4  19
BRANCH   2  22
ATOM     22  O   LIG    1       25.855 -23.622   7.314  0.00  0.00    -0.494 OA
ATOM     23  C   LIG    1       25.829 -24.896   6.661  0.00  0.00    +0.277 C 
ENDBRANCH   2  22
TORSDOF 8
ENDMDL
MODEL 7
REMARK VINA RESULT:      -7.0      2.484      3.509
REMARK  Name = *****
REMARK                            x       y       z     vdW  Elec       q    Type
REMARK                         _______ _______ _______ _____ _____    ______ ____
ROOT
ATOM      1  C   LIG    1       25.715 -21.341   6.668  0.00  0.00    +0.080 A 
ATOM      2  C   LIG    1       25.265 -22.664   6.834  0.00  0.00    +0.134 A 
ATOM      3  C   LIG    1       23.919 -22.960   6.566  0.00  0.00    +0.070 A 
ATOM      4  C   LIG    1       23.019 -21.980   6.136  0.00  0.00    +0.047 A 
ATOM      5  C   LIG    1       23.509 -20.693   5.880  0.00  0.00    +0.062 A 
ATOM      6 CL   LIG    1       22.461 -19.461   5.270  0.00  0.00    -0.082 Cl
ATOM      7  C   LIG    1       24.837 -20.372   6.154  0.00  0.00    +0.038 A 
ENDROOT
BRANCH   1  10
ATOM      8  N   LIG    1       27.880 -20.474   5.925  0.00  0.00    -0.310 N 
ATOM      9  H   LIG    1       27.480 -20.461   4.994  0.00  0.00    +0.149 HD
ATOM     10  C   LIG    1       27.092 -20.879   6.976  0.00  0.00    +0.248 C 
ATOM     11  O   LIG    1       27.494 -20.936   8.146  0.00  0.00    -0.270 OA
BRANCH   8  12
ATOM     12  C   LIG    1       29.289 -20.163   6.098  0.00  0.00    +0.120 C 
BRANCH  12  13
ATOM     13  C   LIG    1       29.547 -18.675   6.457  0.00  0.00    +0.103 C 
BRANCH  13  14
ATOM     14  N   LIG    1       30.530 -18.437   7.547  0.00  0.00    -0.301 NA
BRANCH  14  16
ATOM     15  C   LIG    1       30.418 -16.984   9.643  0.00  0.00    +0.020 C 
ATOM     16  C   LIG    1       29.883 -18.176   8.850  0.00  0.00    +0.081 C 
ENDBRANCH  14  16
BRANCH  14  17
ATOM     17  C   LIG    1       31.448 -19.597   7.646  0.00  0.00    +0.081 C 
ATOM     18  C   LIG    1       31.253 -20.484   8.867  0.00  0.00    +0.020 C 
ENDBRANCH  14  17
ENDBRANCH  13  14
ENDBRANCH  12  13
ENDBRANCH   8  12
ENDBRANCH   1  10
BRANCH   4  19
ATOM     19  N   LIG    1       21.724 -22.382   5.763  0.00  0.00    -0.357 N 
ATOM     20  H   LIG    1       21.242 -21.724   5.160  0.00  0.00    +0.142 HD
ATOM     21  H   LIG    1       21.703 -23.334   5.399  0.00  0.00    +0.142 HD
ENDBRANCH   4  19
BRANCH   2  22
ATOM     22  O   LIG    1       26.144 -23.634   7.250  0.00  0.00    -0.494 OA
ATOM     23  C   LIG    1       25.945 -24.918   6.648  0.00  0.00    +0.277 C 
ENDBRANCH   2  22
TORSDOF 8
ENDMDL
MODEL 8
REMARK VINA RESULT:      -6.8      2.742      3.188
REMARK  Name = *****
REMARK                            x       y       z     vdW  Elec       q    Type
REMARK                         _______ _______ _______ _____ _____    ______ ____
ROOT
ATOM      1  C   LIG    1       25.966 -20.800   6.003  0.00  0.00    +0.080 A 
ATOM      2  C   LIG    1       25.459 -20.084   4.902  0.00  0.00    +0.134 A 
ATOM      3  C   LIG    1       24.137 -20.316   4.494  0.00  0.00    +0.070 A 
ATOM      4  C   LIG    1       23.311 -21.233   5.152  0.00  0.00    +0.047 A 
ATOM      5  C   LIG    1       23.800 -21.860   6.305  0.00  0.00    +0.062 A 
ATOM      6 CL   LIG    1       22.798 -22.942   7.207  0.00  0.00    -0.082 Cl
ATOM      7  C   LIG    1       25.115 -21.658   6.720  0.00  0.00    +0.038 A 
ENDROOT
BRANCH   1  10
ATOM      8  N   LIG    1       28.110 -19.622   6.086  0.00  0.00    -0.310 N 
ATOM      9  H   LIG    1       27.670 -18.921   5.502  0.00  0.00    +0.149 HD
ATOM     10  C   LIG    1       27.361 -20.699   6.499  0.00  0.00    +0.248 C 
ATOM     11  O   LIG    1       27.812 -21.610   7.207  0.00  0.00    -0.270 OA
BRANCH   8  12
ATOM     12  C   LIG    1       29.529 -19.518   6.377  0.00  0.00    +0.120 C 
BRANCH  12  13
ATOM     13  C   LIG    1       29.833 -18.675   7.645  0.00  0.00    +0.103 C 
BRANCH  13  14
ATOM     14  N   LIG    1       30.340 -19.436   8.818  0.00  0.00    -0.301 NA
BRANCH  14  16
ATOM     15  C   LIG    1       30.923 -21.885   9.236  0.00  0.00    +0.020 C 
ATOM     16  C   LIG    1       31.152 -20.607   8.430  0.00  0.00    +0.081 C 
ENDBRANCH  14  16
BRANCH  14  17
ATOM     17  C   LIG    1       31.119 -18.529   9.694  0.00  0.00    +0.081 C 
ATOM     18  C   LIG    1       30.305 -17.487  10.447  0.00  0.00    +0.020 C 
ENDBRANCH  14  17
ENDBRANCH  13  14
ENDBRANCH  12  13
ENDBRANCH   8  12
ENDBRANCH   1  10
BRANCH   4  19
ATOM     19  N   LIG    1       21.961 -21.311   4.765  0.00  0.00    -0.357 N 
ATOM     20  H   LIG    1       21.817 -21.686   3.833  0.00  0.00    +0.142 HD
ATOM     21  H   LIG    1       21.382 -21.772   5.467  0.00  0.00    +0.142 HD
ENDBRANCH   4  19
BRANCH   2  22
ATOM     22  O   LIG    1       26.262 -19.177   4.254  0.00  0.00    -0.494 OA
ATOM     23  C   LIG    1       25.565 -18.276   3.387  0.00  0.00    +0.277 C 
ENDBRANCH   2  22
TORSDOF 8
ENDMDL
MODEL 9
REMARK VINA RESULT:      -6.6      2.730      6.992
REMARK  Name = *****
REMARK                            x       y       z     vdW  Elec       q    Type
REMARK                         _______ _______ _______ _____ _____    ______ ____
ROOT
ATOM      1  C   LIG    1       27.898 -20.391   6.735  0.00  0.00    +0.080 A 
ATOM      2  C   LIG    1       28.561 -19.376   6.019  0.00  0.00    +0.134 A 
ATOM      3  C   LIG    1       29.887 -19.065   6.357  0.00  0.00    +0.070 A 
ATOM      4  C   LIG    1       30.566 -19.736   7.378  0.00  0.00    +0.047 A 
ATOM      5  C   LIG    1       29.924 -20.809   8.010  0.00  0.00    +0.062 A 
ATOM      6 CL   LIG    1       30.742 -21.729   9.224  0.00  0.00    -0.082 Cl
ATOM      7  C   LIG    1       28.603 -21.126   7.703  0.00  0.00    +0.038 A 
ENDROOT
BRANCH   1  10
ATOM      8  N   LIG    1       26.079 -21.063   5.242  0.00  0.00    -0.310 N 
ATOM      9  H   LIG    1       26.771 -21.047   4.502  0.00  0.00    +0.149 HD
ATOM     10  C   LIG    1       26.480 -20.775   6.525  0.00  0.00    +0.248 C 
ATOM     11  O   LIG    1       25.707 -20.762   7.493  0.00  0.00    -0.270 OA
BRANCH   8  12
ATOM     12  C   LIG    1       24.683 -21.286   4.906  0.00  0.00    +0.120 C 
BRANCH  12  13
ATOM     13  C   LIG    1       24.345 -22.782   4.661  0.00  0.00    +0.103 C 
BRANCH  13  14
ATOM     14  N   LIG    1       24.904 -23.739   5.652  0.00  0.00    -0.301 NA
BRANCH  14  16
ATOM     15  C   LIG    1       22.628 -23.314   6.727  0.00  0.00    +0.020 C 
ATOM     16  C   LIG    1       24.029 -23.916   6.829  0.00  0.00    +0.081 C 
ENDBRANCH  14  16
BRANCH  14  17
ATOM     17  C   LIG    1       25.157 -25.041   4.991  0.00  0.00    +0.081 C 
ATOM     18  C   LIG    1       24.392 -26.225   5.565  0.00  0.00    +0.020 C 
ENDBRANCH  14  17
ENDBRANCH  13  14
ENDBRANCH  12  13
ENDBRANCH   8  12
ENDBRANCH   1  10
BRANCH   4  19
ATOM     19  N   LIG    1       31.932 -19.458   7.566  0.00  0.00    -0.357 N 
ATOM     20  H   LIG    1       32.310 -18.774   6.919  0.00  0.00    +0.142 HD
ATOM     21  H   LIG    1       32.154 -19.243   8.538  0.00  0.00    +0.142 HD
ENDBRANCH   4  19
BRANCH   2  22
ATOM     22  O   LIG    1       27.903 -18.715   5.010  0.00  0.00    -0.494 OA
ATOM     23  C   LIG    1       28.459 -17.441   4.671  0.00  0.00    +0.277 C 
ENDBRANCH   2  22
TORSDOF 8
ENDMDL
