MODEL 1
REMARK VINA RESULT:      -7.8      0.000      0.000
REMARK  Name = *****
REMARK                            x       y       z     vdW  Elec       q    Type
REMARK                         _______ _______ _______ _____ _____    ______ ____
ROOT
ATOM      1  C   LIG    1       20.721 -28.154  13.877  0.00  0.00    +0.138 A 
ATOM      2  C   LIG    1       20.837 -29.160  12.885  0.00  0.00    -0.001 A 
ATOM      3  C   LIG    1       19.759 -30.196  12.656  0.00  0.00    +0.048 C 
ATOM      4  C   LIG    1       22.061 -29.273  12.190  0.00  0.00    +0.001 A 
ATOM      5  C   LIG    1       22.249 -30.363  11.166  0.00  0.00    +0.043 C 
ATOM      6  C   LIG    1       23.524 -30.191  10.372  0.00  0.00    +0.052 C 
ATOM      7  C   LIG    1       24.682 -29.762  11.271  0.00  0.00    +0.108 C 
ATOM      8  O   LIG    1       24.368 -28.521  11.920  0.00  0.00    -0.485 OA
ATOM      9  C   LIG    1       25.038 -30.815  12.338  0.00  0.00    +0.056 C 
ATOM     10  C   LIG    1       23.124 -28.402  12.491  0.00  0.00    +0.128 A 
ATOM     11  C   LIG    1       22.984 -27.359  13.426  0.00  0.00    -0.002 A 
ATOM     12  C   LIG    1       24.144 -26.415  13.653  0.00  0.00    +0.048 C 
ATOM     13  C   LIG    1       21.795 -27.277  14.188  0.00  0.00    -0.001 A 
ATOM     14  C   LIG    1       21.709 -26.265  15.307  0.00  0.00    +0.048 C 
ENDROOT
BRANCH   1  15
ATOM     15  O   LIG    1       19.586 -28.159  14.737  0.00  0.00    -0.425 OA
BRANCH  15  17
ATOM     16  C   LIG    1       17.238 -28.304  14.555  0.00  0.00    +0.136 C 
ATOM     17  C   LIG    1       18.436 -27.405  14.452  0.00  0.00    +0.309 C 
ATOM     18  O   LIG    1       18.403 -26.257  14.071  0.00  0.00    -0.251 OA
ENDBRANCH  15  17
ENDBRANCH   1  15
BRANCH   7  19
ATOM     19  C   LIG    1       25.951 -29.510  10.417  0.00  0.00    +0.048 C 
BRANCH  19  20
ATOM     20  C   LIG    1       25.705 -29.620   8.908  0.00  0.00    +0.004 C 
BRANCH  20  21
ATOM     21  C   LIG    1       25.867 -28.273   8.203  0.00  0.00    +0.003 C 
BRANCH  21  22
ATOM     22  C   LIG    1       25.028 -28.144   6.913  0.00  0.00    -0.014 C 
ATOM     23  C   LIG    1       24.271 -29.444   6.612  0.00  0.00    +0.007 C 
BRANCH  22  24
ATOM     24  C   LIG    1       25.845 -27.736   5.672  0.00  0.00    +0.003 C 
BRANCH  24  25
ATOM     25  C   LIG    1       25.355 -26.448   5.008  0.00  0.00    +0.000 C 
BRANCH  25  26
ATOM     26  C   LIG    1       24.219 -25.815   5.820  0.00  0.00    +0.003 C 
BRANCH  26  27
ATOM     27  C   LIG    1       24.421 -24.325   6.171  0.00  0.00    -0.014 C 
ATOM     28  C   LIG    1       25.631 -24.126   7.090  0.00  0.00    +0.007 C 
BRANCH  27  29
ATOM     29  C   LIG    1       23.135 -23.703   6.755  0.00  0.00    +0.003 C 
BRANCH  29  30
ATOM     30  C   LIG    1       23.346 -22.276   7.265  0.00  0.00    +0.000 C 
BRANCH  30  31
ATOM     31  C   LIG    1       23.019 -21.220   6.207  0.00  0.00    +0.003 C 
BRANCH  31  32
ATOM     32  C   LIG    1       24.273 -20.453   5.741  0.00  0.00    -0.017 C 
ATOM     33  C   LIG    1       24.720 -20.930   4.358  0.00  0.00    +0.007 C 
ATOM     34  C   LIG    1       25.432 -20.587   6.732  0.00  0.00    +0.007 C 
ENDBRANCH  31  32
ENDBRANCH  30  31
ENDBRANCH  29  30
ENDBRANCH  27  29
ENDBRANCH  26  27
ENDBRANCH  25  26
ENDBRANCH  24  25
ENDBRANCH  22  24
ENDBRANCH  21  22
ENDBRANCH  20  21
ENDBRANCH  19  20
ENDBRANCH   7  19
TORSDOF 14
ENDMDL
MODEL 2
REMARK VINA RESULT:      -7.4      4.895      7.829
REMARK  Name = *****
REMARK                            x       y       z     vdW  Elec       q    Type
REMARK                         _______ _______ _______ _____ _____    ______ ____
ROOT
ATOM      1  C   LIG    1       25.907 -31.956   6.851  0.00  0.00    +0.138 A 
ATOM      2  C   LIG    1       25.410 -31.157   5.790  0.00  0.00    -0.001 A 
ATOM      3  C   LIG    1       25.194 -31.708   4.398  0.00  0.00    +0.048 C 
ATOM      4  C   LIG    1       25.246 -29.773   6.018  0.00  0.00    +0.001 A 
ATOM      5  C   LIG    1       24.773 -28.877   4.903  0.00  0.00    +0.043 C 
ATOM      6  C   LIG    1       24.444 -27.483   5.387  0.00  0.00    +0.052 C 
ATOM      7  C   LIG    1       25.479 -26.988   6.394  0.00  0.00    +0.108 C 
ATOM      8  O   LIG    1       25.530 -27.873   7.523  0.00  0.00    -0.485 OA
ATOM      9  C   LIG    1       26.891 -26.858   5.791  0.00  0.00    +0.056 C 
ATOM     10  C   LIG    1       25.575 -29.222   7.269  0.00  0.00    +0.128 A 
ATOM     11  C   LIG    1       26.003 -30.027   8.342  0.00  0.00    -0.002 A 
ATOM     12  C   LIG    1       26.275 -29.380   9.683  0.00  0.00    +0.048 C 
ATOM     13  C   LIG    1       26.248 -31.402   8.113  0.00  0.00    -0.001 A 
ATOM     14  C   LIG    1       26.865 -32.230   9.216  0.00  0.00    +0.048 C 
ENDROOT
BRANCH   1  15
ATOM     15  O   LIG    1       26.286 -33.302   6.583  0.00  0.00    -0.425 OA
BRANCH  15  17
ATOM     16  C   LIG    1       28.633 -33.541   6.640  0.00  0.00    +0.136 C 
ATOM     17  C   LIG    1       27.399 -33.615   5.787  0.00  0.00    +0.309 C 
ATOM     18  O   LIG    1       27.402 -33.799   4.591  0.00  0.00    -0.251 OA
ENDBRANCH  15  17
ENDBRANCH   1  15
BRANCH   7  19
ATOM     19  C   LIG    1       25.069 -25.596   6.936  0.00  0.00    +0.048 C 
BRANCH  19  20
ATOM     20  C   LIG    1       25.715 -24.429   6.181  0.00  0.00    +0.004 C 
BRANCH  20  21
ATOM     21  C   LIG    1       24.672 -23.531   5.516  0.00  0.00    +0.003 C 
BRANCH  21  22
ATOM     22  C   LIG    1       23.653 -22.926   6.506  0.00  0.00    -0.014 C 
ATOM     23  C   LIG    1       22.489 -23.892   6.764  0.00  0.00    +0.007 C 
BRANCH  22  24
ATOM     24  C   LIG    1       23.089 -21.560   6.069  0.00  0.00    +0.003 C 
BRANCH  24  25
ATOM     25  C   LIG    1       23.719 -20.372   6.797  0.00  0.00    +0.000 C 
BRANCH  25  26
ATOM     26  C   LIG    1       24.887 -20.830   7.678  0.00  0.00    +0.003 C 
BRANCH  26  27
ATOM     27  C   LIG    1       26.287 -20.443   7.156  0.00  0.00    -0.014 C 
ATOM     28  C   LIG    1       26.293 -20.285   5.631  0.00  0.00    +0.007 C 
BRANCH  27  29
ATOM     29  C   LIG    1       27.367 -21.432   7.645  0.00  0.00    +0.003 C 
BRANCH  29  30
ATOM     30  C   LIG    1       28.790 -20.927   7.398  0.00  0.00    +0.000 C 
BRANCH  30  31
ATOM     31  C   LIG    1       29.053 -19.572   8.057  0.00  0.00    +0.003 C 
BRANCH  31  32
ATOM     32  C   LIG    1       30.004 -18.691   7.221  0.00  0.00    -0.017 C 
ATOM     33  C   LIG    1       29.483 -18.536   5.790  0.00  0.00    +0.007 C 
ATOM     34  C   LIG    1       31.429 -19.248   7.192  0.00  0.00    +0.007 C 
ENDBRANCH  31  32
ENDBRANCH  30  31
ENDBRANCH  29  30
ENDBRANCH  27  29
ENDBRANCH  26  27
ENDBRANCH  25  26
ENDBRANCH  24  25
ENDBRANCH  22  24
ENDBRANCH  21  22
ENDBRANCH  20  21
ENDBRANCH  19  20
ENDBRANCH   7  19
TORSDOF 14
ENDMDL
MODEL 3
REMARK VINA RESULT:      -7.4      4.793      8.513
REMARK  Name = *****
REMARK                            x       y       z     vdW  Elec       q    Type
REMARK                         _______ _______ _______ _____ _____    ______ ____
ROOT
ATOM      1  C   LIG    1       25.856 -31.737   7.043  0.00  0.00    +0.138 A 
ATOM      2  C   LIG    1       25.410 -31.028   5.899  0.00  0.00    -0.001 A 
ATOM      3  C   LIG    1       25.317 -31.674   4.534  0.00  0.00    +0.048 C 
ATOM      4  C   LIG    1       25.179 -29.640   6.023  0.00  0.00    +0.001 A 
ATOM      5  C   LIG    1       24.756 -28.836   4.820  0.00  0.00    +0.043 C 
ATOM      6  C   LIG    1       24.342 -27.429   5.187  0.00  0.00    +0.052 C 
ATOM      7  C   LIG    1       25.281 -26.830   6.232  0.00  0.00    +0.108 C 
ATOM      8  O   LIG    1       25.281 -27.639   7.417  0.00  0.00    -0.485 OA
ATOM      9  C   LIG    1       26.728 -26.679   5.723  0.00  0.00    +0.056 C 
ATOM     10  C   LIG    1       25.394 -28.999   7.256  0.00  0.00    +0.128 A 
ATOM     11  C   LIG    1       25.770 -29.716   8.407  0.00  0.00    -0.002 A 
ATOM     12  C   LIG    1       25.919 -28.975   9.718  0.00  0.00    +0.048 C 
ATOM     13  C   LIG    1       26.082 -31.091   8.287  0.00  0.00    -0.001 A 
ATOM     14  C   LIG    1       26.645 -31.822   9.483  0.00  0.00    +0.048 C 
ENDROOT
BRANCH   1  15
ATOM     15  O   LIG    1       26.303 -33.081   6.892  0.00  0.00    -0.425 OA
BRANCH  15  17
ATOM     16  C   LIG    1       27.783 -33.776   5.190  0.00  0.00    +0.136 C 
ATOM     17  C   LIG    1       27.648 -33.390   6.635  0.00  0.00    +0.309 C 
ATOM     18  O   LIG    1       28.541 -33.457   7.449  0.00  0.00    -0.251 OA
ENDBRANCH  15  17
ENDBRANCH   1  15
BRANCH   7  19
ATOM     19  C   LIG    1       24.781 -25.424   6.650  0.00  0.00    +0.048 C 
BRANCH  19  20
ATOM     20  C   LIG    1       25.912 -24.436   6.953  0.00  0.00    +0.004 C 
BRANCH  20  21
ATOM     21  C   LIG    1       25.573 -23.019   6.490  0.00  0.00    +0.003 C 
BRANCH  21  22
ATOM     22  C   LIG    1       26.373 -21.920   7.223  0.00  0.00    -0.014 C 
ATOM     23  C   LIG    1       25.821 -21.682   8.635  0.00  0.00    +0.007 C 
BRANCH  22  24
ATOM     24  C   LIG    1       26.429 -20.577   6.469  0.00  0.00    +0.003 C 
BRANCH  24  25
ATOM     25  C   LIG    1       27.849 -20.129   6.115  0.00  0.00    +0.000 C 
BRANCH  25  26
ATOM     26  C   LIG    1       28.888 -20.998   6.831  0.00  0.00    +0.003 C 
BRANCH  26  27
ATOM     27  C   LIG    1       30.109 -20.231   7.384  0.00  0.00    -0.014 C 
ATOM     28  C   LIG    1       30.715 -20.943   8.599  0.00  0.00    +0.007 C 
BRANCH  27  29
ATOM     29  C   LIG    1       29.762 -18.757   7.684  0.00  0.00    +0.003 C 
BRANCH  29  30
ATOM     30  C   LIG    1       30.385 -18.254   8.988  0.00  0.00    +0.000 C 
BRANCH  30  31
ATOM     31  C   LIG    1       31.758 -17.613   8.771  0.00  0.00    +0.003 C 
BRANCH  31  32
ATOM     32  C   LIG    1       32.367 -17.083  10.085  0.00  0.00    -0.017 C 
ATOM     33  C   LIG    1       31.369 -17.210  11.237  0.00  0.00    +0.007 C 
ATOM     34  C   LIG    1       32.829 -15.629   9.960  0.00  0.00    +0.007 C 
ENDBRANCH  31  32
ENDBRANCH  30  31
ENDBRANCH  29  30
ENDBRANCH  27  29
ENDBRANCH  26  27
ENDBRANCH  25  26
ENDBRANCH  24  25
ENDBRANCH  22  24
ENDBRANCH  21  22
ENDBRANCH  20  21
ENDBRANCH  19  20
ENDBRANCH   7  19
TORSDOF 14
ENDMDL
MODEL 4
REMARK VINA RESULT:      -7.4      2.148      3.258
REMARK  Name = *****
REMARK                            x       y       z     vdW  Elec       q    Type
REMARK                         _______ _______ _______ _____ _____    ______ ____
ROOT
ATOM      1  C   LIG    1       24.437 -28.246  12.844  0.00  0.00    +0.138 A 
ATOM      2  C   LIG    1       23.377 -29.113  12.478  0.00  0.00    -0.001 A 
ATOM      3  C   LIG    1       22.131 -29.266  13.324  0.00  0.00    +0.048 C 
ATOM      4  C   LIG    1       23.560 -29.957  11.361  0.00  0.00    +0.001 A 
ATOM      5  C   LIG    1       22.482 -30.934  10.969  0.00  0.00    +0.043 C 
ATOM      6  C   LIG    1       22.755 -31.586   9.633  0.00  0.00    +0.052 C 
ATOM      7  C   LIG    1       24.230 -31.958   9.491  0.00  0.00    +0.108 C 
ATOM      8  O   LIG    1       25.048 -30.785   9.612  0.00  0.00    -0.485 OA
ATOM      9  C   LIG    1       24.688 -33.005  10.525  0.00  0.00    +0.056 C 
ATOM     10  C   LIG    1       24.771 -29.924  10.646  0.00  0.00    +0.128 A 
ATOM     11  C   LIG    1       25.796 -29.014  10.968  0.00  0.00    -0.002 A 
ATOM     12  C   LIG    1       27.046 -28.984  10.116  0.00  0.00    +0.048 C 
ATOM     13  C   LIG    1       25.664 -28.216  12.129  0.00  0.00    -0.001 A 
ATOM     14  C   LIG    1       26.831 -27.363  12.568  0.00  0.00    +0.048 C 
ENDROOT
BRANCH   1  15
ATOM     15  O   LIG    1       24.364 -27.550  14.084  0.00  0.00    -0.425 OA
BRANCH  15  17
ATOM     16  C   LIG    1       22.652 -26.232  15.034  0.00  0.00    +0.136 C 
ATOM     17  C   LIG    1       23.879 -26.234  14.167  0.00  0.00    +0.309 C 
ATOM     18  O   LIG    1       24.292 -25.273  13.560  0.00  0.00    -0.251 OA
ENDBRANCH  15  17
ENDBRANCH   1  15
BRANCH   7  19
ATOM     19  C   LIG    1       24.495 -32.543   8.080  0.00  0.00    +0.048 C 
BRANCH  19  20
ATOM     20  C   LIG    1       25.074 -31.524   7.093  0.00  0.00    +0.004 C 
BRANCH  20  21
ATOM     21  C   LIG    1       23.981 -30.832   6.278  0.00  0.00    +0.003 C 
BRANCH  21  22
ATOM     22  C   LIG    1       24.348 -29.396   5.844  0.00  0.00    -0.014 C 
ATOM     23  C   LIG    1       25.548 -29.396   4.888  0.00  0.00    +0.007 C 
BRANCH  22  24
ATOM     24  C   LIG    1       24.636 -28.440   7.017  0.00  0.00    +0.003 C 
BRANCH  24  25
ATOM     25  C   LIG    1       25.256 -27.108   6.590  0.00  0.00    +0.000 C 
BRANCH  25  26
ATOM     26  C   LIG    1       24.184 -26.162   6.037  0.00  0.00    +0.003 C 
BRANCH  26  27
ATOM     27  C   LIG    1       24.501 -24.659   6.191  0.00  0.00    -0.014 C 
ATOM     28  C   LIG    1       25.769 -24.437   7.024  0.00  0.00    +0.007 C 
BRANCH  27  29
ATOM     29  C   LIG    1       23.291 -23.881   6.750  0.00  0.00    +0.003 C 
BRANCH  29  30
ATOM     30  C   LIG    1       23.312 -22.399   6.371  0.00  0.00    +0.000 C 
BRANCH  30  31
ATOM     31  C   LIG    1       23.575 -21.490   7.573  0.00  0.00    +0.003 C 
BRANCH  31  32
ATOM     32  C   LIG    1       24.863 -20.658   7.405  0.00  0.00    -0.017 C 
ATOM     33  C   LIG    1       25.500 -20.913   6.038  0.00  0.00    +0.007 C 
ATOM     34  C   LIG    1       25.883 -20.946   8.510  0.00  0.00    +0.007 C 
ENDBRANCH  31  32
ENDBRANCH  30  31
ENDBRANCH  29  30
ENDBRANCH  27  29
ENDBRANCH  26  27
ENDBRANCH  25  26
ENDBRANCH  24  25
ENDBRANCH  22  24
ENDBRANCH  21  22
ENDBRANCH  20  21
ENDBRANCH  19  20
ENDBRANCH   7  19
TORSDOF 14
ENDMDL
MODEL 5
REMARK VINA RESULT:      -7.2      4.038      6.332
REMARK  Name = *****
REMARK                            x       y       z     vdW  Elec       q    Type
REMARK                         _______ _______ _______ _____ _____    ______ ____
ROOT
ATOM      1  C   LIG    1       24.825 -32.176   8.791  0.00  0.00    +0.138 A 
ATOM      2  C   LIG    1       25.146 -30.881   9.270  0.00  0.00    -0.001 A 
ATOM      3  C   LIG    1       25.047 -30.515  10.735  0.00  0.00    +0.048 C 
ATOM      4  C   LIG    1       25.434 -29.872   8.325  0.00  0.00    +0.001 A 
ATOM      5  C   LIG    1       25.727 -28.468   8.786  0.00  0.00    +0.043 C 
ATOM      6  C   LIG    1       26.228 -27.587   7.664  0.00  0.00    +0.052 C 
ATOM      7  C   LIG    1       25.446 -27.834   6.376  0.00  0.00    +0.108 C 
ATOM      8  O   LIG    1       25.570 -29.208   5.980  0.00  0.00    -0.485 OA
ATOM      9  C   LIG    1       23.952 -27.477   6.501  0.00  0.00    +0.056 C 
ATOM     10  C   LIG    1       25.395 -30.165   6.950  0.00  0.00    +0.128 A 
ATOM     11  C   LIG    1       25.144 -31.468   6.478  0.00  0.00    -0.002 A 
ATOM     12  C   LIG    1       25.184 -31.729   4.988  0.00  0.00    +0.048 C 
ATOM     13  C   LIG    1       24.777 -32.473   7.403  0.00  0.00    -0.001 A 
ATOM     14  C   LIG    1       24.345 -33.825   6.884  0.00  0.00    +0.048 C 
ENDROOT
BRANCH   1  15
ATOM     15  O   LIG    1       24.322 -33.146   9.704  0.00  0.00    -0.425 OA
BRANCH  15  17
ATOM     16  C   LIG    1       23.211 -33.466  11.762  0.00  0.00    +0.136 C 
ATOM     17  C   LIG    1       23.081 -32.988  10.343  0.00  0.00    +0.309 C 
ATOM     18  O   LIG    1       22.043 -32.641   9.828  0.00  0.00    -0.251 OA
ENDBRANCH  15  17
ENDBRANCH   1  15
BRANCH   7  19
ATOM     19  C   LIG    1       26.038 -26.983   5.224  0.00  0.00    +0.048 C 
BRANCH  19  20
ATOM     20  C   LIG    1       26.445 -25.569   5.655  0.00  0.00    +0.004 C 
BRANCH  20  21
ATOM     21  C   LIG    1       25.295 -24.573   5.510  0.00  0.00    +0.003 C 
BRANCH  21  22
ATOM     22  C   LIG    1       24.761 -24.043   6.859  0.00  0.00    -0.014 C 
ATOM     23  C   LIG    1       23.444 -23.278   6.672  0.00  0.00    +0.007 C 
BRANCH  22  24
ATOM     24  C   LIG    1       25.760 -23.152   7.621  0.00  0.00    +0.003 C 
BRANCH  24  25
ATOM     25  C   LIG    1       25.198 -21.779   7.997  0.00  0.00    +0.000 C 
BRANCH  25  26
ATOM     26  C   LIG    1       26.208 -20.671   7.678  0.00  0.00    +0.003 C 
BRANCH  26  27
ATOM     27  C   LIG    1       26.988 -20.862   6.358  0.00  0.00    -0.014 C 
ATOM     28  C   LIG    1       28.493 -20.656   6.563  0.00  0.00    +0.007 C 
BRANCH  27  29
ATOM     29  C   LIG    1       26.423 -19.968   5.234  0.00  0.00    +0.003 C 
BRANCH  29  30
ATOM     30  C   LIG    1       25.218 -20.592   4.528  0.00  0.00    +0.000 C 
BRANCH  30  31
ATOM     31  C   LIG    1       24.261 -19.541   3.962  0.00  0.00    +0.003 C 
BRANCH  31  32
ATOM     32  C   LIG    1       22.837 -19.678   4.537  0.00  0.00    -0.017 C 
ATOM     33  C   LIG    1       22.010 -18.424   4.244  0.00  0.00    +0.007 C 
ATOM     34  C   LIG    1       22.847 -19.947   6.043  0.00  0.00    +0.007 C 
ENDBRANCH  31  32
ENDBRANCH  30  31
ENDBRANCH  29  30
ENDBRANCH  27  29
ENDBRANCH  26  27
ENDBRANCH  25  26
ENDBRANCH  24  25
ENDBRANCH  22  24
ENDBRANCH  21  22
ENDBRANCH  20  21
ENDBRANCH  19  20
ENDBRANCH   7  19
TORSDOF 14
ENDMDL
MODEL 6
REMARK VINA RESULT:      -7.1      2.549      4.257
REMARK  Name = *****
REMARK                            x       y       z     vdW  Elec       q    Type
REMARK                         _______ _______ _______ _____ _____    ______ ____
ROOT
ATOM      1  C   LIG    1       25.184 -28.172  12.484  0.00  0.00    +0.138 A 
ATOM      2  C   LIG    1       23.844 -28.635  12.456  0.00  0.00    -0.001 A 
ATOM      3  C   LIG    1       22.830 -28.234  13.504  0.00  0.00    +0.048 C 
ATOM      4  C   LIG    1       23.495 -29.609  11.495  0.00  0.00    +0.001 A 
ATOM      5  C   LIG    1       22.096 -30.170  11.464  0.00  0.00    +0.043 C 
ATOM      6  C   LIG    1       21.846 -31.022  10.241  0.00  0.00    +0.052 C 
ATOM      7  C   LIG    1       23.048 -31.914   9.932  0.00  0.00    +0.108 C 
ATOM      8  O   LIG    1       24.214 -31.107   9.707  0.00  0.00    -0.485 OA
ATOM      9  C   LIG    1       23.345 -32.931  11.051  0.00  0.00    +0.056 C 
ATOM     10  C   LIG    1       24.465 -30.094  10.600  0.00  0.00    +0.128 A 
ATOM     11  C   LIG    1       25.777 -29.583  10.583  0.00  0.00    -0.002 A 
ATOM     12  C   LIG    1       26.753 -30.100   9.549  0.00  0.00    +0.048 C 
ATOM     13  C   LIG    1       26.168 -28.665  11.586  0.00  0.00    -0.001 A 
ATOM     14  C   LIG    1       27.617 -28.245  11.671  0.00  0.00    +0.048 C 
ENDROOT
BRANCH   1  15
ATOM     15  O   LIG    1       25.612 -27.361  13.573  0.00  0.00    -0.425 OA
BRANCH  15  17
ATOM     16  C   LIG    1       24.578 -25.382  14.336  0.00  0.00    +0.136 C 
ATOM     17  C   LIG    1       25.666 -25.961  13.478  0.00  0.00    +0.309 C 
ATOM     18  O   LIG    1       26.380 -25.314  12.746  0.00  0.00    -0.251 OA
ENDBRANCH  15  17
ENDBRANCH   1  15
BRANCH   7  19
ATOM     19  C   LIG    1       22.796 -32.709   8.627  0.00  0.00    +0.048 C 
BRANCH  19  20
ATOM     20  C   LIG    1       24.014 -32.763   7.698  0.00  0.00    +0.004 C 
BRANCH  20  21
ATOM     21  C   LIG    1       23.769 -32.010   6.390  0.00  0.00    +0.003 C 
BRANCH  21  22
ATOM     22  C   LIG    1       25.066 -31.539   5.695  0.00  0.00    -0.014 C 
ATOM     23  C   LIG    1       26.309 -32.074   6.418  0.00  0.00    +0.007 C 
BRANCH  22  24
ATOM     24  C   LIG    1       25.182 -30.008   5.556  0.00  0.00    +0.003 C 
BRANCH  24  25
ATOM     25  C   LIG    1       24.513 -29.234   6.694  0.00  0.00    +0.000 C 
BRANCH  25  26
ATOM     26  C   LIG    1       25.087 -27.816   6.799  0.00  0.00    +0.003 C 
BRANCH  26  27
ATOM     27  C   LIG    1       24.640 -26.849   5.681  0.00  0.00    -0.014 C 
ATOM     28  C   LIG    1       25.794 -26.531   4.723  0.00  0.00    +0.007 C 
BRANCH  27  29
ATOM     29  C   LIG    1       23.995 -25.573   6.262  0.00  0.00    +0.003 C 
BRANCH  29  30
ATOM     30  C   LIG    1       25.025 -24.509   6.646  0.00  0.00    +0.000 C 
BRANCH  30  31
ATOM     31  C   LIG    1       24.389 -23.139   6.890  0.00  0.00    +0.003 C 
BRANCH  31  32
ATOM     32  C   LIG    1       25.307 -22.207   7.707  0.00  0.00    -0.017 C 
ATOM     33  C   LIG    1       24.847 -20.752   7.589  0.00  0.00    +0.007 C 
ATOM     34  C   LIG    1       26.772 -22.321   7.280  0.00  0.00    +0.007 C 
ENDBRANCH  31  32
ENDBRANCH  30  31
ENDBRANCH  29  30
ENDBRANCH  27  29
ENDBRANCH  26  27
ENDBRANCH  25  26
ENDBRANCH  24  25
ENDBRANCH  22  24
ENDBRANCH  21  22
ENDBRANCH  20  21
ENDBRANCH  19  20
ENDBRANCH   7  19
TORSDOF 14
ENDMDL
MODEL 7
REMARK VINA RESULT:      -7.0      4.904     10.915
REMARK  Name = *****
REMARK                            x       y       z     vdW  Elec       q    Type
REMARK                         _______ _______ _______ _____ _____    ______ ____
ROOT
ATOM      1  C   LIG    1       30.611 -19.271   7.371  0.00  0.00    +0.138 A 
ATOM      2  C   LIG    1       29.448 -19.183   6.565  0.00  0.00    -0.001 A 
ATOM      3  C   LIG    1       29.191 -18.011   5.644  0.00  0.00    +0.048 C 
ATOM      4  C   LIG    1       28.441 -20.158   6.738  0.00  0.00    +0.001 A 
ATOM      5  C   LIG    1       27.164 -20.073   5.942  0.00  0.00    +0.043 C 
ATOM      6  C   LIG    1       26.310 -21.311   6.092  0.00  0.00    +0.052 C 
ATOM      7  C   LIG    1       26.292 -21.798   7.540  0.00  0.00    +0.108 C 
ATOM      8  O   LIG    1       27.626 -22.098   7.975  0.00  0.00    -0.485 OA
ATOM      9  C   LIG    1       25.660 -20.781   8.509  0.00  0.00    +0.056 C 
ATOM     10  C   LIG    1       28.607 -21.179   7.691  0.00  0.00    +0.128 A 
ATOM     11  C   LIG    1       29.791 -21.305   8.442  0.00  0.00    -0.002 A 
ATOM     12  C   LIG    1       29.932 -22.466   9.402  0.00  0.00    +0.048 C 
ATOM     13  C   LIG    1       30.778 -20.296   8.340  0.00  0.00    -0.001 A 
ATOM     14  C   LIG    1       31.971 -20.341   9.266  0.00  0.00    +0.048 C 
ENDROOT
BRANCH   1  15
ATOM     15  O   LIG    1       31.535 -18.187   7.372  0.00  0.00    -0.425 OA
BRANCH  15  17
ATOM     16  C   LIG    1       30.309 -17.198   9.130  0.00  0.00    +0.136 C 
ATOM     17  C   LIG    1       31.652 -17.314   8.466  0.00  0.00    +0.309 C 
ATOM     18  O   LIG    1       32.626 -16.665   8.769  0.00  0.00    -0.251 OA
ENDBRANCH  15  17
ENDBRANCH   1  15
BRANCH   7  19
ATOM     19  C   LIG    1       25.481 -23.115   7.645  0.00  0.00    +0.048 C 
BRANCH  19  20
ATOM     20  C   LIG    1       24.139 -23.069   6.907  0.00  0.00    +0.004 C 
BRANCH  20  21
ATOM     21  C   LIG    1       23.626 -24.469   6.566  0.00  0.00    +0.003 C 
BRANCH  21  22
ATOM     22  C   LIG    1       24.730 -25.430   6.075  0.00  0.00    -0.014 C 
ATOM     23  C   LIG    1       25.095 -25.153   4.611  0.00  0.00    +0.007 C 
BRANCH  22  24
ATOM     24  C   LIG    1       24.378 -26.922   6.235  0.00  0.00    +0.003 C 
BRANCH  24  25
ATOM     25  C   LIG    1       25.355 -27.865   5.527  0.00  0.00    +0.000 C 
BRANCH  25  26
ATOM     26  C   LIG    1       24.709 -29.234   5.283  0.00  0.00    +0.003 C 
BRANCH  26  27
ATOM     27  C   LIG    1       25.222 -30.367   6.198  0.00  0.00    -0.014 C 
ATOM     28  C   LIG    1       25.825 -31.516   5.380  0.00  0.00    +0.007 C 
BRANCH  27  29
ATOM     29  C   LIG    1       24.123 -30.854   7.165  0.00  0.00    +0.003 C 
BRANCH  29  30
ATOM     30  C   LIG    1       24.339 -30.371   8.601  0.00  0.00    +0.000 C 
BRANCH  30  31
ATOM     31  C   LIG    1       25.732 -30.717   9.131  0.00  0.00    +0.003 C 
BRANCH  31  32
ATOM     32  C   LIG    1       26.365 -29.549   9.914  0.00  0.00    -0.017 C 
ATOM     33  C   LIG    1       25.544 -29.224  11.163  0.00  0.00    +0.007 C 
ATOM     34  C   LIG    1       26.513 -28.292   9.054  0.00  0.00    +0.007 C 
ENDBRANCH  31  32
ENDBRANCH  30  31
ENDBRANCH  29  30
ENDBRANCH  27  29
ENDBRANCH  26  27
ENDBRANCH  25  26
ENDBRANCH  24  25
ENDBRANCH  22  24
ENDBRANCH  21  22
ENDBRANCH  20  21
ENDBRANCH  19  20
ENDBRANCH   7  19
TORSDOF 14
ENDMDL
MODEL 8
REMARK VINA RESULT:      -6.9      1.502      3.232
REMARK  Name = *****
REMARK                            x       y       z     vdW  Elec       q    Type
REMARK                         _______ _______ _______ _____ _____    ______ ____
ROOT
ATOM      1  C   LIG    1       21.844 -28.974  12.396  0.00  0.00    +0.138 A 
ATOM      2  C   LIG    1       23.155 -28.522  12.689  0.00  0.00    -0.001 A 
ATOM      3  C   LIG    1       23.419 -27.365  13.627  0.00  0.00    +0.048 C 
ATOM      4  C   LIG    1       24.232 -29.087  11.970  0.00  0.00    +0.001 A 
ATOM      5  C   LIG    1       25.637 -28.599  12.210  0.00  0.00    +0.043 C 
ATOM      6  C   LIG    1       26.670 -29.464  11.525  0.00  0.00    +0.052 C 
ATOM      7  C   LIG    1       26.215 -29.865  10.123  0.00  0.00    +0.108 C 
ATOM      8  O   LIG    1       24.977 -30.587  10.195  0.00  0.00    -0.485 OA
ATOM      9  C   LIG    1       26.043 -28.659   9.179  0.00  0.00    +0.056 C 
ATOM     10  C   LIG    1       23.987 -30.069  10.994  0.00  0.00    +0.128 A 
ATOM     11  C   LIG    1       22.692 -30.567  10.753  0.00  0.00    -0.002 A 
ATOM     12  C   LIG    1       22.507 -31.672   9.736  0.00  0.00    +0.048 C 
ATOM     13  C   LIG    1       21.592 -29.960  11.405  0.00  0.00    -0.001 A 
ATOM     14  C   LIG    1       20.192 -30.379  11.023  0.00  0.00    +0.048 C 
ENDROOT
BRANCH   1  15
ATOM     15  O   LIG    1       20.732 -28.273  12.943  0.00  0.00    -0.425 OA
BRANCH  15  17
ATOM     16  C   LIG    1       19.129 -27.620  14.548  0.00  0.00    +0.136 C 
ATOM     17  C   LIG    1       20.121 -28.673  14.142  0.00  0.00    +0.309 C 
ATOM     18  O   LIG    1       20.410 -29.638  14.813  0.00  0.00    -0.251 OA
ENDBRANCH  15  17
ENDBRANCH   1  15
BRANCH   7  19
ATOM     19  C   LIG    1       27.254 -30.820   9.482  0.00  0.00    +0.048 C 
BRANCH  19  20
ATOM     20  C   LIG    1       26.629 -32.069   8.850  0.00  0.00    +0.004 C 
BRANCH  20  21
ATOM     21  C   LIG    1       26.556 -31.963   7.327  0.00  0.00    +0.003 C 
BRANCH  21  22
ATOM     22  C   LIG    1       25.254 -31.311   6.813  0.00  0.00    -0.014 C 
ATOM     23  C   LIG    1       24.397 -32.319   6.037  0.00  0.00    +0.007 C 
BRANCH  22  24
ATOM     24  C   LIG    1       25.482 -30.063   5.937  0.00  0.00    +0.003 C 
BRANCH  24  25
ATOM     25  C   LIG    1       24.416 -28.980   6.118  0.00  0.00    +0.000 C 
BRANCH  25  26
ATOM     26  C   LIG    1       24.445 -27.987   4.951  0.00  0.00    +0.003 C 
BRANCH  26  27
ATOM     27  C   LIG    1       24.969 -26.579   5.307  0.00  0.00    -0.014 C 
ATOM     28  C   LIG    1       26.416 -26.631   5.812  0.00  0.00    +0.007 C 
BRANCH  27  29
ATOM     29  C   LIG    1       24.030 -25.861   6.299  0.00  0.00    +0.003 C 
BRANCH  29  30
ATOM     30  C   LIG    1       24.496 -24.443   6.637  0.00  0.00    +0.000 C 
BRANCH  30  31
ATOM     31  C   LIG    1       23.337 -23.447   6.707  0.00  0.00    +0.003 C 
BRANCH  31  32
ATOM     32  C   LIG    1       23.725 -22.152   7.449  0.00  0.00    -0.017 C 
ATOM     33  C   LIG    1       23.271 -20.919   6.665  0.00  0.00    +0.007 C 
ATOM     34  C   LIG    1       25.230 -22.068   7.714  0.00  0.00    +0.007 C 
ENDBRANCH  31  32
ENDBRANCH  30  31
ENDBRANCH  29  30
ENDBRANCH  27  29
ENDBRANCH  26  27
ENDBRANCH  25  26
ENDBRANCH  24  25
ENDBRANCH  22  24
ENDBRANCH  21  22
ENDBRANCH  20  21
ENDBRANCH  19  20
ENDBRANCH   7  19
TORSDOF 14
ENDMDL
MODEL 9
REMARK VINA RESULT:      -6.9      4.953     10.984
REMARK  Name = *****
REMARK                            x       y       z     vdW  Elec       q    Type
REMARK                         _______ _______ _______ _____ _____    ______ ____
ROOT
ATOM      1  C   LIG    1       30.697 -19.282   7.427  0.00  0.00    +0.138 A 
ATOM      2  C   LIG    1       29.544 -19.176   6.608  0.00  0.00    -0.001 A 
ATOM      3  C   LIG    1       29.318 -18.002   5.681  0.00  0.00    +0.048 C 
ATOM      4  C   LIG    1       28.519 -20.133   6.773  0.00  0.00    +0.001 A 
ATOM      5  C   LIG    1       27.252 -20.028   5.963  0.00  0.00    +0.043 C 
ATOM      6  C   LIG    1       26.375 -21.250   6.108  0.00  0.00    +0.052 C 
ATOM      7  C   LIG    1       26.333 -21.733   7.556  0.00  0.00    +0.108 C 
ATOM      8  O   LIG    1       27.657 -22.054   8.007  0.00  0.00    -0.485 OA
ATOM      9  C   LIG    1       25.709 -20.701   8.516  0.00  0.00    +0.056 C 
ATOM     10  C   LIG    1       28.657 -21.153   7.731  0.00  0.00    +0.128 A 
ATOM     11  C   LIG    1       29.831 -21.298   8.494  0.00  0.00    -0.002 A 
ATOM     12  C   LIG    1       29.941 -22.458   9.459  0.00  0.00    +0.048 C 
ATOM     13  C   LIG    1       30.836 -20.307   8.400  0.00  0.00    -0.001 A 
ATOM     14  C   LIG    1       32.018 -20.371   9.339  0.00  0.00    +0.048 C 
ENDROOT
BRANCH   1  15
ATOM     15  O   LIG    1       31.640 -18.215   7.435  0.00  0.00    -0.425 OA
BRANCH  15  17
ATOM     16  C   LIG    1       30.341 -17.293   9.176  0.00  0.00    +0.136 C 
ATOM     17  C   LIG    1       31.657 -17.249   8.454  0.00  0.00    +0.309 C 
ATOM     18  O   LIG    1       32.526 -16.432   8.658  0.00  0.00    -0.251 OA
ENDBRANCH  15  17
ENDBRANCH   1  15
BRANCH   7  19
ATOM     19  C   LIG    1       25.498 -23.035   7.657  0.00  0.00    +0.048 C 
BRANCH  19  20
ATOM     20  C   LIG    1       24.140 -22.947   6.954  0.00  0.00    +0.004 C 
BRANCH  20  21
ATOM     21  C   LIG    1       23.617 -24.325   6.547  0.00  0.00    +0.003 C 
BRANCH  21  22
ATOM     22  C   LIG    1       24.730 -25.311   6.127  0.00  0.00    -0.014 C 
ATOM     23  C   LIG    1       25.074 -25.159   4.640  0.00  0.00    +0.007 C 
BRANCH  22  24
ATOM     24  C   LIG    1       24.404 -26.788   6.423  0.00  0.00    +0.003 C 
BRANCH  24  25
ATOM     25  C   LIG    1       25.575 -27.569   7.022  0.00  0.00    +0.000 C 
BRANCH  25  26
ATOM     26  C   LIG    1       25.147 -28.997   7.384  0.00  0.00    +0.003 C 
BRANCH  26  27
ATOM     27  C   LIG    1       25.687 -29.514   8.735  0.00  0.00    -0.014 C 
ATOM     28  C   LIG    1       24.552 -30.015   9.636  0.00  0.00    +0.007 C 
BRANCH  27  29
ATOM     29  C   LIG    1       26.565 -28.457   9.436  0.00  0.00    +0.003 C 
BRANCH  29  30
ATOM     30  C   LIG    1       26.935 -28.848  10.868  0.00  0.00    +0.000 C 
BRANCH  30  31
ATOM     31  C   LIG    1       26.870 -27.663  11.834  0.00  0.00    +0.003 C 
BRANCH  31  32
ATOM     32  C   LIG    1       26.072 -27.995  13.112  0.00  0.00    -0.017 C 
ATOM     33  C   LIG    1       26.051 -29.504  13.363  0.00  0.00    +0.007 C 
ATOM     34  C   LIG    1       24.639 -27.463  13.051  0.00  0.00    +0.007 C 
ENDBRANCH  31  32
ENDBRANCH  30  31
ENDBRANCH  29  30
ENDBRANCH  27  29
ENDBRANCH  26  27
ENDBRANCH  25  26
ENDBRANCH  24  25
ENDBRANCH  22  24
ENDBRANCH  21  22
ENDBRANCH  20  21
ENDBRANCH  19  20
ENDBRANCH   7  19
TORSDOF 14
ENDMDL
