MODEL 1
REMARK VINA RESULT:      -8.2      0.000      0.000
REMARK  Name = *****
REMARK                            x       y       z     vdW  Elec       q    Type
REMARK                         _______ _______ _______ _____ _____    ______ ____
ROOT
ATOM      1  C   LIG    1       25.087 -20.685   7.035  0.00  0.00    +0.253 C 
ATOM      2  C   LIG    1       24.774 -20.846   5.542  0.00  0.00    +0.195 C 
ATOM      3  C   LIG    1       23.263 -21.001   5.592  0.00  0.00    +0.178 C 
ATOM      4  C   LIG    1       23.053 -21.826   6.871  0.00  0.00    +0.178 C 
ATOM      5  O   LIG    1       24.170 -21.555   7.746  0.00  0.00    -0.346 OA
ENDROOT
BRANCH   1  10
ATOM      6  C   LIG    1       29.895 -20.334   7.345  0.00  0.00    +0.150 A 
ATOM      7  C   LIG    1       28.622 -20.844   7.648  0.00  0.00    +0.147 A 
ATOM      8  N   LIG    1       28.184 -21.756   8.584  0.00  0.00    -0.231 NA
ATOM      9  C   LIG    1       26.880 -21.820   8.405  0.00  0.00    +0.203 A 
ATOM     10  N   LIG    1       26.452 -20.971   7.419  0.00  0.00    -0.285 N 
ATOM     11  C   LIG    1       27.562 -20.349   6.908  0.00  0.00    +0.170 A 
ATOM     12  N   LIG    1       27.617 -19.441   5.921  0.00  0.00    -0.182 NA
ATOM     13  C   LIG    1       28.889 -19.040   5.702  0.00  0.00    +0.313 A 
ATOM     14  F   LIG    1       29.062 -18.150   4.712  0.00  0.00    -0.161 F 
ATOM     15  N   LIG    1       30.007 -19.418   6.360  0.00  0.00    -0.185 NA
BRANCH   6  16
ATOM     16  N   LIG    1       31.044 -20.707   8.033  0.00  0.00    -0.341 N 
ATOM     17  H   LIG    1       30.918 -21.541   8.598  0.00  0.00    +0.144 HD
ATOM     18  H   LIG    1       31.507 -19.918   8.464  0.00  0.00    +0.144 HD
ENDBRANCH   6  16
ENDBRANCH   1  10
BRANCH   2  19
ATOM     19  O   LIG    1       25.348 -22.031   4.982  0.00  0.00    -0.385 OA
ATOM     20  H   LIG    1       25.262 -22.738   5.646  0.00  0.00    +0.210 HD
ENDBRANCH   2  19
BRANCH   3  21
ATOM     21  O   LIG    1       22.677 -19.702   5.726  0.00  0.00    -0.386 OA
ATOM     22  H   LIG    1       22.194 -19.681   6.572  0.00  0.00    +0.210 HD
ENDBRANCH   3  21
BRANCH   4  23
ATOM     23  C   LIG    1       22.978 -23.336   6.622  0.00  0.00    +0.206 C 
BRANCH  23  24
ATOM     24  O   LIG    1       24.212 -23.950   6.959  0.00  0.00    -0.284 OA
BRANCH  24  25
ATOM     25  P   LIG    1       24.655 -25.198   6.059  0.00  0.00    +0.472 P 
ATOM     26  O   LIG    1       23.922 -26.473   6.255  0.00  0.00    -0.228 OA
BRANCH  25  27
ATOM     27  O   LIG    1       26.222 -25.352   6.328  0.00  0.00    -0.303 OA
ATOM     28  H   LIG    1       26.659 -25.697   5.526  0.00  0.00    +0.222 HD
ENDBRANCH  25  27
BRANCH  25  29
ATOM     29  O   LIG    1       24.682 -24.627   4.571  0.00  0.00    -0.303 OA
ATOM     30  H   LIG    1       24.380 -23.705   4.539  0.00  0.00    +0.222 HD
ENDBRANCH  25  29
ENDBRANCH  24  25
ENDBRANCH  23  24
ENDBRANCH   4  23
TORSDOF 9
ENDMDL
MODEL 2
REMARK VINA RESULT:      -7.9      5.808      8.027
REMARK  Name = *****
REMARK                            x       y       z     vdW  Elec       q    Type
REMARK                         _______ _______ _______ _____ _____    ______ ____
ROOT
ATOM      1  C   LIG    1       29.700 -20.065   8.011  0.00  0.00    +0.253 C 
ATOM      2  C   LIG    1       31.016 -19.517   7.447  0.00  0.00    +0.195 C 
ATOM      3  C   LIG    1       31.718 -19.109   8.731  0.00  0.00    +0.178 C 
ATOM      4  C   LIG    1       30.562 -18.571   9.589  0.00  0.00    +0.178 C 
ATOM      5  O   LIG    1       29.355 -19.230   9.145  0.00  0.00    -0.346 OA
ENDROOT
BRANCH   1  10
ATOM      6  C   LIG    1       25.263 -20.800   6.247  0.00  0.00    +0.150 A 
ATOM      7  C   LIG    1       26.604 -20.383   6.218  0.00  0.00    +0.147 A 
ATOM      8  N   LIG    1       27.348 -19.708   5.276  0.00  0.00    -0.231 NA
ATOM      9  C   LIG    1       28.544 -19.586   5.817  0.00  0.00    +0.203 A 
ATOM     10  N   LIG    1       28.598 -20.124   7.075  0.00  0.00    -0.285 N 
ATOM     11  C   LIG    1       27.364 -20.657   7.343  0.00  0.00    +0.170 A 
ATOM     12  N   LIG    1       26.963 -21.291   8.456  0.00  0.00    -0.182 NA
ATOM     13  C   LIG    1       25.668 -21.665   8.362  0.00  0.00    +0.313 A 
ATOM     14  F   LIG    1       25.171 -22.334   9.415  0.00  0.00    -0.161 F 
ATOM     15  N   LIG    1       24.809 -21.443   7.343  0.00  0.00    -0.185 NA
BRANCH   6  16
ATOM     16  N   LIG    1       24.372 -20.556   5.208  0.00  0.00    -0.341 N 
ATOM     17  H   LIG    1       23.792 -21.358   4.982  0.00  0.00    +0.144 HD
ATOM     18  H   LIG    1       24.805 -20.063   4.438  0.00  0.00    +0.144 HD
ENDBRANCH   6  16
ENDBRANCH   1  10
BRANCH   2  19
ATOM     19  O   LIG    1       30.826 -18.358   6.629  0.00  0.00    -0.385 OA
ATOM     20  H   LIG    1       31.235 -17.605   7.092  0.00  0.00    +0.210 HD
ENDBRANCH   2  19
BRANCH   3  21
ATOM     21  O   LIG    1       32.290 -20.278   9.327  0.00  0.00    -0.386 OA
ATOM     22  H   LIG    1       31.714 -21.033   9.109  0.00  0.00    +0.210 HD
ENDBRANCH   3  21
BRANCH   4  23
ATOM     23  C   LIG    1       30.367 -17.056   9.475  0.00  0.00    +0.206 C 
BRANCH  23  24
ATOM     24  O   LIG    1       30.253 -16.479  10.766  0.00  0.00    -0.284 OA
BRANCH  24  25
ATOM     25  P   LIG    1       31.597 -16.400  11.632  0.00  0.00    +0.472 P 
ATOM     26  O   LIG    1       32.870 -16.196  10.897  0.00  0.00    -0.228 OA
BRANCH  25  27
ATOM     27  O   LIG    1       31.602 -17.746  12.491  0.00  0.00    -0.303 OA
ATOM     28  H   LIG    1       31.161 -18.457  11.987  0.00  0.00    +0.222 HD
ENDBRANCH  25  27
BRANCH  25  29
ATOM     29  O   LIG    1       31.272 -15.340  12.777  0.00  0.00    -0.303 OA
ATOM     30  H   LIG    1       31.259 -14.434  12.429  0.00  0.00    +0.222 HD
ENDBRANCH  25  29
ENDBRANCH  24  25
ENDBRANCH  23  24
ENDBRANCH   4  23
TORSDOF 9
ENDMDL
MODEL 3
REMARK VINA RESULT:      -7.8      5.175      7.364
REMARK  Name = *****
REMARK                            x       y       z     vdW  Elec       q    Type
REMARK                         _______ _______ _______ _____ _____    ______ ____
ROOT
ATOM      1  C   LIG    1       27.902 -21.341   7.932  0.00  0.00    +0.253 C 
ATOM      2  C   LIG    1       29.015 -21.448   6.882  0.00  0.00    +0.195 C 
ATOM      3  C   LIG    1       30.179 -20.850   7.654  0.00  0.00    +0.178 C 
ATOM      4  C   LIG    1       29.507 -19.725   8.458  0.00  0.00    +0.178 C 
ATOM      5  O   LIG    1       28.125 -20.101   8.649  0.00  0.00    -0.346 OA
ENDROOT
BRANCH   1  10
ATOM      6  C   LIG    1       23.654 -23.100   6.445  0.00  0.00    +0.150 A 
ATOM      7  C   LIG    1       24.588 -22.103   6.774  0.00  0.00    +0.147 A 
ATOM      8  N   LIG    1       24.492 -20.732   6.861  0.00  0.00    -0.231 NA
ATOM      9  C   LIG    1       25.693 -20.334   7.230  0.00  0.00    +0.203 A 
ATOM     10  N   LIG    1       26.551 -21.386   7.414  0.00  0.00    -0.285 N 
ATOM     11  C   LIG    1       25.862 -22.531   7.107  0.00  0.00    +0.170 A 
ATOM     12  N   LIG    1       26.309 -23.797   7.139  0.00  0.00    -0.182 NA
ATOM     13  C   LIG    1       25.335 -24.664   6.784  0.00  0.00    +0.313 A 
ATOM     14  F   LIG    1       25.685 -25.960   6.755  0.00  0.00    -0.161 F 
ATOM     15  N   LIG    1       24.052 -24.390   6.461  0.00  0.00    -0.185 NA
BRANCH   6  16
ATOM     16  N   LIG    1       22.329 -22.822   6.132  0.00  0.00    -0.341 N 
ATOM     17  H   LIG    1       22.221 -22.333   5.249  0.00  0.00    +0.144 HD
ATOM     18  H   LIG    1       21.813 -22.468   6.926  0.00  0.00    +0.144 HD
ENDBRANCH   6  16
ENDBRANCH   1  10
BRANCH   2  19
ATOM     19  O   LIG    1       28.760 -20.647   5.725  0.00  0.00    -0.385 OA
ATOM     20  H   LIG    1       28.934 -21.200   4.943  0.00  0.00    +0.210 HD
ENDBRANCH   2  19
BRANCH   3  21
ATOM     21  O   LIG    1       30.707 -21.852   8.529  0.00  0.00    -0.386 OA
ATOM     22  H   LIG    1       31.595 -21.564   8.807  0.00  0.00    +0.210 HD
ENDBRANCH   3  21
BRANCH   4  23
ATOM     23  C   LIG    1       29.555 -18.362   7.763  0.00  0.00    +0.206 C 
BRANCH  23  24
ATOM     24  O   LIG    1       30.872 -17.836   7.806  0.00  0.00    -0.284 OA
BRANCH  24  25
ATOM     25  P   LIG    1       31.343 -17.208   9.202  0.00  0.00    +0.472 P 
ATOM     26  O   LIG    1       30.300 -16.585  10.054  0.00  0.00    -0.228 OA
BRANCH  25  27
ATOM     27  O   LIG    1       32.500 -16.179   8.811  0.00  0.00    -0.303 OA
ATOM     28  H   LIG    1       33.369 -16.561   9.039  0.00  0.00    +0.222 HD
ENDBRANCH  25  27
BRANCH  25  29
ATOM     29  O   LIG    1       32.211 -18.358   9.884  0.00  0.00    -0.303 OA
ATOM     30  H   LIG    1       32.666 -18.900   9.219  0.00  0.00    +0.222 HD
ENDBRANCH  25  29
ENDBRANCH  24  25
ENDBRANCH  23  24
ENDBRANCH   4  23
TORSDOF 9
ENDMDL
MODEL 4
REMARK VINA RESULT:      -7.4      2.434      4.142
REMARK  Name = *****
REMARK                            x       y       z     vdW  Elec       q    Type
REMARK                         _______ _______ _______ _____ _____    ______ ____
ROOT
ATOM      1  C   LIG    1       27.480 -21.623   6.825  0.00  0.00    +0.253 C 
ATOM      2  C   LIG    1       26.880 -22.158   8.131  0.00  0.00    +0.195 C 
ATOM      3  C   LIG    1       25.604 -22.796   7.607  0.00  0.00    +0.178 C 
ATOM      4  C   LIG    1       25.174 -21.823   6.497  0.00  0.00    +0.178 C 
ATOM      5  O   LIG    1       26.368 -21.169   6.013  0.00  0.00    -0.346 OA
ENDROOT
BRANCH   1  10
ATOM      6  C   LIG    1       31.484 -19.288   8.190  0.00  0.00    +0.150 A 
ATOM      7  C   LIG    1       30.266 -19.462   7.512  0.00  0.00    +0.147 A 
ATOM      8  N   LIG    1       29.602 -18.695   6.580  0.00  0.00    -0.231 NA
ATOM      9  C   LIG    1       28.513 -19.380   6.295  0.00  0.00    +0.203 A 
ATOM     10  N   LIG    1       28.457 -20.567   6.976  0.00  0.00    -0.285 N 
ATOM     11  C   LIG    1       29.568 -20.628   7.778  0.00  0.00    +0.170 A 
ATOM     12  N   LIG    1       29.921 -21.608   8.625  0.00  0.00    -0.182 NA
ATOM     13  C   LIG    1       31.093 -21.323   9.234  0.00  0.00    +0.313 A 
ATOM     14  F   LIG    1       31.526 -22.228  10.127  0.00  0.00    -0.161 F 
ATOM     15  N   LIG    1       31.886 -20.244   9.053  0.00  0.00    -0.185 NA
BRANCH   6  16
ATOM     16  N   LIG    1       32.311 -18.189   7.991  0.00  0.00    -0.341 N 
ATOM     17  H   LIG    1       33.256 -18.333   8.331  0.00  0.00    +0.144 HD
ATOM     18  H   LIG    1       31.857 -17.318   8.232  0.00  0.00    +0.144 HD
ENDBRANCH   6  16
ENDBRANCH   1  10
BRANCH   2  19
ATOM     19  O   LIG    1       26.539 -21.116   9.049  0.00  0.00    -0.385 OA
ATOM     20  H   LIG    1       25.627 -20.837   8.848  0.00  0.00    +0.210 HD
ENDBRANCH   2  19
BRANCH   3  21
ATOM     21  O   LIG    1       25.929 -24.078   7.059  0.00  0.00    -0.386 OA
ATOM     22  H   LIG    1       25.953 -23.987   6.089  0.00  0.00    +0.210 HD
ENDBRANCH   3  21
BRANCH   4  23
ATOM     23  C   LIG    1       24.184 -20.754   6.968  0.00  0.00    +0.206 C 
BRANCH  23  24
ATOM     24  O   LIG    1       22.875 -21.065   6.516  0.00  0.00    -0.284 OA
BRANCH  24  25
ATOM     25  P   LIG    1       22.510 -20.610   5.025  0.00  0.00    +0.472 P 
ATOM     26  O   LIG    1       22.276 -19.163   4.793  0.00  0.00    -0.228 OA
BRANCH  25  27
ATOM     27  O   LIG    1       21.243 -21.499   4.632  0.00  0.00    -0.303 OA
ATOM     28  H   LIG    1       20.526 -21.351   5.278  0.00  0.00    +0.222 HD
ENDBRANCH  25  27
BRANCH  25  29
ATOM     29  O   LIG    1       23.625 -21.294   4.115  0.00  0.00    -0.303 OA
ATOM     30  H   LIG    1       24.496 -20.889   4.256  0.00  0.00    +0.222 HD
ENDBRANCH  25  29
ENDBRANCH  24  25
ENDBRANCH  23  24
ENDBRANCH   4  23
TORSDOF 9
ENDMDL
MODEL 5
REMARK VINA RESULT:      -7.4      5.520      7.639
REMARK  Name = *****
REMARK                            x       y       z     vdW  Elec       q    Type
REMARK                         _______ _______ _______ _____ _____    ______ ____
ROOT
ATOM      1  C   LIG    1       28.445 -20.781   7.875  0.00  0.00    +0.253 C 
ATOM      2  C   LIG    1       29.880 -21.028   7.394  0.00  0.00    +0.195 C 
ATOM      3  C   LIG    1       30.664 -20.431   8.550  0.00  0.00    +0.178 C 
ATOM      4  C   LIG    1       29.812 -19.213   8.941  0.00  0.00    +0.178 C 
ATOM      5  O   LIG    1       28.450 -19.501   8.556  0.00  0.00    -0.346 OA
ENDROOT
BRANCH   1  10
ATOM      6  C   LIG    1       24.624 -22.185   5.272  0.00  0.00    +0.150 A 
ATOM      7  C   LIG    1       25.684 -21.342   5.647  0.00  0.00    +0.147 A 
ATOM      8  N   LIG    1       26.066 -20.086   5.230  0.00  0.00    -0.231 NA
ATOM      9  C   LIG    1       27.128 -19.800   5.956  0.00  0.00    +0.203 A 
ATOM     10  N   LIG    1       27.431 -20.798   6.843  0.00  0.00    -0.285 N 
ATOM     11  C   LIG    1       26.524 -21.807   6.646  0.00  0.00    +0.170 A 
ATOM     12  N   LIG    1       26.445 -22.983   7.288  0.00  0.00    -0.182 NA
ATOM     13  C   LIG    1       25.406 -23.716   6.830  0.00  0.00    +0.313 A 
ATOM     14  F   LIG    1       25.253 -24.929   7.388  0.00  0.00    -0.161 F 
ATOM     15  N   LIG    1       24.499 -23.380   5.887  0.00  0.00    -0.185 NA
BRANCH   6  16
ATOM     16  N   LIG    1       23.679 -21.833   4.316  0.00  0.00    -0.341 N 
ATOM     17  H   LIG    1       24.090 -21.583   3.421  0.00  0.00    +0.144 HD
ATOM     18  H   LIG    1       22.966 -21.219   4.688  0.00  0.00    +0.144 HD
ENDBRANCH   6  16
ENDBRANCH   1  10
BRANCH   2  19
ATOM     19  O   LIG    1       30.192 -20.309   6.197  0.00  0.00    -0.385 OA
ATOM     20  H   LIG    1       31.049 -20.640   5.873  0.00  0.00    +0.210 HD
ENDBRANCH   2  19
BRANCH   3  21
ATOM     21  O   LIG    1       30.701 -21.386   9.616  0.00  0.00    -0.386 OA
ATOM     22  H   LIG    1       30.028 -22.066   9.427  0.00  0.00    +0.210 HD
ENDBRANCH   3  21
BRANCH   4  23
ATOM     23  C   LIG    1       30.252 -17.913   8.261  0.00  0.00    +0.206 C 
BRANCH  23  24
ATOM     24  O   LIG    1       31.649 -17.724   8.422  0.00  0.00    -0.284 OA
BRANCH  24  25
ATOM     25  P   LIG    1       32.107 -16.821   9.663  0.00  0.00    +0.472 P 
ATOM     26  O   LIG    1       32.860 -17.492  10.752  0.00  0.00    -0.228 OA
BRANCH  25  27
ATOM     27  O   LIG    1       30.759 -16.144  10.187  0.00  0.00    -0.303 OA
ATOM     28  H   LIG    1       30.114 -16.089   9.456  0.00  0.00    +0.222 HD
ENDBRANCH  25  27
BRANCH  25  29
ATOM     29  O   LIG    1       32.814 -15.557   8.998  0.00  0.00    -0.303 OA
ATOM     30  H   LIG    1       32.687 -14.757   9.533  0.00  0.00    +0.222 HD
ENDBRANCH  25  29
ENDBRANCH  24  25
ENDBRANCH  23  24
ENDBRANCH   4  23
TORSDOF 9
ENDMDL
MODEL 6
REMARK VINA RESULT:      -7.2      4.793      6.779
REMARK  Name = *****
REMARK                            x       y       z     vdW  Elec       q    Type
REMARK                         _______ _______ _______ _____ _____    ______ ____
ROOT
ATOM      1  C   LIG    1       27.902 -21.368   8.217  0.00  0.00    +0.253 C 
ATOM      2  C   LIG    1       29.212 -21.788   7.540  0.00  0.00    +0.195 C 
ATOM      3  C   LIG    1       30.208 -20.949   8.323  0.00  0.00    +0.178 C 
ATOM      4  C   LIG    1       29.438 -19.637   8.548  0.00  0.00    +0.178 C 
ATOM      5  O   LIG    1       28.029 -19.958   8.530  0.00  0.00    -0.346 OA
ENDROOT
BRANCH   1  10
ATOM      6  C   LIG    1       24.640 -21.077   4.665  0.00  0.00    +0.150 A 
ATOM      7  C   LIG    1       25.203 -21.566   5.856  0.00  0.00    +0.147 A 
ATOM      8  N   LIG    1       24.859 -22.609   6.687  0.00  0.00    -0.231 NA
ATOM      9  C   LIG    1       25.768 -22.592   7.641  0.00  0.00    +0.203 A 
ATOM     10  N   LIG    1       26.699 -21.606   7.448  0.00  0.00    -0.285 N 
ATOM     11  C   LIG    1       26.341 -20.924   6.314  0.00  0.00    +0.170 A 
ATOM     12  N   LIG    1       26.962 -19.875   5.751  0.00  0.00    -0.182 NA
ATOM     13  C   LIG    1       26.322 -19.479   4.629  0.00  0.00    +0.313 A 
ATOM     14  F   LIG    1       26.846 -18.414   3.999  0.00  0.00    -0.161 F 
ATOM     15  N   LIG    1       25.226 -20.024   4.058  0.00  0.00    -0.185 NA
BRANCH   6  16
ATOM     16  N   LIG    1       23.524 -21.648   4.065  0.00  0.00    -0.341 N 
ATOM     17  H   LIG    1       22.658 -21.441   4.553  0.00  0.00    +0.144 HD
ATOM     18  H   LIG    1       23.684 -22.608   3.789  0.00  0.00    +0.144 HD
ENDBRANCH   6  16
ENDBRANCH   1  10
BRANCH   2  19
ATOM     19  O   LIG    1       29.266 -21.412   6.161  0.00  0.00    -0.385 OA
ATOM     20  H   LIG    1       28.945 -20.494   6.096  0.00  0.00    +0.210 HD
ENDBRANCH   2  19
BRANCH   3  21
ATOM     21  O   LIG    1       30.471 -21.601   9.570  0.00  0.00    -0.386 OA
ATOM     22  H   LIG    1       31.359 -21.999   9.513  0.00  0.00    +0.210 HD
ENDBRANCH   3  21
BRANCH   4  23
ATOM     23  C   LIG    1       29.715 -18.573   7.483  0.00  0.00    +0.206 C 
BRANCH  23  24
ATOM     24  O   LIG    1       31.027 -18.054   7.637  0.00  0.00    -0.284 OA
BRANCH  24  25
ATOM     25  P   LIG    1       31.346 -17.331   9.030  0.00  0.00    +0.472 P 
ATOM     26  O   LIG    1       30.218 -16.668   9.729  0.00  0.00    -0.228 OA
BRANCH  25  27
ATOM     27  O   LIG    1       32.531 -16.315   8.693  0.00  0.00    -0.303 OA
ATOM     28  H   LIG    1       32.314 -15.815   7.883  0.00  0.00    +0.222 HD
ENDBRANCH  25  27
BRANCH  25  29
ATOM     29  O   LIG    1       32.147 -18.423   9.872  0.00  0.00    -0.303 OA
ATOM     30  H   LIG    1       31.988 -18.323  10.825  0.00  0.00    +0.222 HD
ENDBRANCH  25  29
ENDBRANCH  24  25
ENDBRANCH  23  24
ENDBRANCH   4  23
TORSDOF 9
ENDMDL
MODEL 7
REMARK VINA RESULT:      -7.1      5.371      7.447
REMARK  Name = *****
REMARK                            x       y       z     vdW  Elec       q    Type
REMARK                         _______ _______ _______ _____ _____    ______ ____
ROOT
ATOM      1  C   LIG    1       29.147 -20.279   7.344  0.00  0.00    +0.253 C 
ATOM      2  C   LIG    1       29.669 -18.873   7.025  0.00  0.00    +0.195 C 
ATOM      3  C   LIG    1       31.142 -19.044   7.356  0.00  0.00    +0.178 C 
ATOM      4  C   LIG    1       31.105 -19.968   8.584  0.00  0.00    +0.178 C 
ATOM      5  O   LIG    1       29.889 -20.743   8.501  0.00  0.00    -0.346 OA
ENDROOT
BRANCH   1  10
ATOM      6  C   LIG    1       24.402 -20.640   6.511  0.00  0.00    +0.150 A 
ATOM      7  C   LIG    1       25.569 -20.588   7.291  0.00  0.00    +0.147 A 
ATOM      8  N   LIG    1       25.796 -20.763   8.638  0.00  0.00    -0.231 NA
ATOM      9  C   LIG    1       27.097 -20.610   8.783  0.00  0.00    +0.203 A 
ATOM     10  N   LIG    1       27.724 -20.374   7.588  0.00  0.00    -0.285 N 
ATOM     11  C   LIG    1       26.755 -20.338   6.619  0.00  0.00    +0.170 A 
ATOM     12  N   LIG    1       26.910 -20.127   5.303  0.00  0.00    -0.182 NA
ATOM     13  C   LIG    1       25.723 -20.178   4.660  0.00  0.00    +0.313 A 
ATOM     14  F   LIG    1       25.762 -19.952   3.337  0.00  0.00    -0.161 F 
ATOM     15  N   LIG    1       24.503 -20.435   5.181  0.00  0.00    -0.185 NA
BRANCH   6  16
ATOM     16  N   LIG    1       23.149 -20.924   7.042  0.00  0.00    -0.341 N 
ATOM     17  H   LIG    1       22.591 -20.094   7.213  0.00  0.00    +0.144 HD
ATOM     18  H   LIG    1       23.191 -21.616   7.778  0.00  0.00    +0.144 HD
ENDBRANCH   6  16
ENDBRANCH   1  10
BRANCH   2  19
ATOM     19  O   LIG    1       29.111 -17.869   7.878  0.00  0.00    -0.385 OA
ATOM     20  H   LIG    1       29.842 -17.295   8.170  0.00  0.00    +0.210 HD
ENDBRANCH   2  19
BRANCH   3  21
ATOM     21  O   LIG    1       31.784 -19.692   6.254  0.00  0.00    -0.386 OA
ATOM     22  H   LIG    1       32.705 -19.877   6.515  0.00  0.00    +0.210 HD
ENDBRANCH   3  21
BRANCH   4  23
ATOM     23  C   LIG    1       31.119 -19.216   9.918  0.00  0.00    +0.206 C 
BRANCH  23  24
ATOM     24  O   LIG    1       32.207 -18.306   9.957  0.00  0.00    -0.284 OA
BRANCH  24  25
ATOM     25  P   LIG    1       31.832 -16.753  10.071  0.00  0.00    +0.472 P 
ATOM     26  O   LIG    1       30.391 -16.401  10.115  0.00  0.00    -0.228 OA
BRANCH  25  27
ATOM     27  O   LIG    1       32.587 -16.066   8.843  0.00  0.00    -0.303 OA
ATOM     28  H   LIG    1       33.018 -16.752   8.298  0.00  0.00    +0.222 HD
ENDBRANCH  25  27
BRANCH  25  29
ATOM     29  O   LIG    1       32.722 -16.217  11.281  0.00  0.00    -0.303 OA
ATOM     30  H   LIG    1       32.458 -16.623  12.122  0.00  0.00    +0.222 HD
ENDBRANCH  25  29
ENDBRANCH  24  25
ENDBRANCH  23  24
ENDBRANCH   4  23
TORSDOF 9
ENDMDL
MODEL 8
REMARK VINA RESULT:      -6.8      2.064      2.806
REMARK  Name = *****
REMARK                            x       y       z     vdW  Elec       q    Type
REMARK                         _______ _______ _______ _____ _____    ______ ____
ROOT
ATOM      1  C   LIG    1       26.102 -21.234   7.254  0.00  0.00    +0.253 C 
ATOM      2  C   LIG    1       24.962 -21.069   6.241  0.00  0.00    +0.195 C 
ATOM      3  C   LIG    1       24.110 -22.279   6.587  0.00  0.00    +0.178 C 
ATOM      4  C   LIG    1       25.163 -23.348   6.918  0.00  0.00    +0.178 C 
ATOM      5  O   LIG    1       26.348 -22.658   7.375  0.00  0.00    -0.346 OA
ENDROOT
BRANCH   1  10
ATOM      6  C   LIG    1       30.778 -20.017   7.242  0.00  0.00    +0.150 A 
ATOM      7  C   LIG    1       29.435 -19.963   6.832  0.00  0.00    +0.147 A 
ATOM      8  N   LIG    1       28.800 -19.289   5.812  0.00  0.00    -0.231 NA
ATOM      9  C   LIG    1       27.535 -19.643   5.912  0.00  0.00    +0.203 A 
ATOM     10  N   LIG    1       27.329 -20.538   6.929  0.00  0.00    -0.285 N 
ATOM     11  C   LIG    1       28.537 -20.741   7.543  0.00  0.00    +0.170 A 
ATOM     12  N   LIG    1       28.806 -21.534   8.593  0.00  0.00    -0.182 NA
ATOM     13  C   LIG    1       30.119 -21.488   8.910  0.00  0.00    +0.313 A 
ATOM     14  F   LIG    1       30.493 -22.227   9.968  0.00  0.00    -0.161 F 
ATOM     15  N   LIG    1       31.103 -20.799   8.292  0.00  0.00    -0.185 NA
BRANCH   6  16
ATOM     16  N   LIG    1       31.794 -19.323   6.596  0.00  0.00    -0.341 N 
ATOM     17  H   LIG    1       32.590 -19.908   6.361  0.00  0.00    +0.144 HD
ATOM     18  H   LIG    1       31.986 -18.430   7.029  0.00  0.00    +0.144 HD
ENDBRANCH   6  16
ENDBRANCH   1  10
BRANCH   2  19
ATOM     19  O   LIG    1       25.407 -21.183   4.886  0.00  0.00    -0.385 OA
ATOM     20  H   LIG    1       25.576 -22.126   4.713  0.00  0.00    +0.210 HD
ENDBRANCH   2  19
BRANCH   3  21
ATOM     21  O   LIG    1       23.325 -21.967   7.743  0.00  0.00    -0.386 OA
ATOM     22  H   LIG    1       23.731 -22.417   8.506  0.00  0.00    +0.210 HD
ENDBRANCH   3  21
BRANCH   4  23
ATOM     23  C   LIG    1       25.538 -24.231   5.723  0.00  0.00    +0.206 C 
BRANCH  23  24
ATOM     24  O   LIG    1       26.457 -25.234   6.125  0.00  0.00    -0.284 OA
BRANCH  24  25
ATOM     25  P   LIG    1       26.048 -26.747   5.795  0.00  0.00    +0.472 P 
ATOM     26  O   LIG    1       24.667 -26.989   5.308  0.00  0.00    -0.228 OA
BRANCH  25  27
ATOM     27  O   LIG    1       26.366 -27.552   7.137  0.00  0.00    -0.303 OA
ATOM     28  H   LIG    1       26.795 -26.957   7.782  0.00  0.00    +0.222 HD
ENDBRANCH  25  27
BRANCH  25  29
ATOM     29  O   LIG    1       27.224 -27.284   4.862  0.00  0.00    -0.303 OA
ATOM     30  H   LIG    1       28.061 -27.348   5.349  0.00  0.00    +0.222 HD
ENDBRANCH  25  29
ENDBRANCH  24  25
ENDBRANCH  23  24
ENDBRANCH   4  23
TORSDOF 9
ENDMDL
MODEL 9
REMARK VINA RESULT:      -6.6      2.086      3.108
REMARK  Name = *****
REMARK                            x       y       z     vdW  Elec       q    Type
REMARK                         _______ _______ _______ _____ _____    ______ ____
ROOT
ATOM      1  C   LIG    1       24.630 -22.205   6.493  0.00  0.00    +0.253 C 
ATOM      2  C   LIG    1       23.932 -23.038   5.411  0.00  0.00    +0.195 C 
ATOM      3  C   LIG    1       23.580 -24.284   6.206  0.00  0.00    +0.178 C 
ATOM      4  C   LIG    1       24.799 -24.449   7.128  0.00  0.00    +0.178 C 
ATOM      5  O   LIG    1       25.375 -23.138   7.317  0.00  0.00    -0.346 OA
ENDROOT
BRANCH   1  10
ATOM      6  C   LIG    1       28.601 -19.537   5.814  0.00  0.00    +0.150 A 
ATOM      7  C   LIG    1       27.268 -19.932   5.611  0.00  0.00    +0.147 A 
ATOM      8  N   LIG    1       26.303 -19.525   4.716  0.00  0.00    -0.231 NA
ATOM      9  C   LIG    1       25.251 -20.269   4.994  0.00  0.00    +0.203 A 
ATOM     10  N   LIG    1       25.501 -21.157   6.007  0.00  0.00    -0.285 N 
ATOM     11  C   LIG    1       26.788 -20.942   6.428  0.00  0.00    +0.170 A 
ATOM     12  N   LIG    1       27.454 -21.579   7.404  0.00  0.00    -0.182 NA
ATOM     13  C   LIG    1       28.713 -21.102   7.523  0.00  0.00    +0.313 A 
ATOM     14  F   LIG    1       29.460 -21.654   8.494  0.00  0.00    -0.161 F 
ATOM     15  N   LIG    1       29.315 -20.146   6.783  0.00  0.00    -0.185 NA
BRANCH   6  16
ATOM     16  N   LIG    1       29.229 -18.567   5.042  0.00  0.00    -0.341 N 
ATOM     17  H   LIG    1       28.716 -17.691   5.006  0.00  0.00    +0.144 HD
ATOM     18  H   LIG    1       29.577 -18.938   4.168  0.00  0.00    +0.144 HD
ENDBRANCH   6  16
ENDBRANCH   1  10
BRANCH   2  19
ATOM     19  O   LIG    1       24.809 -23.398   4.340  0.00  0.00    -0.385 OA
ATOM     20  H   LIG    1       25.144 -22.573   3.946  0.00  0.00    +0.210 HD
ENDBRANCH   2  19
BRANCH   3  21
ATOM     21  O   LIG    1       22.400 -24.017   6.970  0.00  0.00    -0.386 OA
ATOM     22  H   LIG    1       21.830 -24.806   6.919  0.00  0.00    +0.210 HD
ENDBRANCH   3  21
BRANCH   4  23
ATOM     23  C   LIG    1       25.874 -25.382   6.562  0.00  0.00    +0.206 C 
BRANCH  23  24
ATOM     24  O   LIG    1       25.307 -26.254   5.597  0.00  0.00    -0.284 OA
BRANCH  24  25
ATOM     25  P   LIG    1       25.174 -27.793   6.019  0.00  0.00    +0.472 P 
ATOM     26  O   LIG    1       25.321 -28.119   7.459  0.00  0.00    -0.228 OA
BRANCH  25  27
ATOM     27  O   LIG    1       26.249 -28.553   5.114  0.00  0.00    -0.303 OA
ATOM     28  H   LIG    1       26.740 -27.904   4.575  0.00  0.00    +0.222 HD
ENDBRANCH  25  27
BRANCH  25  29
ATOM     29  O   LIG    1       23.827 -28.283   5.323  0.00  0.00    -0.303 OA
ATOM     30  H   LIG    1       23.182 -27.560   5.251  0.00  0.00    +0.222 HD
ENDBRANCH  25  29
ENDBRANCH  24  25
ENDBRANCH  23  24
ENDBRANCH   4  23
TORSDOF 9
ENDMDL
