MODEL 1
REMARK VINA RESULT:      -6.7      0.000      0.000
REMARK  Name = *****
REMARK                            x       y       z     vdW  Elec       q    Type
REMARK                         _______ _______ _______ _____ _____    ______ ____
ROOT
ATOM      1  C   LIG    1       23.165 -31.568   9.091  0.00  0.00    +0.106 A 
ATOM      2  C   LIG    1       23.880 -30.366   9.179  0.00  0.00    +0.038 A 
ATOM      3  C   LIG    1       24.685 -29.957   8.103  0.00  0.00    -0.002 A 
ATOM      4  C   LIG    1       25.485 -28.713   8.134  0.00  0.00    -0.012 C 
ATOM      5  C   LIG    1       25.438 -27.777   6.982  0.00  0.00    -0.004 A 
ATOM      6  C   LIG    1       25.471 -28.330   5.689  0.00  0.00    +0.021 A 
ATOM      7  S   LIG    1       25.515 -30.113   5.425  0.00  0.00    -0.088 S 
ATOM      8  C   LIG    1       25.511 -27.478   4.577  0.00  0.00    +0.015 A 
ATOM      9  C   LIG    1       25.495 -26.090   4.754  0.00  0.00    +0.001 A 
ATOM     10  C   LIG    1       25.431 -25.544   6.034  0.00  0.00    +0.001 A 
ATOM     11  C   LIG    1       25.398 -26.383   7.149  0.00  0.00    +0.009 A 
ATOM     12  C   LIG    1       26.507 -28.534   9.001  0.00  0.00    -0.017 C 
ATOM     13  C   LIG    1       24.699 -30.713   6.913  0.00  0.00    +0.021 A 
ATOM     14  C   LIG    1       24.024 -31.939   6.864  0.00  0.00    +0.017 A 
ATOM     15  C   LIG    1       23.261 -32.372   7.951  0.00  0.00    +0.029 A 
ENDROOT
BRANCH   1  16
ATOM     16  S   LIG    1       22.020 -32.038  10.367  0.00  0.00    +0.060 S 
ATOM     17  O   LIG    1       21.277 -33.200   9.915  0.00  0.00    -0.153 OA
ATOM     18  O   LIG    1       22.762 -32.061  11.609  0.00  0.00    -0.153 OA
BRANCH  16  20
ATOM     19  C   LIG    1       19.488 -31.117  10.302  0.00  0.00    +0.131 C 
ATOM     20  N   LIG    1       20.910 -30.730  10.437  0.00  0.00    -0.183 NA
ATOM     21  C   LIG    1       21.112 -29.862  11.623  0.00  0.00    +0.131 C 
ENDBRANCH  16  20
ENDBRANCH   1  16
BRANCH  12  22
ATOM     22  C   LIG    1       27.019 -29.483  10.056  0.00  0.00    +0.043 C 
BRANCH  22  23
ATOM     23  C   LIG    1       27.506 -28.762  11.342  0.00  0.00    +0.088 C 
BRANCH  23  24
ATOM     24  N   LIG    1       26.967 -29.286  12.611  0.00  0.00    -0.300 NA
ATOM     25  C   LIG    1       27.093 -28.361  13.754  0.00  0.00    +0.100 C 
ATOM     26  C   LIG    1       26.102 -27.179  13.748  0.00  0.00    +0.099 C 
ATOM     27  N   LIG    1       24.703 -27.631  13.682  0.00  0.00    -0.303 NA
ATOM     28  C   LIG    1       23.793 -26.490  13.618  0.00  0.00    +0.105 C 
ATOM     29  C   LIG    1       24.512 -28.537  12.535  0.00  0.00    +0.099 C 
ATOM     30  C   LIG    1       25.549 -29.691  12.487  0.00  0.00    +0.100 C 
ENDBRANCH  23  24
ENDBRANCH  22  23
ENDBRANCH  12  22
TORSDOF 5
ENDMDL
MODEL 2
REMARK VINA RESULT:      -6.1      3.612      6.672
REMARK  Name = *****
REMARK                            x       y       z     vdW  Elec       q    Type
REMARK                         _______ _______ _______ _____ _____    ______ ____
ROOT
ATOM      1  C   LIG    1       24.837 -30.640   8.429  0.00  0.00    +0.106 A 
ATOM      2  C   LIG    1       23.801 -30.399   9.343  0.00  0.00    +0.038 A 
ATOM      3  C   LIG    1       24.109 -29.966  10.643  0.00  0.00    -0.002 A 
ATOM      4  C   LIG    1       23.069 -29.715  11.666  0.00  0.00    -0.012 C 
ATOM      5  C   LIG    1       23.104 -28.459  12.458  0.00  0.00    -0.004 A 
ATOM      6  C   LIG    1       24.353 -28.020  12.932  0.00  0.00    +0.021 A 
ATOM      7  S   LIG    1       25.874 -28.910  12.555  0.00  0.00    -0.088 S 
ATOM      8  C   LIG    1       24.417 -26.884  13.753  0.00  0.00    +0.015 A 
ATOM      9  C   LIG    1       23.249 -26.184  14.076  0.00  0.00    +0.001 A 
ATOM     10  C   LIG    1       22.016 -26.604  13.580  0.00  0.00    +0.001 A 
ATOM     11  C   LIG    1       21.940 -27.737  12.768  0.00  0.00    +0.009 A 
ATOM     12  C   LIG    1       22.283 -30.701  12.152  0.00  0.00    -0.017 C 
ATOM     13  C   LIG    1       25.447 -29.694  10.991  0.00  0.00    +0.021 A 
ATOM     14  C   LIG    1       26.473 -29.994  10.085  0.00  0.00    +0.017 A 
ATOM     15  C   LIG    1       26.173 -30.471   8.807  0.00  0.00    +0.029 A 
ENDROOT
BRANCH   1  16
ATOM     16  S   LIG    1       24.478 -31.039   6.735  0.00  0.00    +0.060 S 
ATOM     17  O   LIG    1       23.511 -30.081   6.231  0.00  0.00    -0.153 OA
ATOM     18  O   LIG    1       25.749 -31.240   6.072  0.00  0.00    -0.153 OA
BRANCH  16  20
ATOM     19  C   LIG    1       23.174 -33.067   5.528  0.00  0.00    +0.131 C 
ATOM     20  N   LIG    1       23.679 -32.557   6.823  0.00  0.00    -0.183 NA
ATOM     21  C   LIG    1       24.479 -33.591   7.523  0.00  0.00    +0.131 C 
ENDBRANCH  16  20
ENDBRANCH   1  16
BRANCH  12  22
ATOM     22  C   LIG    1       22.279 -32.165  11.786  0.00  0.00    +0.043 C 
BRANCH  22  23
ATOM     23  C   LIG    1       21.204 -32.526  10.725  0.00  0.00    +0.088 C 
BRANCH  23  24
ATOM     24  N   LIG    1       20.228 -33.555  11.130  0.00  0.00    -0.300 NA
ATOM     25  C   LIG    1       19.765 -33.439  12.527  0.00  0.00    +0.100 C 
ATOM     26  C   LIG    1       18.763 -32.295  12.788  0.00  0.00    +0.099 C 
ATOM     27  N   LIG    1       17.577 -32.391  11.923  0.00  0.00    -0.303 NA
ATOM     28  C   LIG    1       16.677 -31.264  12.153  0.00  0.00    +0.105 C 
ATOM     29  C   LIG    1       17.980 -32.479  10.508  0.00  0.00    +0.099 C 
ATOM     30  C   LIG    1       19.043 -33.577  10.242  0.00  0.00    +0.100 C 
ENDBRANCH  23  24
ENDBRANCH  22  23
ENDBRANCH  12  22
TORSDOF 5
ENDMDL
MODEL 3
REMARK VINA RESULT:      -6.1      1.442      1.724
REMARK  Name = *****
REMARK                            x       y       z     vdW  Elec       q    Type
REMARK                         _______ _______ _______ _____ _____    ______ ____
ROOT
ATOM      1  C   LIG    1       22.889 -31.134  10.221  0.00  0.00    +0.106 A 
ATOM      2  C   LIG    1       23.804 -30.088  10.031  0.00  0.00    +0.038 A 
ATOM      3  C   LIG    1       24.550 -30.025   8.843  0.00  0.00    -0.002 A 
ATOM      4  C   LIG    1       25.549 -28.964   8.585  0.00  0.00    -0.012 C 
ATOM      5  C   LIG    1       25.541 -28.245   7.285  0.00  0.00    -0.004 A 
ATOM      6  C   LIG    1       25.344 -29.007   6.119  0.00  0.00    +0.021 A 
ATOM      7  S   LIG    1       25.058 -30.785   6.188  0.00  0.00    -0.088 S 
ATOM      8  C   LIG    1       25.412 -28.378   4.867  0.00  0.00    +0.015 A 
ATOM      9  C   LIG    1       25.651 -27.002   4.784  0.00  0.00    +0.001 A 
ATOM     10  C   LIG    1       25.815 -26.244   5.942  0.00  0.00    +0.001 A 
ATOM     11  C   LIG    1       25.756 -26.861   7.193  0.00  0.00    +0.009 A 
ATOM     12  C   LIG    1       26.670 -28.833   9.328  0.00  0.00    -0.017 C 
ATOM     13  C   LIG    1       24.311 -30.961   7.817  0.00  0.00    +0.021 A 
ATOM     14  C   LIG    1       23.436 -32.031   8.045  0.00  0.00    +0.017 A 
ATOM     15  C   LIG    1       22.728 -32.123   9.246  0.00  0.00    +0.029 A 
ENDROOT
BRANCH   1  16
ATOM     16  S   LIG    1       21.821 -31.159  11.641  0.00  0.00    +0.060 S 
ATOM     17  O   LIG    1       21.242 -29.839  11.805  0.00  0.00    -0.153 OA
ATOM     18  O   LIG    1       20.985 -32.333  11.516  0.00  0.00    -0.153 OA
BRANCH  16  20
ATOM     19  C   LIG    1       22.410 -30.865  14.255  0.00  0.00    +0.131 C 
ATOM     20  N   LIG    1       22.888 -31.405  12.963  0.00  0.00    -0.183 NA
ATOM     21  C   LIG    1       23.314 -32.820  13.107  0.00  0.00    +0.131 C 
ENDBRANCH  16  20
ENDBRANCH   1  16
BRANCH  12  22
ATOM     22  C   LIG    1       27.121 -29.667  10.501  0.00  0.00    +0.043 C 
BRANCH  22  23
ATOM     23  C   LIG    1       27.761 -28.826  11.639  0.00  0.00    +0.088 C 
BRANCH  23  24
ATOM     24  N   LIG    1       27.262 -29.105  12.998  0.00  0.00    -0.300 NA
ATOM     25  C   LIG    1       27.590 -28.066  13.993  0.00  0.00    +0.100 C 
ATOM     26  C   LIG    1       26.756 -26.774  13.884  0.00  0.00    +0.099 C 
ATOM     27  N   LIG    1       25.311 -27.040  13.965  0.00  0.00    -0.303 NA
ATOM     28  C   LIG    1       24.547 -25.806  13.800  0.00  0.00    +0.105 C 
ATOM     29  C   LIG    1       24.920 -28.053  12.969  0.00  0.00    +0.099 C 
ATOM     30  C   LIG    1       25.799 -29.331  13.017  0.00  0.00    +0.100 C 
ENDBRANCH  23  24
ENDBRANCH  22  23
ENDBRANCH  12  22
TORSDOF 5
ENDMDL
MODEL 4
REMARK VINA RESULT:      -6.1      3.059      6.548
REMARK  Name = *****
REMARK                            x       y       z     vdW  Elec       q    Type
REMARK                         _______ _______ _______ _____ _____    ______ ____
ROOT
ATOM      1  C   LIG    1       24.869 -30.636   8.707  0.00  0.00    +0.106 A 
ATOM      2  C   LIG    1       24.056 -30.311   9.802  0.00  0.00    +0.038 A 
ATOM      3  C   LIG    1       24.631 -29.727  10.943  0.00  0.00    -0.002 A 
ATOM      4  C   LIG    1       23.839 -29.379  12.144  0.00  0.00    -0.012 C 
ATOM      5  C   LIG    1       23.998 -28.041  12.768  0.00  0.00    -0.004 A 
ATOM      6  C   LIG    1       25.302 -27.529  12.894  0.00  0.00    +0.021 A 
ATOM      7  S   LIG    1       26.736 -28.431  12.275  0.00  0.00    -0.088 S 
ATOM      8  C   LIG    1       25.501 -26.306  13.551  0.00  0.00    +0.015 A 
ATOM      9  C   LIG    1       24.408 -25.594  14.056  0.00  0.00    +0.001 A 
ATOM     10  C   LIG    1       23.114 -26.088  13.904  0.00  0.00    +0.001 A 
ATOM     11  C   LIG    1       22.905 -27.307  13.257  0.00  0.00    +0.009 A 
ATOM     12  C   LIG    1       23.225 -30.316  12.900  0.00  0.00    -0.017 C 
ATOM     13  C   LIG    1       26.001 -29.395  10.944  0.00  0.00    +0.021 A 
ATOM     14  C   LIG    1       26.807 -29.778   9.865  0.00  0.00    +0.017 A 
ATOM     15  C   LIG    1       26.247 -30.403   8.748  0.00  0.00    +0.029 A 
ENDROOT
BRANCH   1  16
ATOM     16  S   LIG    1       24.154 -31.232   7.192  0.00  0.00    +0.060 S 
ATOM     17  O   LIG    1       23.234 -32.309   7.510  0.00  0.00    -0.153 OA
ATOM     18  O   LIG    1       23.718 -30.071   6.448  0.00  0.00    -0.153 OA
BRANCH  16  20
ATOM     19  C   LIG    1       25.416 -33.408   6.224  0.00  0.00    +0.131 C 
ATOM     20  N   LIG    1       25.477 -31.936   6.353  0.00  0.00    -0.183 NA
ATOM     21  C   LIG    1       25.730 -31.299   5.037  0.00  0.00    +0.131 C 
ENDBRANCH  16  20
ENDBRANCH   1  16
BRANCH  12  22
ATOM     22  C   LIG    1       23.201 -31.812  12.703  0.00  0.00    +0.043 C 
BRANCH  22  23
ATOM     23  C   LIG    1       21.891 -32.320  12.042  0.00  0.00    +0.088 C 
BRANCH  23  24
ATOM     24  N   LIG    1       20.806 -31.328  11.930  0.00  0.00    -0.300 NA
ATOM     25  C   LIG    1       20.219 -31.216  10.581  0.00  0.00    +0.100 C 
ATOM     26  C   LIG    1       19.286 -32.376  10.177  0.00  0.00    +0.099 C 
ATOM     27  N   LIG    1       18.185 -32.559  11.137  0.00  0.00    -0.303 NA
ATOM     28  C   LIG    1       17.355 -33.700  10.760  0.00  0.00    +0.105 C 
ATOM     29  C   LIG    1       18.717 -32.708  12.504  0.00  0.00    +0.099 C 
ATOM     30  C   LIG    1       19.715 -31.587  12.898  0.00  0.00    +0.100 C 
ENDBRANCH  23  24
ENDBRANCH  22  23
ENDBRANCH  12  22
TORSDOF 5
ENDMDL
MODEL 5
REMARK VINA RESULT:      -6.0      1.050      1.857
REMARK  Name = *****
REMARK                            x       y       z     vdW  Elec       q    Type
REMARK                         _______ _______ _______ _____ _____    ______ ____
ROOT
ATOM      1  C   LIG    1       23.117 -31.492   9.597  0.00  0.00    +0.106 A 
ATOM      2  C   LIG    1       23.934 -30.353   9.579  0.00  0.00    +0.038 A 
ATOM      3  C   LIG    1       24.693 -30.062   8.433  0.00  0.00    -0.002 A 
ATOM      4  C   LIG    1       25.594 -28.890   8.351  0.00  0.00    -0.012 C 
ATOM      5  C   LIG    1       25.543 -28.005   7.160  0.00  0.00    -0.004 A 
ATOM      6  C   LIG    1       25.440 -28.614   5.896  0.00  0.00    +0.021 A 
ATOM      7  S   LIG    1       25.317 -30.404   5.717  0.00  0.00    -0.088 S 
ATOM      8  C   LIG    1       25.472 -27.816   4.743  0.00  0.00    +0.015 A 
ATOM      9  C   LIG    1       25.584 -26.426   4.853  0.00  0.00    +0.001 A 
ATOM     10  C   LIG    1       25.655 -25.822   6.107  0.00  0.00    +0.001 A 
ATOM     11  C   LIG    1       25.631 -26.607   7.261  0.00  0.00    +0.009 A 
ATOM     12  C   LIG    1       26.684 -28.763   9.138  0.00  0.00    -0.017 C 
ATOM     13  C   LIG    1       24.561 -30.866   7.284  0.00  0.00    +0.021 A 
ATOM     14  C   LIG    1       23.784 -32.031   7.339  0.00  0.00    +0.017 A 
ATOM     15  C   LIG    1       23.066 -32.349   8.494  0.00  0.00    +0.029 A 
ENDROOT
BRANCH   1  16
ATOM     16  S   LIG    1       22.030 -31.807  10.968  0.00  0.00    +0.060 S 
ATOM     17  O   LIG    1       21.371 -33.082  10.751  0.00  0.00    -0.153 OA
ATOM     18  O   LIG    1       22.789 -31.552  12.173  0.00  0.00    -0.153 OA
BRANCH  16  20
ATOM     19  C   LIG    1       19.511 -31.073  10.347  0.00  0.00    +0.131 C 
ATOM     20  N   LIG    1       20.824 -30.592  10.833  0.00  0.00    -0.183 NA
ATOM     21  C   LIG    1       20.668 -29.792  12.073  0.00  0.00    +0.131 C 
ENDBRANCH  16  20
ENDBRANCH   1  16
BRANCH  12  22
ATOM     22  C   LIG    1       27.189 -29.707  10.202  0.00  0.00    +0.043 C 
BRANCH  22  23
ATOM     23  C   LIG    1       27.848 -28.976  11.404  0.00  0.00    +0.088 C 
BRANCH  23  24
ATOM     24  N   LIG    1       26.929 -28.556  12.478  0.00  0.00    -0.300 NA
ATOM     25  C   LIG    1       25.765 -29.444  12.667  0.00  0.00    +0.100 C 
ATOM     26  C   LIG    1       26.074 -30.783  13.368  0.00  0.00    +0.099 C 
ATOM     27  N   LIG    1       26.712 -30.584  14.680  0.00  0.00    -0.303 NA
ATOM     28  C   LIG    1       27.045 -31.868  15.293  0.00  0.00    +0.105 C 
ATOM     29  C   LIG    1       27.902 -29.726  14.547  0.00  0.00    +0.099 C 
ATOM     30  C   LIG    1       27.623 -28.407  13.777  0.00  0.00    +0.100 C 
ENDBRANCH  23  24
ENDBRANCH  22  23
ENDBRANCH  12  22
TORSDOF 5
ENDMDL
MODEL 6
REMARK VINA RESULT:      -5.9      2.717      6.629
REMARK  Name = *****
REMARK                            x       y       z     vdW  Elec       q    Type
REMARK                         _______ _______ _______ _____ _____    ______ ____
ROOT
ATOM      1  C   LIG    1       22.762 -29.325  12.038  0.00  0.00    +0.106 A 
ATOM      2  C   LIG    1       24.132 -29.535  11.824  0.00  0.00    +0.038 A 
ATOM      3  C   LIG    1       25.061 -28.605  12.317  0.00  0.00    -0.002 A 
ATOM      4  C   LIG    1       26.520 -28.751  12.110  0.00  0.00    -0.012 C 
ATOM      5  C   LIG    1       27.447 -28.583  13.258  0.00  0.00    -0.004 A 
ATOM      6  C   LIG    1       27.197 -27.525  14.151  0.00  0.00    +0.021 A 
ATOM      7  S   LIG    1       25.774 -26.435  13.951  0.00  0.00    -0.088 S 
ATOM      8  C   LIG    1       28.096 -27.283  15.199  0.00  0.00    +0.015 A 
ATOM      9  C   LIG    1       29.218 -28.102  15.367  0.00  0.00    +0.001 A 
ATOM     10  C   LIG    1       29.447 -29.169  14.499  0.00  0.00    +0.001 A 
ATOM     11  C   LIG    1       28.563 -29.414  13.448  0.00  0.00    +0.009 A 
ATOM     12  C   LIG    1       27.082 -28.703  10.882  0.00  0.00    -0.017 C 
ATOM     13  C   LIG    1       24.618 -27.517  13.095  0.00  0.00    +0.021 A 
ATOM     14  C   LIG    1       23.244 -27.291  13.250  0.00  0.00    +0.017 A 
ATOM     15  C   LIG    1       22.314 -28.189  12.719  0.00  0.00    +0.029 A 
ENDROOT
BRANCH   1  16
ATOM     16  S   LIG    1       21.570 -30.555  11.564  0.00  0.00    +0.060 S 
ATOM     17  O   LIG    1       20.365 -30.356  12.348  0.00  0.00    -0.153 OA
ATOM     18  O   LIG    1       21.529 -30.565  10.117  0.00  0.00    -0.153 OA
BRANCH  16  20
ATOM     19  C   LIG    1       21.961 -32.405  13.485  0.00  0.00    +0.131 C 
ATOM     20  N   LIG    1       22.267 -32.036  12.085  0.00  0.00    -0.183 NA
ATOM     21  C   LIG    1       21.981 -33.165  11.165  0.00  0.00    +0.131 C 
ENDBRANCH  16  20
ENDBRANCH   1  16
BRANCH  12  22
ATOM     22  C   LIG    1       26.405 -28.513   9.547  0.00  0.00    +0.043 C 
BRANCH  22  23
ATOM     23  C   LIG    1       26.122 -29.850   8.810  0.00  0.00    +0.088 C 
BRANCH  23  24
ATOM     24  N   LIG    1       24.767 -29.994   8.246  0.00  0.00    -0.300 NA
ATOM     25  C   LIG    1       24.600 -29.409   6.902  0.00  0.00    +0.100 C 
ATOM     26  C   LIG    1       25.233 -30.222   5.754  0.00  0.00    +0.099 C 
ATOM     27  N   LIG    1       24.728 -31.604   5.713  0.00  0.00    -0.303 NA
ATOM     28  C   LIG    1       25.388 -32.365   4.654  0.00  0.00    +0.105 C 
ATOM     29  C   LIG    1       24.898 -32.251   7.026  0.00  0.00    +0.099 C 
ATOM     30  C   LIG    1       24.332 -31.409   8.201  0.00  0.00    +0.100 C 
ENDBRANCH  23  24
ENDBRANCH  22  23
ENDBRANCH  12  22
TORSDOF 5
ENDMDL
MODEL 7
REMARK VINA RESULT:      -5.8      6.834     10.124
REMARK  Name = *****
REMARK                            x       y       z     vdW  Elec       q    Type
REMARK                         _______ _______ _______ _____ _____    ______ ____
ROOT
ATOM      1  C   LIG    1       27.788 -21.037   7.950  0.00  0.00    +0.106 A 
ATOM      2  C   LIG    1       27.146 -21.397   6.757  0.00  0.00    +0.038 A 
ATOM      3  C   LIG    1       25.753 -21.251   6.647  0.00  0.00    -0.002 A 
ATOM      4  C   LIG    1       25.007 -21.632   5.427  0.00  0.00    -0.012 C 
ATOM      5  C   LIG    1       24.013 -20.692   4.849  0.00  0.00    -0.004 A 
ATOM      6  C   LIG    1       23.157 -20.017   5.738  0.00  0.00    +0.021 A 
ATOM      7  S   LIG    1       23.287 -20.234   7.524  0.00  0.00    -0.088 S 
ATOM      8  C   LIG    1       22.151 -19.184   5.227  0.00  0.00    +0.015 A 
ATOM      9  C   LIG    1       22.017 -19.011   3.845  0.00  0.00    +0.001 A 
ATOM     10  C   LIG    1       22.885 -19.657   2.967  0.00  0.00    +0.001 A 
ATOM     11  C   LIG    1       23.886 -20.494   3.465  0.00  0.00    +0.009 A 
ATOM     12  C   LIG    1       24.935 -22.910   4.995  0.00  0.00    -0.017 C 
ATOM     13  C   LIG    1       25.025 -20.666   7.702  0.00  0.00    +0.021 A 
ATOM     14  C   LIG    1       25.674 -20.365   8.907  0.00  0.00    +0.017 A 
ATOM     15  C   LIG    1       27.052 -20.554   9.037  0.00  0.00    +0.029 A 
ENDROOT
BRANCH   1  16
ATOM     16  S   LIG    1       29.561 -21.062   8.070  0.00  0.00    +0.060 S 
ATOM     17  O   LIG    1       29.935 -21.898   9.197  0.00  0.00    -0.153 OA
ATOM     18  O   LIG    1       30.068 -21.328   6.741  0.00  0.00    -0.153 OA
BRANCH  16  20
ATOM     19  C   LIG    1       31.269 -19.303   9.189  0.00  0.00    +0.131 C 
ATOM     20  N   LIG    1       29.976 -19.449   8.485  0.00  0.00    -0.183 NA
ATOM     21  C   LIG    1       29.893 -18.516   7.333  0.00  0.00    +0.131 C 
ENDBRANCH  16  20
ENDBRANCH   1  16
BRANCH  12  22
ATOM     22  C   LIG    1       25.556 -24.143   5.604  0.00  0.00    +0.043 C 
BRANCH  22  23
ATOM     23  C   LIG    1       24.996 -25.465   5.013  0.00  0.00    +0.088 C 
BRANCH  23  24
ATOM     24  N   LIG    1       25.947 -26.590   4.951  0.00  0.00    -0.300 NA
ATOM     25  C   LIG    1       26.663 -26.854   6.214  0.00  0.00    +0.100 C 
ATOM     26  C   LIG    1       25.821 -27.544   7.307  0.00  0.00    +0.099 C 
ATOM     27  N   LIG    1       25.242 -28.814   6.840  0.00  0.00    -0.303 NA
ATOM     28  C   LIG    1       24.404 -29.413   7.876  0.00  0.00    +0.105 C 
ATOM     29  C   LIG    1       24.487 -28.603   5.591  0.00  0.00    +0.099 C 
ATOM     30  C   LIG    1       25.297 -27.844   4.507  0.00  0.00    +0.100 C 
ENDBRANCH  23  24
ENDBRANCH  22  23
ENDBRANCH  12  22
TORSDOF 5
ENDMDL
MODEL 8
REMARK VINA RESULT:      -5.8      7.843     10.567
REMARK  Name = *****
REMARK                            x       y       z     vdW  Elec       q    Type
REMARK                         _______ _______ _______ _____ _____    ______ ____
ROOT
ATOM      1  C   LIG    1       23.935 -20.123   4.759  0.00  0.00    +0.106 A 
ATOM      2  C   LIG    1       24.945 -20.937   5.292  0.00  0.00    +0.038 A 
ATOM      3  C   LIG    1       24.598 -22.096   6.006  0.00  0.00    -0.002 A 
ATOM      4  C   LIG    1       25.609 -22.988   6.615  0.00  0.00    -0.012 C 
ATOM      5  C   LIG    1       25.516 -24.456   6.407  0.00  0.00    -0.004 A 
ATOM      6  C   LIG    1       24.244 -25.050   6.495  0.00  0.00    +0.021 A 
ATOM      7  S   LIG    1       22.762 -24.068   6.796  0.00  0.00    -0.088 S 
ATOM      8  C   LIG    1       24.125 -26.442   6.387  0.00  0.00    +0.015 A 
ATOM      9  C   LIG    1       25.262 -27.230   6.171  0.00  0.00    +0.001 A 
ATOM     10  C   LIG    1       26.518 -26.637   6.054  0.00  0.00    +0.001 A 
ATOM     11  C   LIG    1       26.648 -25.252   6.167  0.00  0.00    +0.009 A 
ATOM     12  C   LIG    1       26.420 -22.582   7.616  0.00  0.00    -0.017 C 
ATOM     13  C   LIG    1       23.245 -22.477   6.107  0.00  0.00    +0.021 A 
ATOM     14  C   LIG    1       22.247 -21.623   5.618  0.00  0.00    +0.017 A 
ATOM     15  C   LIG    1       22.588 -20.445   4.949  0.00  0.00    +0.029 A 
ENDROOT
BRANCH   1  16
ATOM     16  S   LIG    1       24.339 -18.738   3.722  0.00  0.00    +0.060 S 
ATOM     17  O   LIG    1       25.759 -18.464   3.851  0.00  0.00    -0.153 OA
ATOM     18  O   LIG    1       23.741 -18.991   2.430  0.00  0.00    -0.153 OA
BRANCH  16  20
ATOM     19  C   LIG    1       23.971 -16.082   4.007  0.00  0.00    +0.131 C 
ATOM     20  N   LIG    1       23.508 -17.419   4.443  0.00  0.00    -0.183 NA
ATOM     21  C   LIG    1       22.033 -17.532   4.326  0.00  0.00    +0.131 C 
ENDBRANCH  16  20
ENDBRANCH   1  16
BRANCH  12  22
ATOM     22  C   LIG    1       26.482 -21.230   8.284  0.00  0.00    +0.043 C 
BRANCH  22  23
ATOM     23  C   LIG    1       27.510 -20.270   7.626  0.00  0.00    +0.088 C 
BRANCH  23  24
ATOM     24  N   LIG    1       28.696 -20.914   7.031  0.00  0.00    -0.300 NA
ATOM     25  C   LIG    1       29.408 -20.085   6.040  0.00  0.00    +0.100 C 
ATOM     26  C   LIG    1       30.251 -18.938   6.635  0.00  0.00    +0.099 C 
ATOM     27  N   LIG    1       31.239 -19.428   7.611  0.00  0.00    -0.303 NA
ATOM     28  C   LIG    1       31.980 -18.315   8.199  0.00  0.00    +0.105 C 
ATOM     29  C   LIG    1       30.576 -20.241   8.646  0.00  0.00    +0.099 C 
ATOM     30  C   LIG    1       29.665 -21.353   8.061  0.00  0.00    +0.100 C 
ENDBRANCH  23  24
ENDBRANCH  22  23
ENDBRANCH  12  22
TORSDOF 5
ENDMDL
MODEL 9
REMARK VINA RESULT:      -5.6      2.908      6.827
REMARK  Name = *****
REMARK                            x       y       z     vdW  Elec       q    Type
REMARK                         _______ _______ _______ _____ _____    ______ ____
ROOT
ATOM      1  C   LIG    1       25.253 -30.404   8.639  0.00  0.00    +0.106 A 
ATOM      2  C   LIG    1       24.163 -30.103   9.469  0.00  0.00    +0.038 A 
ATOM      3  C   LIG    1       24.384 -29.799  10.822  0.00  0.00    -0.002 A 
ATOM      4  C   LIG    1       23.281 -29.495  11.760  0.00  0.00    -0.012 C 
ATOM      5  C   LIG    1       23.375 -28.308  12.648  0.00  0.00    -0.004 A 
ATOM      6  C   LIG    1       24.611 -28.053  13.270  0.00  0.00    +0.021 A 
ATOM      7  S   LIG    1       26.053 -29.092  12.966  0.00  0.00    -0.088 S 
ATOM      8  C   LIG    1       24.718 -26.991  14.179  0.00  0.00    +0.015 A 
ATOM      9  C   LIG    1       23.610 -26.180  14.446  0.00  0.00    +0.001 A 
ATOM     10  C   LIG    1       22.394 -26.415  13.806  0.00  0.00    +0.001 A 
ATOM     11  C   LIG    1       22.275 -27.474  12.904  0.00  0.00    +0.009 A 
ATOM     12  C   LIG    1       22.343 -30.410  12.091  0.00  0.00    -0.017 C 
ATOM     13  C   LIG    1       25.702 -29.712  11.313  0.00  0.00    +0.021 A 
ATOM     14  C   LIG    1       26.774 -30.071  10.486  0.00  0.00    +0.017 A 
ATOM     15  C   LIG    1       26.554 -30.421   9.152  0.00  0.00    +0.029 A 
ENDROOT
BRANCH   1  16
ATOM     16  S   LIG    1       25.026 -30.643   6.893  0.00  0.00    +0.060 S 
ATOM     17  O   LIG    1       26.131 -31.437   6.389  0.00  0.00    -0.153 OA
ATOM     18  O   LIG    1       23.654 -31.061   6.701  0.00  0.00    -0.153 OA
BRANCH  16  20
ATOM     19  C   LIG    1       24.056 -28.615   5.404  0.00  0.00    +0.131 C 
ATOM     20  N   LIG    1       25.198 -29.069   6.229  0.00  0.00    -0.183 NA
ATOM     21  C   LIG    1       25.555 -28.048   7.245  0.00  0.00    +0.131 C 
ENDBRANCH  16  20
ENDBRANCH   1  16
BRANCH  12  22
ATOM     22  C   LIG    1       22.212 -31.834  11.613  0.00  0.00    +0.043 C 
BRANCH  22  23
ATOM     23  C   LIG    1       21.078 -32.618  12.328  0.00  0.00    +0.088 C 
BRANCH  23  24
ATOM     24  N   LIG    1       20.048 -33.198  11.446  0.00  0.00    -0.300 NA
ATOM     25  C   LIG    1       18.918 -33.825  12.159  0.00  0.00    +0.100 C 
ATOM     26  C   LIG    1       17.914 -32.836  12.785  0.00  0.00    +0.099 C 
ATOM     27  N   LIG    1       17.362 -31.904  11.788  0.00  0.00    -0.303 NA
ATOM     28  C   LIG    1       16.461 -30.944  12.420  0.00  0.00    +0.105 C 
ATOM     29  C   LIG    1       18.451 -31.224  11.064  0.00  0.00    +0.099 C 
ATOM     30  C   LIG    1       19.509 -32.204  10.491  0.00  0.00    +0.100 C 
ENDBRANCH  23  24
ENDBRANCH  22  23
ENDBRANCH  12  22
TORSDOF 5
ENDMDL
