MODEL 1
REMARK VINA RESULT:      -3.9      0.000      0.000
REMARK  Name = *****
REMARK                            x       y       z     vdW  Elec       q    Type
REMARK                         _______ _______ _______ _____ _____    ______ ____
ROOT
ATOM      1  C   LIG    1       24.541 -21.081   5.803  0.00  0.00    +0.370 C 
ATOM      2  N   LIG    1       25.243 -20.211   5.008  0.00  0.00    -0.182 N 
ATOM      3  C   LIG    1       24.372 -19.879   3.882  0.00  0.00    +0.212 C 
ATOM      4  C   LIG    1       23.867 -18.454   4.035  0.00  0.00    -0.006 A 
ATOM      5  C   LIG    1       24.794 -17.416   3.798  0.00  0.00    -0.037 A 
ATOM      6  C   LIG    1       26.207 -17.762   3.399  0.00  0.00    +0.074 C 
ATOM      7  C   LIG    1       27.007 -18.531   4.437  0.00  0.00    -0.006 A 
ATOM      8  C   LIG    1       28.325 -18.056   4.653  0.00  0.00    +0.007 A 
ATOM      9  C   LIG    1       29.195 -18.685   5.535  0.00  0.00    +0.001 A 
ATOM     10  C   LIG    1       28.773 -19.823   6.196  0.00  0.00    +0.003 A 
ATOM     11  C   LIG    1       27.480 -20.313   5.983  0.00  0.00    +0.040 A 
ATOM     12  C   LIG    1       24.404 -16.075   3.933  0.00  0.00    +0.004 A 
ATOM     13  C   LIG    1       23.103 -15.756   4.309  0.00  0.00    +0.000 A 
ATOM     14  C   LIG    1       22.188 -16.773   4.567  0.00  0.00    +0.000 A 
ATOM     15  C   LIG    1       22.569 -18.112   4.441  0.00  0.00    +0.007 A 
ATOM     16  C   LIG    1       23.337 -21.024   3.971  0.00  0.00    +0.287 C 
ATOM     17  C   LIG    1       26.543 -19.684   5.132  0.00  0.00    +0.099 A 
ATOM     18  N   LIG    1       23.413 -21.572   5.354  0.00  0.00    -0.113 NA
ENDROOT
BRANCH   1  19
ATOM     19  N   LIG    1       24.938 -21.373   7.060  0.00  0.00    -0.251 N 
ATOM     20  H   LIG    1       25.085 -20.546   7.626  0.00  0.00    +0.241 HD
ATOM     21  H   LIG    1       24.288 -22.018   7.496  0.00  0.00    +0.241 HD
ENDBRANCH   1  19
TORSDOF 1
ENDMDL
MODEL 2
REMARK VINA RESULT:      -2.9      1.060      1.327
REMARK  Name = *****
REMARK                            x       y       z     vdW  Elec       q    Type
REMARK                         _______ _______ _______ _____ _____    ______ ____
ROOT
ATOM      1  C   LIG    1       23.150 -21.199   5.717  0.00  0.00    +0.370 C 
ATOM      2  N   LIG    1       24.243 -20.664   5.086  0.00  0.00    -0.182 N 
ATOM      3  C   LIG    1       23.780 -20.176   3.788  0.00  0.00    +0.212 C 
ATOM      4  C   LIG    1       23.743 -18.656   3.804  0.00  0.00    -0.006 A 
ATOM      5  C   LIG    1       24.984 -17.985   3.764  0.00  0.00    -0.037 A 
ATOM      6  C   LIG    1       26.259 -18.789   3.696  0.00  0.00    +0.074 C 
ATOM      7  C   LIG    1       26.534 -19.676   4.898  0.00  0.00    -0.006 A 
ATOM      8  C   LIG    1       27.861 -19.621   5.395  0.00  0.00    +0.007 A 
ATOM      9  C   LIG    1       28.278 -20.411   6.458  0.00  0.00    +0.001 A 
ATOM     10  C   LIG    1       27.384 -21.298   7.026  0.00  0.00    +0.003 A 
ATOM     11  C   LIG    1       26.075 -21.377   6.537  0.00  0.00    +0.040 A 
ATOM     12  C   LIG    1       25.030 -16.583   3.788  0.00  0.00    +0.004 A 
ATOM     13  C   LIG    1       23.855 -15.842   3.859  0.00  0.00    +0.000 A 
ATOM     14  C   LIG    1       22.628 -16.495   3.922  0.00  0.00    +0.000 A 
ATOM     15  C   LIG    1       22.572 -17.892   3.904  0.00  0.00    +0.007 A 
ATOM     16  C   LIG    1       22.435 -20.927   3.662  0.00  0.00    +0.287 C 
ATOM     17  C   LIG    1       25.589 -20.562   5.489  0.00  0.00    +0.099 A 
ATOM     18  N   LIG    1       22.042 -21.350   5.035  0.00  0.00    -0.113 NA
ENDROOT
BRANCH   1  19
ATOM     19  N   LIG    1       23.161 -21.492   7.035  0.00  0.00    -0.251 N 
ATOM     20  H   LIG    1       23.833 -22.213   7.270  0.00  0.00    +0.241 HD
ATOM     21  H   LIG    1       23.303 -20.651   7.584  0.00  0.00    +0.241 HD
ENDBRANCH   1  19
TORSDOF 1
ENDMDL
MODEL 3
REMARK VINA RESULT:      -2.6      1.497      2.197
REMARK  Name = *****
REMARK                            x       y       z     vdW  Elec       q    Type
REMARK                         _______ _______ _______ _____ _____    ______ ____
ROOT
ATOM      1  C   LIG    1       24.655 -20.022   4.700  0.00  0.00    +0.370 C 
ATOM      2  N   LIG    1       25.918 -19.528   4.498  0.00  0.00    -0.182 N 
ATOM      3  C   LIG    1       25.882 -18.788   3.238  0.00  0.00    +0.212 C 
ATOM      4  C   LIG    1       25.949 -17.297   3.524  0.00  0.00    -0.006 A 
ATOM      5  C   LIG    1       27.192 -16.781   3.946  0.00  0.00    -0.037 A 
ATOM      6  C   LIG    1       28.374 -17.710   4.076  0.00  0.00    +0.074 C 
ATOM      7  C   LIG    1       28.230 -18.803   5.122  0.00  0.00    -0.006 A 
ATOM      8  C   LIG    1       29.360 -18.985   5.960  0.00  0.00    +0.007 A 
ATOM      9  C   LIG    1       29.398 -19.978   6.931  0.00  0.00    +0.001 A 
ATOM     10  C   LIG    1       28.319 -20.831   7.061  0.00  0.00    +0.003 A 
ATOM     11  C   LIG    1       27.203 -20.674   6.231  0.00  0.00    +0.040 A 
ATOM     12  C   LIG    1       27.328 -15.416   4.241  0.00  0.00    +0.004 A 
ATOM     13  C   LIG    1       26.236 -14.561   4.129  0.00  0.00    +0.000 A 
ATOM     14  C   LIG    1       25.000 -15.065   3.736  0.00  0.00    +0.000 A 
ATOM     15  C   LIG    1       24.854 -16.425   3.445  0.00  0.00    +0.007 A 
ATOM     16  C   LIG    1       24.580 -19.345   2.616  0.00  0.00    +0.287 C 
ATOM     17  C   LIG    1       27.096 -19.652   5.261  0.00  0.00    +0.099 A 
ATOM     18  N   LIG    1       23.782 -19.930   3.729  0.00  0.00    -0.113 NA
ENDROOT
BRANCH   1  19
ATOM     19  N   LIG    1       24.268 -20.519   5.895  0.00  0.00    -0.251 N 
ATOM     20  H   LIG    1       25.013 -20.511   6.581  0.00  0.00    +0.241 HD
ATOM     21  H   LIG    1       23.442 -20.036   6.229  0.00  0.00    +0.241 HD
ENDBRANCH   1  19
TORSDOF 1
ENDMDL
MODEL 4
REMARK VINA RESULT:      -1.5      2.311      4.305
REMARK  Name = *****
REMARK                            x       y       z     vdW  Elec       q    Type
REMARK                         _______ _______ _______ _____ _____    ______ ____
ROOT
ATOM      1  C   LIG    1       28.872 -18.900   6.174  0.00  0.00    +0.370 C 
ATOM      2  N   LIG    1       27.927 -18.818   5.184  0.00  0.00    -0.182 N 
ATOM      3  C   LIG    1       27.497 -20.187   4.904  0.00  0.00    +0.212 C 
ATOM      4  C   LIG    1       26.095 -20.400   5.453  0.00  0.00    -0.006 A 
ATOM      5  C   LIG    1       25.034 -19.781   4.759  0.00  0.00    -0.037 A 
ATOM      6  C   LIG    1       25.332 -18.967   3.523  0.00  0.00    +0.074 C 
ATOM      7  C   LIG    1       26.189 -17.733   3.748  0.00  0.00    -0.006 A 
ATOM      8  C   LIG    1       25.728 -16.556   3.106  0.00  0.00    +0.007 A 
ATOM      9  C   LIG    1       26.431 -15.360   3.177  0.00  0.00    +0.001 A 
ATOM     10  C   LIG    1       27.628 -15.325   3.866  0.00  0.00    +0.003 A 
ATOM     11  C   LIG    1       28.106 -16.483   4.492  0.00  0.00    +0.040 A 
ATOM     12  C   LIG    1       23.715 -19.922   5.214  0.00  0.00    +0.004 A 
ATOM     13  C   LIG    1       23.441 -20.665   6.357  0.00  0.00    +0.000 A 
ATOM     14  C   LIG    1       24.483 -21.260   7.062  0.00  0.00    +0.000 A 
ATOM     15  C   LIG    1       25.802 -21.120   6.619  0.00  0.00    +0.007 A 
ATOM     16  C   LIG    1       28.652 -20.989   5.547  0.00  0.00    +0.287 C 
ATOM     17  C   LIG    1       27.405 -17.711   4.488  0.00  0.00    +0.099 A 
ATOM     18  N   LIG    1       29.326 -20.080   6.514  0.00  0.00    -0.113 NA
ENDROOT
BRANCH   1  19
ATOM     19  N   LIG    1       29.279 -17.810   6.860  0.00  0.00    -0.251 N 
ATOM     20  H   LIG    1       28.542 -17.406   7.426  0.00  0.00    +0.241 HD
ATOM     21  H   LIG    1       30.103 -18.025   7.412  0.00  0.00    +0.241 HD
ENDBRANCH   1  19
TORSDOF 1
ENDMDL
MODEL 5
REMARK VINA RESULT:      -1.0      1.902      5.560
REMARK  Name = *****
REMARK                            x       y       z     vdW  Elec       q    Type
REMARK                         _______ _______ _______ _____ _____    ______ ____
ROOT
ATOM      1  C   LIG    1       24.768 -17.008   3.733  0.00  0.00    +0.370 C 
ATOM      2  N   LIG    1       24.440 -18.340   3.736  0.00  0.00    -0.182 N 
ATOM      3  C   LIG    1       25.671 -19.074   3.450  0.00  0.00    +0.212 C 
ATOM      4  C   LIG    1       26.155 -19.764   4.715  0.00  0.00    -0.006 A 
ATOM      5  C   LIG    1       25.425 -20.891   5.149  0.00  0.00    -0.037 A 
ATOM      6  C   LIG    1       24.234 -21.356   4.349  0.00  0.00    +0.074 C 
ATOM      7  C   LIG    1       23.080 -20.371   4.268  0.00  0.00    -0.006 A 
ATOM      8  C   LIG    1       21.796 -20.931   4.488  0.00  0.00    +0.007 A 
ATOM      9  C   LIG    1       20.639 -20.167   4.398  0.00  0.00    +0.001 A 
ATOM     10  C   LIG    1       20.741 -18.833   4.054  0.00  0.00    +0.003 A 
ATOM     11  C   LIG    1       21.999 -18.269   3.817  0.00  0.00    +0.040 A 
ATOM     12  C   LIG    1       25.804 -21.571   6.316  0.00  0.00    +0.004 A 
ATOM     13  C   LIG    1       26.898 -21.138   7.059  0.00  0.00    +0.000 A 
ATOM     14  C   LIG    1       27.609 -20.014   6.651  0.00  0.00    +0.000 A 
ATOM     15  C   LIG    1       27.235 -19.326   5.493  0.00  0.00    +0.007 A 
ATOM     16  C   LIG    1       26.549 -17.945   2.864  0.00  0.00    +0.287 C 
ATOM     17  C   LIG    1       23.208 -18.991   3.941  0.00  0.00    +0.099 A 
ATOM     18  N   LIG    1       25.957 -16.655   3.314  0.00  0.00    -0.113 NA
ENDROOT
BRANCH   1  19
ATOM     19  N   LIG    1       23.933 -16.069   4.229  0.00  0.00    -0.251 N 
ATOM     20  H   LIG    1       24.054 -15.925   5.224  0.00  0.00    +0.241 HD
ATOM     21  H   LIG    1       24.025 -15.203   3.708  0.00  0.00    +0.241 HD
ENDBRANCH   1  19
TORSDOF 1
ENDMDL
