MODEL 1
REMARK VINA RESULT:      -6.1      0.000      0.000
REMARK  Name = *****
REMARK                            x       y       z     vdW  Elec       q    Type
REMARK                         _______ _______ _______ _____ _____    ______ ____
ROOT
ATOM      1  C   LIG    1       25.129 -24.254   6.965  0.00  0.00    +0.122 C 
ENDROOT
BRANCH   1   2
ATOM      2  C   LIG    1       25.550 -25.753   6.794  0.00  0.00    +0.172 C 
ATOM      3  C   LIG    1       26.514 -26.015   5.609  0.00  0.00    +0.176 C 
ATOM      4  C   LIG    1       26.787 -27.518   5.444  0.00  0.00    +0.177 C 
ATOM      5  C   LIG    1       25.467 -28.292   5.368  0.00  0.00    +0.184 C 
ATOM      6  C   LIG    1       24.603 -27.990   6.605  0.00  0.00    +0.207 C 
ATOM      7  O   LIG    1       24.369 -26.565   6.654  0.00  0.00    -0.356 OA
BRANCH   3   8
ATOM      8  O   LIG    1       25.968 -25.595   4.342  0.00  0.00    -0.387 OA
ATOM      9  H   LIG    1       25.823 -24.631   4.410  0.00  0.00    +0.210 HD
ENDBRANCH   3   8
BRANCH   4  10
ATOM     10  O   LIG    1       27.504 -27.752   4.216  0.00  0.00    -0.387 OA
ATOM     11  H   LIG    1       27.165 -28.613   3.885  0.00  0.00    +0.210 HD
ENDBRANCH   4  10
BRANCH   5  12
ATOM     12  O   LIG    1       25.704 -29.681   5.135  0.00  0.00    -0.386 OA
ATOM     13  H   LIG    1       26.656 -29.742   4.911  0.00  0.00    +0.210 HD
ENDBRANCH   5  12
BRANCH   6  14
ATOM     14  S   LIG    1       25.202 -28.621   8.232  0.00  0.00    -0.131 S 
ATOM     15  C   LIG    1       24.185 -30.110   8.402  0.00  0.00    +0.087 C 
ENDBRANCH   6  14
ENDBRANCH   1   2
BRANCH   1  17
ATOM     16  C   LIG    1       26.500 -22.273   7.693  0.00  0.00    +0.231 C 
ATOM     17  N   LIG    1       26.274 -23.332   6.832  0.00  0.00    -0.307 N 
ATOM     18  H   LIG    1       26.827 -23.389   5.979  0.00  0.00    +0.149 HD
ATOM     19  O   LIG    1       25.716 -21.981   8.601  0.00  0.00    -0.274 OA
BRANCH  16  24
ATOM     20  C   LIG    1       28.909 -19.359   7.723  0.00  0.00    +0.005 C 
ATOM     21  C   LIG    1       28.965 -19.855   6.271  0.00  0.00    +0.088 C 
ATOM     22  N   LIG    1       27.847 -20.809   6.111  0.00  0.00    -0.294 NA
ATOM     23  C   LIG    1       26.605 -20.087   5.808  0.00  0.00    +0.105 C 
ATOM     24  C   LIG    1       27.815 -21.516   7.422  0.00  0.00    +0.143 C 
ATOM     25  C   LIG    1       28.176 -20.473   8.479  0.00  0.00    +0.033 C 
BRANCH  20  26
ATOM     26  C   LIG    1       30.295 -18.998   8.290  0.00  0.00    +0.004 C 
BRANCH  26  28
ATOM     27  C   LIG    1       30.311 -17.627  10.435  0.00  0.00    +0.004 C 
ATOM     28  C   LIG    1       30.341 -17.596   8.912  0.00  0.00    -0.003 C 
ENDBRANCH  26  28
ENDBRANCH  20  26
ENDBRANCH  16  24
ENDBRANCH   1  17
BRANCH   1  29
ATOM     29  C   LIG    1       23.978 -23.789   6.022  0.00  0.00    +0.100 C 
ATOM     30 CL   LIG    1       22.470 -23.378   6.915  0.00  0.00    -0.120 Cl
ATOM     31  C   LIG    1       24.346 -22.627   5.105  0.00  0.00    +0.026 C 
ENDBRANCH   1  29
TORSDOF 10
ENDMDL
MODEL 2
REMARK VINA RESULT:      -5.9      2.676      3.926
REMARK  Name = *****
REMARK                            x       y       z     vdW  Elec       q    Type
REMARK                         _______ _______ _______ _____ _____    ______ ____
ROOT
ATOM      1  C   LIG    1       25.209 -20.620   5.069  0.00  0.00    +0.122 C 
ENDROOT
BRANCH   1   2
ATOM      2  C   LIG    1       24.641 -22.074   5.215  0.00  0.00    +0.172 C 
ATOM      3  C   LIG    1       23.309 -22.162   6.002  0.00  0.00    +0.176 C 
ATOM      4  C   LIG    1       22.881 -23.626   6.195  0.00  0.00    +0.177 C 
ATOM      5  C   LIG    1       24.030 -24.438   6.803  0.00  0.00    +0.184 C 
ATOM      6  C   LIG    1       25.290 -24.310   5.929  0.00  0.00    +0.207 C 
ATOM      7  O   LIG    1       25.635 -22.911   5.836  0.00  0.00    -0.356 OA
BRANCH   3   8
ATOM      8  O   LIG    1       23.412 -21.625   7.336  0.00  0.00    -0.387 OA
ATOM      9  H   LIG    1       23.264 -20.663   7.258  0.00  0.00    +0.210 HD
ENDBRANCH   3   8
BRANCH   4  10
ATOM     10  O   LIG    1       21.768 -23.692   7.108  0.00  0.00    -0.387 OA
ATOM     11  H   LIG    1       21.072 -24.190   6.623  0.00  0.00    +0.210 HD
ENDBRANCH   4  10
BRANCH   5  12
ATOM     12  O   LIG    1       23.621 -25.781   7.063  0.00  0.00    -0.386 OA
ATOM     13  H   LIG    1       24.424 -26.324   6.921  0.00  0.00    +0.210 HD
ENDBRANCH   5  12
BRANCH   6  14
ATOM     14  S   LIG    1       25.246 -25.095   4.260  0.00  0.00    -0.131 S 
ATOM     15  C   LIG    1       25.863 -26.752   4.659  0.00  0.00    +0.087 C 
ENDBRANCH   6  14
ENDBRANCH   1   2
BRANCH   1  17
ATOM     16  C   LIG    1       26.868 -20.320   6.937  0.00  0.00    +0.231 C 
ATOM     17  N   LIG    1       26.582 -20.500   5.595  0.00  0.00    -0.307 N 
ATOM     18  H   LIG    1       27.336 -20.389   4.919  0.00  0.00    +0.149 HD
ATOM     19  O   LIG    1       25.984 -20.179   7.787  0.00  0.00    -0.274 OA
BRANCH  16  24
ATOM     20  C   LIG    1       30.184 -18.943   8.122  0.00  0.00    +0.005 C 
ATOM     21  C   LIG    1       30.530 -19.603   6.779  0.00  0.00    +0.088 C 
ATOM     22  N   LIG    1       29.243 -19.917   6.124  0.00  0.00    -0.294 NA
ATOM     23  C   LIG    1       28.740 -18.741   5.406  0.00  0.00    +0.105 C 
ATOM     24  C   LIG    1       28.375 -20.331   7.262  0.00  0.00    +0.143 C 
ATOM     25  C   LIG    1       28.775 -19.451   8.446  0.00  0.00    +0.033 C 
BRANCH  20  26
ATOM     26  C   LIG    1       31.235 -19.213   9.214  0.00  0.00    +0.004 C 
BRANCH  26  28
ATOM     27  C   LIG    1       30.559 -17.276  10.723  0.00  0.00    +0.004 C 
ATOM     28  C   LIG    1       31.686 -17.938   9.940  0.00  0.00    -0.003 C 
ENDBRANCH  26  28
ENDBRANCH  20  26
ENDBRANCH  16  24
ENDBRANCH   1  17
BRANCH   1  29
ATOM     29  C   LIG    1       25.156 -20.042   3.623  0.00  0.00    +0.100 C 
ATOM     30 CL   LIG    1       23.705 -20.587   2.708  0.00  0.00    -0.120 Cl
ATOM     31  C   LIG    1       25.248 -18.522   3.549  0.00  0.00    +0.026 C 
ENDBRANCH   1  29
TORSDOF 10
ENDMDL
MODEL 3
REMARK VINA RESULT:      -5.9      5.292      7.948
REMARK  Name = *****
REMARK                            x       y       z     vdW  Elec       q    Type
REMARK                         _______ _______ _______ _____ _____    ______ ____
ROOT
ATOM      1  C   LIG    1       25.629 -30.990   8.922  0.00  0.00    +0.122 C 
ENDROOT
BRANCH   1   2
ATOM      2  C   LIG    1       25.432 -30.613  10.431  0.00  0.00    +0.172 C 
ATOM      3  C   LIG    1       23.995 -30.841  10.963  0.00  0.00    +0.176 C 
ATOM      4  C   LIG    1       23.860 -30.343  12.411  0.00  0.00    +0.177 C 
ATOM      5  C   LIG    1       24.354 -28.897  12.523  0.00  0.00    +0.184 C 
ATOM      6  C   LIG    1       25.798 -28.788  12.003  0.00  0.00    +0.207 C 
ATOM      7  O   LIG    1       25.818 -29.240  10.631  0.00  0.00    -0.356 OA
BRANCH   3   8
ATOM      8  O   LIG    1       23.002 -30.103  10.222  0.00  0.00    -0.387 OA
ATOM      9  H   LIG    1       23.485 -29.604   9.535  0.00  0.00    +0.210 HD
ENDBRANCH   3   8
BRANCH   4  10
ATOM     10  O   LIG    1       22.474 -30.365  12.807  0.00  0.00    -0.387 OA
ATOM     11  H   LIG    1       22.103 -29.518  12.476  0.00  0.00    +0.210 HD
ENDBRANCH   4  10
BRANCH   5  12
ATOM     12  O   LIG    1       24.160 -28.395  13.846  0.00  0.00    -0.386 OA
ATOM     13  H   LIG    1       24.496 -29.100  14.437  0.00  0.00    +0.210 HD
ENDBRANCH   5  12
BRANCH   6  14
ATOM     14  S   LIG    1       27.120 -29.612  12.992  0.00  0.00    -0.131 S 
ATOM     15  C   LIG    1       28.539 -29.401  11.886  0.00  0.00    +0.087 C 
ENDBRANCH   6  14
ENDBRANCH   1   2
BRANCH   1  17
ATOM     16  C   LIG    1       24.903 -29.086   7.445  0.00  0.00    +0.231 C 
ATOM     17  N   LIG    1       25.898 -29.807   8.081  0.00  0.00    -0.307 N 
ATOM     18  H   LIG    1       26.868 -29.616   7.835  0.00  0.00    +0.149 HD
ATOM     19  O   LIG    1       23.716 -29.422   7.484  0.00  0.00    -0.274 OA
BRANCH  16  24
ATOM     20  C   LIG    1       24.709 -26.028   5.230  0.00  0.00    +0.005 C 
ATOM     21  C   LIG    1       25.958 -26.760   4.719  0.00  0.00    +0.088 C 
ATOM     22  N   LIG    1       25.942 -28.100   5.345  0.00  0.00    -0.294 NA
ATOM     23  C   LIG    1       25.098 -29.013   4.565  0.00  0.00    +0.105 C 
ATOM     24  C   LIG    1       25.414 -27.830   6.712  0.00  0.00    +0.143 C 
ATOM     25  C   LIG    1       24.376 -26.719   6.556  0.00  0.00    +0.033 C 
BRANCH  20  26
ATOM     26  C   LIG    1       24.902 -24.503   5.328  0.00  0.00    +0.004 C 
BRANCH  26  28
ATOM     27  C   LIG    1       23.352 -23.111   6.792  0.00  0.00    +0.004 C 
ATOM     28  C   LIG    1       24.622 -23.952   6.732  0.00  0.00    -0.003 C 
ENDBRANCH  26  28
ENDBRANCH  20  26
ENDBRANCH  16  24
ENDBRANCH   1  17
BRANCH   1  29
ATOM     29  C   LIG    1       26.718 -32.073   8.657  0.00  0.00    +0.100 C 
ATOM     30 CL   LIG    1       26.368 -33.630   9.490  0.00  0.00    -0.120 Cl
ATOM     31  C   LIG    1       26.987 -32.347   7.182  0.00  0.00    +0.026 C 
ENDBRANCH   1  29
TORSDOF 10
ENDMDL
MODEL 4
REMARK VINA RESULT:      -5.8      4.884      7.453
REMARK  Name = *****
REMARK                            x       y       z     vdW  Elec       q    Type
REMARK                         _______ _______ _______ _____ _____    ______ ____
ROOT
ATOM      1  C   LIG    1       24.808 -30.649   7.696  0.00  0.00    +0.122 C 
ENDROOT
BRANCH   1   2
ATOM      2  C   LIG    1       24.715 -31.057   9.206  0.00  0.00    +0.172 C 
ATOM      3  C   LIG    1       23.714 -32.204   9.496  0.00  0.00    +0.176 C 
ATOM      4  C   LIG    1       23.600 -32.465  11.006  0.00  0.00    +0.177 C 
ATOM      5  C   LIG    1       23.298 -31.159  11.749  0.00  0.00    +0.184 C 
ATOM      6  C   LIG    1       24.366 -30.102  11.420  0.00  0.00    +0.207 C 
ATOM      7  O   LIG    1       24.373 -29.898   9.990  0.00  0.00    -0.356 OA
BRANCH   3   8
ATOM      8  O   LIG    1       22.372 -31.896   9.070  0.00  0.00    -0.387 OA
ATOM      9  H   LIG    1       22.450 -31.179   8.410  0.00  0.00    +0.210 HD
ENDBRANCH   3   8
BRANCH   4  10
ATOM     10  O   LIG    1       22.515 -33.377  11.264  0.00  0.00    -0.387 OA
ATOM     11  H   LIG    1       22.608 -33.621  12.211  0.00  0.00    +0.210 HD
ENDBRANCH   4  10
BRANCH   5  12
ATOM     12  O   LIG    1       23.110 -31.399  13.144  0.00  0.00    -0.386 OA
ATOM     13  H   LIG    1       22.799 -30.546  13.509  0.00  0.00    +0.210 HD
ENDBRANCH   5  12
BRANCH   6  14
ATOM     14  S   LIG    1       26.073 -30.396  12.057  0.00  0.00    -0.131 S 
ATOM     15  C   LIG    1       26.929 -28.948  11.383  0.00  0.00    +0.087 C 
ENDBRANCH   6  14
ENDBRANCH   1   2
BRANCH   1  17
ATOM     16  C   LIG    1       24.498 -28.423   6.564  0.00  0.00    +0.231 C 
ATOM     17  N   LIG    1       25.108 -29.215   7.521  0.00  0.00    -0.307 N 
ATOM     18  H   LIG    1       25.910 -28.838   8.023  0.00  0.00    +0.149 HD
ATOM     19  O   LIG    1       23.703 -28.880   5.738  0.00  0.00    -0.274 OA
BRANCH  16  24
ATOM     20  C   LIG    1       24.979 -24.880   5.333  0.00  0.00    +0.005 C 
ATOM     21  C   LIG    1       26.316 -25.207   6.014  0.00  0.00    +0.088 C 
ATOM     22  N   LIG    1       26.309 -26.662   6.273  0.00  0.00    -0.294 NA
ATOM     23  C   LIG    1       26.749 -27.391   5.078  0.00  0.00    +0.105 C 
ATOM     24  C   LIG    1       24.891 -26.935   6.642  0.00  0.00    +0.143 C 
ATOM     25  C   LIG    1       24.039 -26.007   5.776  0.00  0.00    +0.033 C 
BRANCH  20  26
ATOM     26  C   LIG    1       24.475 -23.459   5.645  0.00  0.00    +0.004 C 
BRANCH  26  28
ATOM     27  C   LIG    1       23.214 -22.031   7.336  0.00  0.00    +0.004 C 
ATOM     28  C   LIG    1       23.423 -23.428   6.762  0.00  0.00    -0.003 C 
ENDBRANCH  26  28
ENDBRANCH  20  26
ENDBRANCH  16  24
ENDBRANCH   1  17
BRANCH   1  29
ATOM     29  C   LIG    1       25.811 -31.494   6.853  0.00  0.00    +0.100 C 
ATOM     30 CL   LIG    1       26.998 -32.385   7.872  0.00  0.00    -0.120 Cl
ATOM     31  C   LIG    1       25.153 -32.472   5.886  0.00  0.00    +0.026 C 
ENDBRANCH   1  29
TORSDOF 10
ENDMDL
MODEL 5
REMARK VINA RESULT:      -5.8      4.896      7.942
REMARK  Name = *****
REMARK                            x       y       z     vdW  Elec       q    Type
REMARK                         _______ _______ _______ _____ _____    ______ ____
ROOT
ATOM      1  C   LIG    1       25.588 -30.737   9.445  0.00  0.00    +0.122 C 
ENDROOT
BRANCH   1   2
ATOM      2  C   LIG    1       25.662 -30.229  10.926  0.00  0.00    +0.172 C 
ATOM      3  C   LIG    1       26.529 -28.959  11.122  0.00  0.00    +0.176 C 
ATOM      4  C   LIG    1       26.640 -28.595  12.612  0.00  0.00    +0.177 C 
ATOM      5  C   LIG    1       27.105 -29.810  13.421  0.00  0.00    +0.184 C 
ATOM      6  C   LIG    1       26.160 -31.001  13.182  0.00  0.00    +0.207 C 
ATOM      7  O   LIG    1       26.150 -31.291  11.767  0.00  0.00    -0.356 OA
BRANCH   3   8
ATOM      8  O   LIG    1       27.890 -29.138  10.681  0.00  0.00    -0.387 OA
ATOM      9  H   LIG    1       27.878 -29.051   9.708  0.00  0.00    +0.210 HD
ENDBRANCH   3   8
BRANCH   4  10
ATOM     10  O   LIG    1       27.618 -27.552  12.787  0.00  0.00    -0.387 OA
ATOM     11  H   LIG    1       27.874 -27.289  11.877  0.00  0.00    +0.210 HD
ENDBRANCH   4  10
BRANCH   5  12
ATOM     12  O   LIG    1       27.290 -29.465  14.795  0.00  0.00    -0.386 OA
ATOM     13  H   LIG    1       26.486 -29.791  15.249  0.00  0.00    +0.210 HD
ENDBRANCH   5  12
BRANCH   6  14
ATOM     14  S   LIG    1       24.443 -30.865  13.844  0.00  0.00    -0.131 S 
ATOM     15  C   LIG    1       23.723 -32.401  13.206  0.00  0.00    +0.087 C 
ENDBRANCH   6  14
ENDBRANCH   1   2
BRANCH   1  17
ATOM     16  C   LIG    1       24.922 -29.052   7.698  0.00  0.00    +0.231 C 
ATOM     17  N   LIG    1       25.889 -29.669   8.471  0.00  0.00    -0.307 N 
ATOM     18  H   LIG    1       26.869 -29.495   8.253  0.00  0.00    +0.149 HD
ATOM     19  O   LIG    1       23.738 -29.400   7.719  0.00  0.00    -0.274 OA
BRANCH  16  24
ATOM     20  C   LIG    1       24.786 -26.237   5.177  0.00  0.00    +0.005 C 
ATOM     21  C   LIG    1       26.011 -27.051   4.738  0.00  0.00    +0.088 C 
ATOM     22  N   LIG    1       25.966 -28.318   5.500  0.00  0.00    -0.294 NA
ATOM     23  C   LIG    1       25.092 -29.284   4.824  0.00  0.00    +0.105 C 
ATOM     24  C   LIG    1       25.458 -27.893   6.834  0.00  0.00    +0.143 C 
ATOM     25  C   LIG    1       24.447 -26.778   6.571  0.00  0.00    +0.033 C 
BRANCH  20  26
ATOM     26  C   LIG    1       25.019 -24.716   5.114  0.00  0.00    +0.004 C 
BRANCH  26  28
ATOM     27  C   LIG    1       25.912 -23.537   7.187  0.00  0.00    +0.004 C 
ATOM     28  C   LIG    1       24.675 -24.002   6.428  0.00  0.00    -0.003 C 
ENDBRANCH  26  28
ENDBRANCH  20  26
ENDBRANCH  16  24
ENDBRANCH   1  17
BRANCH   1  29
ATOM     29  C   LIG    1       26.474 -31.982   9.138  0.00  0.00    +0.100 C 
ATOM     30 CL   LIG    1       25.698 -33.527   9.638  0.00  0.00    -0.120 Cl
ATOM     31  C   LIG    1       26.916 -32.096   7.683  0.00  0.00    +0.026 C 
ENDBRANCH   1  29
TORSDOF 10
ENDMDL
MODEL 6
REMARK VINA RESULT:      -5.7      3.503      8.893
REMARK  Name = *****
REMARK                            x       y       z     vdW  Elec       q    Type
REMARK                         _______ _______ _______ _____ _____    ______ ____
ROOT
ATOM      1  C   LIG    1       26.101 -26.597   6.626  0.00  0.00    +0.122 C 
ENDROOT
BRANCH   1   2
ATOM      2  C   LIG    1       25.416 -25.218   6.920  0.00  0.00    +0.172 C 
ATOM      3  C   LIG    1       23.890 -25.193   6.651  0.00  0.00    +0.176 C 
ATOM      4  C   LIG    1       23.320 -23.780   6.856  0.00  0.00    +0.177 C 
ATOM      5  C   LIG    1       24.123 -22.760   6.041  0.00  0.00    +0.184 C 
ATOM      6  C   LIG    1       25.614 -22.844   6.409  0.00  0.00    +0.207 C 
ATOM      7  O   LIG    1       26.068 -24.191   6.149  0.00  0.00    -0.356 OA
BRANCH   3   8
ATOM      8  O   LIG    1       23.558 -25.534   5.290  0.00  0.00    -0.387 OA
ATOM      9  H   LIG    1       22.852 -26.207   5.339  0.00  0.00    +0.210 HD
ENDBRANCH   3   8
BRANCH   4  10
ATOM     10  O   LIG    1       21.956 -23.733   6.393  0.00  0.00    -0.387 OA
ATOM     11  H   LIG    1       21.782 -24.627   6.024  0.00  0.00    +0.210 HD
ENDBRANCH   4  10
BRANCH   5  12
ATOM     12  O   LIG    1       23.555 -21.456   6.159  0.00  0.00    -0.386 OA
ATOM     13  H   LIG    1       24.313 -20.841   6.086  0.00  0.00    +0.210 HD
ENDBRANCH   5  12
BRANCH   6  14
ATOM     14  S   LIG    1       26.102 -22.295   8.102  0.00  0.00    -0.131 S 
ATOM     15  C   LIG    1       26.567 -20.576   7.769  0.00  0.00    +0.087 C 
ENDBRANCH   6  14
ENDBRANCH   1   2
BRANCH   1  17
ATOM     16  C   LIG    1       25.411 -28.556   8.046  0.00  0.00    +0.231 C 
ATOM     17  N   LIG    1       25.221 -27.738   6.947  0.00  0.00    -0.307 N 
ATOM     18  H   LIG    1       24.545 -28.023   6.242  0.00  0.00    +0.149 HD
ATOM     19  O   LIG    1       26.377 -28.430   8.805  0.00  0.00    -0.274 OA
BRANCH  16  24
ATOM     20  C   LIG    1       23.716 -31.592   9.532  0.00  0.00    +0.005 C 
ATOM     21  C   LIG    1       23.585 -31.814   8.019  0.00  0.00    +0.088 C 
ATOM     22  N   LIG    1       24.464 -30.817   7.372  0.00  0.00    -0.294 NA
ATOM     23  C   LIG    1       25.843 -31.318   7.318  0.00  0.00    +0.105 C 
ATOM     24  C   LIG    1       24.306 -29.614   8.236  0.00  0.00    +0.143 C 
ATOM     25  C   LIG    1       24.162 -30.132   9.667  0.00  0.00    +0.033 C 
BRANCH  20  26
ATOM     26  C   LIG    1       22.433 -31.949  10.307  0.00  0.00    +0.004 C 
BRANCH  26  28
ATOM     27  C   LIG    1       20.129 -30.889  10.531  0.00  0.00    +0.004 C 
ATOM     28  C   LIG    1       21.629 -30.714  10.735  0.00  0.00    -0.003 C 
ENDBRANCH  26  28
ENDBRANCH  20  26
ENDBRANCH  16  24
ENDBRANCH   1  17
BRANCH   1  29
ATOM     29  C   LIG    1       26.648 -26.757   5.175  0.00  0.00    +0.100 C 
ATOM     30 CL   LIG    1       28.422 -27.055   5.130  0.00  0.00    -0.120 Cl
ATOM     31  C   LIG    1       25.942 -27.828   4.351  0.00  0.00    +0.026 C 
ENDBRANCH   1  29
TORSDOF 10
ENDMDL
MODEL 7
REMARK VINA RESULT:      -5.5      6.505      9.453
REMARK  Name = *****
REMARK                            x       y       z     vdW  Elec       q    Type
REMARK                         _______ _______ _______ _____ _____    ______ ____
ROOT
ATOM      1  C   LIG    1       25.216 -30.198  12.033  0.00  0.00    +0.122 C 
ENDROOT
BRANCH   1   2
ATOM      2  C   LIG    1       23.889 -29.664  12.674  0.00  0.00    +0.172 C 
ATOM      3  C   LIG    1       22.600 -30.297  12.091  0.00  0.00    +0.176 C 
ATOM      4  C   LIG    1       21.346 -29.640  12.691  0.00  0.00    +0.177 C 
ATOM      5  C   LIG    1       21.424 -28.116  12.546  0.00  0.00    +0.184 C 
ATOM      6  C   LIG    1       22.721 -27.589  13.185  0.00  0.00    +0.207 C 
ATOM      7  O   LIG    1       23.839 -28.231  12.535  0.00  0.00    -0.356 OA
BRANCH   3   8
ATOM      8  O   LIG    1       22.476 -30.102  10.668  0.00  0.00    -0.387 OA
ATOM      9  H   LIG    1       22.058 -30.911  10.314  0.00  0.00    +0.210 HD
ENDBRANCH   3   8
BRANCH   4  10
ATOM     10  O   LIG    1       20.174 -30.087  11.982  0.00  0.00    -0.387 OA
ATOM     11  H   LIG    1       19.956 -29.356  11.364  0.00  0.00    +0.210 HD
ENDBRANCH   4  10
BRANCH   5  12
ATOM     12  O   LIG    1       20.231 -27.498  13.027  0.00  0.00    -0.386 OA
ATOM     13  H   LIG    1       19.679 -27.356  12.231  0.00  0.00    +0.210 HD
ENDBRANCH   5  12
BRANCH   6  14
ATOM     14  S   LIG    1       22.866 -27.702  15.021  0.00  0.00    -0.131 S 
ATOM     15  C   LIG    1       24.272 -26.596  15.309  0.00  0.00    +0.087 C 
ENDBRANCH   6  14
ENDBRANCH   1   2
BRANCH   1  17
ATOM     16  C   LIG    1       25.890 -30.802   9.685  0.00  0.00    +0.231 C 
ATOM     17  N   LIG    1       25.278 -29.944  10.581  0.00  0.00    -0.307 N 
ATOM     18  H   LIG    1       24.995 -29.022  10.253  0.00  0.00    +0.149 HD
ATOM     19  O   LIG    1       26.491 -31.818  10.049  0.00  0.00    -0.274 OA
BRANCH  16  24
ATOM     20  C   LIG    1       24.265 -29.185   6.678  0.00  0.00    +0.005 C 
ATOM     21  C   LIG    1       24.627 -30.591   6.177  0.00  0.00    +0.088 C 
ATOM     22  N   LIG    1       25.010 -31.375   7.371  0.00  0.00    -0.294 NA
ATOM     23  C   LIG    1       23.814 -31.924   8.020  0.00  0.00    +0.105 C 
ATOM     24  C   LIG    1       25.736 -30.382   8.211  0.00  0.00    +0.143 C 
ATOM     25  C   LIG    1       25.023 -29.045   8.003  0.00  0.00    +0.033 C 
BRANCH  20  26
ATOM     26  C   LIG    1       24.561 -28.082   5.646  0.00  0.00    +0.004 C 
BRANCH  26  28
ATOM     27  C   LIG    1       24.106 -25.614   6.075  0.00  0.00    +0.004 C 
ATOM     28  C   LIG    1       25.063 -26.781   6.286  0.00  0.00    -0.003 C 
ENDBRANCH  26  28
ENDBRANCH  20  26
ENDBRANCH  16  24
ENDBRANCH   1  17
BRANCH   1  29
ATOM     29  C   LIG    1       26.521 -29.677  12.707  0.00  0.00    +0.100 C 
ATOM     30 CL   LIG    1       27.123 -28.150  11.969  0.00  0.00    -0.120 Cl
ATOM     31  C   LIG    1       26.419 -29.493  14.217  0.00  0.00    +0.026 C 
ENDBRANCH   1  29
TORSDOF 10
ENDMDL
MODEL 8
REMARK VINA RESULT:      -5.5      6.539      9.511
REMARK  Name = *****
REMARK                            x       y       z     vdW  Elec       q    Type
REMARK                         _______ _______ _______ _____ _____    ______ ____
ROOT
ATOM      1  C   LIG    1       24.289 -31.338  11.214  0.00  0.00    +0.122 C 
ENDROOT
BRANCH   1   2
ATOM      2  C   LIG    1       22.746 -31.434  11.473  0.00  0.00    +0.172 C 
ATOM      3  C   LIG    1       21.996 -32.389  10.510  0.00  0.00    +0.176 C 
ATOM      4  C   LIG    1       20.480 -32.340  10.758  0.00  0.00    +0.177 C 
ATOM      5  C   LIG    1       19.984 -30.891  10.724  0.00  0.00    +0.184 C 
ATOM      6  C   LIG    1       20.767 -30.038  11.737  0.00  0.00    +0.207 C 
ATOM      7  O   LIG    1       22.170 -30.116  11.403  0.00  0.00    -0.356 OA
BRANCH   3   8
ATOM      8  O   LIG    1       22.158 -32.026   9.124  0.00  0.00    -0.387 OA
ATOM      9  H   LIG    1       22.177 -31.050   9.096  0.00  0.00    +0.210 HD
ENDBRANCH   3   8
BRANCH   4  10
ATOM     10  O   LIG    1       19.792 -33.063   9.719  0.00  0.00    -0.387 OA
ATOM     11  H   LIG    1       19.903 -34.010   9.952  0.00  0.00    +0.210 HD
ENDBRANCH   4  10
BRANCH   5  12
ATOM     12  O   LIG    1       18.565 -30.836  10.873  0.00  0.00    -0.386 OA
ATOM     13  H   LIG    1       18.403 -30.988  11.827  0.00  0.00    +0.210 HD
ENDBRANCH   5  12
BRANCH   6  14
ATOM     14  S   LIG    1       20.492 -30.385  13.529  0.00  0.00    -0.131 S 
ATOM     15  C   LIG    1       19.525 -28.927  14.001  0.00  0.00    +0.087 C 
ENDBRANCH   6  14
ENDBRANCH   1   2
BRANCH   1  17
ATOM     16  C   LIG    1       25.624 -31.114   9.092  0.00  0.00    +0.231 C 
ATOM     17  N   LIG    1       24.600 -30.693   9.923  0.00  0.00    -0.307 N 
ATOM     18  H   LIG    1       24.141 -29.808   9.717  0.00  0.00    +0.149 HD
ATOM     19  O   LIG    1       26.398 -32.023   9.406  0.00  0.00    -0.274 OA
BRANCH  16  24
ATOM     20  C   LIG    1       24.304 -29.270   6.066  0.00  0.00    +0.005 C 
ATOM     21  C   LIG    1       25.268 -30.301   5.464  0.00  0.00    +0.088 C 
ATOM     22  N   LIG    1       25.610 -31.241   6.554  0.00  0.00    -0.294 NA
ATOM     23  C   LIG    1       24.580 -32.281   6.665  0.00  0.00    +0.105 C 
ATOM     24  C   LIG    1       25.690 -30.358   7.751  0.00  0.00    +0.143 C 
ATOM     25  C   LIG    1       24.609 -29.292   7.568  0.00  0.00    +0.033 C 
BRANCH  20  26
ATOM     26  C   LIG    1       24.416 -27.883   5.406  0.00  0.00    +0.004 C 
BRANCH  26  28
ATOM     27  C   LIG    1       24.074 -25.479   6.172  0.00  0.00    +0.004 C 
ATOM     28  C   LIG    1       24.833 -26.782   6.390  0.00  0.00    -0.003 C 
ENDBRANCH  26  28
ENDBRANCH  20  26
ENDBRANCH  16  24
ENDBRANCH   1  17
BRANCH   1  29
ATOM     29  C   LIG    1       25.098 -30.641  12.349  0.00  0.00    +0.100 C 
ATOM     30 CL   LIG    1       25.270 -28.868  12.094  0.00  0.00    -0.120 Cl
ATOM     31  C   LIG    1       24.557 -30.892  13.752  0.00  0.00    +0.026 C 
ENDBRANCH   1  29
TORSDOF 10
ENDMDL
MODEL 9
REMARK VINA RESULT:      -5.4      3.253      7.932
REMARK  Name = *****
REMARK                            x       y       z     vdW  Elec       q    Type
REMARK                         _______ _______ _______ _____ _____    ______ ____
ROOT
ATOM      1  C   LIG    1       26.237 -21.431   6.079  0.00  0.00    +0.122 C 
ENDROOT
BRANCH   1   2
ATOM      2  C   LIG    1       27.665 -21.032   6.587  0.00  0.00    +0.172 C 
ATOM      3  C   LIG    1       28.217 -21.938   7.717  0.00  0.00    +0.176 C 
ATOM      4  C   LIG    1       29.566 -21.414   8.232  0.00  0.00    +0.177 C 
ATOM      5  C   LIG    1       29.450 -19.933   8.610  0.00  0.00    +0.184 C 
ATOM      6  C   LIG    1       28.929 -19.120   7.413  0.00  0.00    +0.207 C 
ATOM      7  O   LIG    1       27.647 -19.660   7.025  0.00  0.00    -0.356 OA
BRANCH   3   8
ATOM      8  O   LIG    1       27.361 -21.968   8.877  0.00  0.00    -0.387 OA
ATOM      9  H   LIG    1       26.463 -21.748   8.562  0.00  0.00    +0.210 HD
ENDBRANCH   3   8
BRANCH   4  10
ATOM     10  O   LIG    1       29.951 -22.139   9.417  0.00  0.00    -0.387 OA
ATOM     11  H   LIG    1       30.310 -21.457  10.026  0.00  0.00    +0.210 HD
ENDBRANCH   4  10
BRANCH   5  12
ATOM     12  O   LIG    1       30.675 -19.453   9.166  0.00  0.00    -0.386 OA
ATOM     13  H   LIG    1       30.443 -19.148  10.067  0.00  0.00    +0.210 HD
ENDBRANCH   5  12
BRANCH   6  14
ATOM     14  S   LIG    1       30.046 -18.949   5.954  0.00  0.00    -0.131 S 
ATOM     15  C   LIG    1       29.029 -17.899   4.883  0.00  0.00    +0.087 C 
ENDBRANCH   6  14
ENDBRANCH   1   2
BRANCH   1  17
ATOM     16  C   LIG    1       25.040 -23.625   5.784  0.00  0.00    +0.231 C 
ATOM     17  N   LIG    1       25.838 -22.778   6.532  0.00  0.00    -0.307 N 
ATOM     18  H   LIG    1       26.031 -23.023   7.501  0.00  0.00    +0.149 HD
ATOM     19  O   LIG    1       24.546 -23.285   4.705  0.00  0.00    -0.274 OA
BRANCH  16  24
ATOM     20  C   LIG    1       26.028 -27.074   6.978  0.00  0.00    +0.005 C 
ATOM     21  C   LIG    1       24.751 -27.329   6.166  0.00  0.00    +0.088 C 
ATOM     22  N   LIG    1       24.461 -26.075   5.437  0.00  0.00    -0.294 NA
ATOM     23  C   LIG    1       25.233 -26.025   4.190  0.00  0.00    +0.105 C 
ATOM     24  C   LIG    1       24.846 -25.018   6.413  0.00  0.00    +0.143 C 
ATOM     25  C   LIG    1       26.067 -25.553   7.161  0.00  0.00    +0.033 C 
BRANCH  20  26
ATOM     26  C   LIG    1       26.082 -27.883   8.286  0.00  0.00    +0.004 C 
BRANCH  26  28
ATOM     27  C   LIG    1       24.673 -29.749   9.296  0.00  0.00    +0.004 C 
ATOM     28  C   LIG    1       25.551 -29.314   8.128  0.00  0.00    -0.003 C 
ENDBRANCH  26  28
ENDBRANCH  20  26
ENDBRANCH  16  24
ENDBRANCH   1  17
BRANCH   1  29
ATOM     29  C   LIG    1       25.112 -20.411   6.430  0.00  0.00    +0.100 C 
ATOM     30 CL   LIG    1       24.061 -20.023   5.022  0.00  0.00    -0.120 Cl
ATOM     31  C   LIG    1       24.235 -20.823   7.607  0.00  0.00    +0.026 C 
ENDBRANCH   1  29
TORSDOF 10
ENDMDL
