MODEL 1
REMARK VINA RESULT:      47.0      0.000      0.000
REMARK  Name = *****
REMARK                            x       y       z     vdW  Elec       q    Type
REMARK                         _______ _______ _______ _____ _____    ______ ____
ROOT
ATOM      1  C   LIG    1       24.819 -33.822  15.146  0.00  0.00    +0.014 C 
ATOM      2  C   LIG    1       24.446 -32.862  14.010  0.00  0.00    +0.037 C 
ATOM      3  C   LIG    1       23.893 -31.512  14.588  0.00  0.00    +0.127 C 
ATOM      4  C   LIG    1       22.349 -31.359  14.480  0.00  0.00    +0.056 C 
ATOM      5  C   LIG    1       21.599 -32.575  15.052  0.00  0.00    +0.014 C 
ATOM      6  C   LIG    1       21.741 -30.073  15.133  0.00  0.00    +0.179 C 
ATOM      7  C   LIG    1       22.686 -28.933  15.499  0.00  0.00    +0.052 C 
ATOM      8  O   LIG    1       20.804 -29.508  14.179  0.00  0.00    -0.461 OA
ATOM      9  C   LIG    1       19.478 -29.704  14.389  0.00  0.00    +0.310 C 
ATOM     10  O   LIG    1       18.982 -30.329  15.316  0.00  0.00    -0.251 OA
ATOM     11  C   LIG    1       18.675 -29.083  13.274  0.00  0.00    +0.152 C 
ATOM     12  C   LIG    1       18.136 -27.694  13.606  0.00  0.00    +0.128 C 
ATOM     13  C   LIG    1       19.184 -26.586  13.821  0.00  0.00    +0.063 C 
ATOM     14  C   LIG    1       19.442 -25.711  12.580  0.00  0.00    +0.119 C 
ATOM     15  C   LIG    1       20.259 -26.374  11.462  0.00  0.00    +0.062 C 
ATOM     16  C   LIG    1       21.782 -26.187  11.538  0.00  0.00    +0.117 C 
ATOM     17  C   LIG    1       22.539 -27.188  10.649  0.00  0.00    +0.034 C 
ATOM     18  C   LIG    1       22.742 -28.571  11.282  0.00  0.00    +0.036 C 
ATOM     19  C   LIG    1       23.327 -29.653  10.355  0.00  0.00    +0.143 C 
ATOM     20  C   LIG    1       24.667 -29.346   9.643  0.00  0.00    +0.150 C 
ATOM     21  C   LIG    1       25.738 -28.757  10.555  0.00  0.00    +0.108 C 
ATOM     22  C   LIG    1       27.082 -28.738   9.861  0.00  0.00    +0.138 C 
ATOM     23  O   LIG    1       27.658 -29.797   9.598  0.00  0.00    -0.297 OA
ATOM     24  C   LIG    1       27.745 -27.396   9.575  0.00  0.00    +0.106 C 
ATOM     25  C   LIG    1       27.132 -26.541   8.453  0.00  0.00    +0.138 C 
ATOM     26  C   LIG    1       25.956 -25.627   8.850  0.00  0.00    +0.155 C 
ATOM     27  C   LIG    1       25.407 -24.704   7.722  0.00  0.00    +0.134 C 
ATOM     28  C   LIG    1       23.852 -24.635   7.744  0.00  0.00    +0.068 C 
ATOM     29  C   LIG    1       23.078 -24.991   6.454  0.00  0.00    +0.147 C 
ATOM     30  C   LIG    1       23.314 -26.448   6.117  0.00  0.00    +0.004 C 
ATOM     31  C   LIG    1       23.863 -26.938   4.991  0.00  0.00    -0.002 C 
ATOM     32  C   LIG    1       24.435 -28.265   4.890  0.00  0.00    -0.000 C 
ATOM     33  C   LIG    1       23.994 -29.374   5.500  0.00  0.00    +0.000 C 
ATOM     34  C   LIG    1       24.820 -30.558   5.594  0.00  0.00    +0.000 C 
ATOM     35  C   LIG    1       24.511 -31.607   6.369  0.00  0.00    -0.000 C 
ATOM     36  C   LIG    1       25.413 -32.708   6.622  0.00  0.00    -0.004 C 
ATOM     37  C   LIG    1       26.669 -32.536   7.068  0.00  0.00    -0.026 C 
ATOM     38  C   LIG    1       27.610 -33.658   7.408  0.00  0.00    +0.031 C 
ATOM     39  C   LIG    1       28.086 -33.630   8.868  0.00  0.00    +0.031 C 
ATOM     40  C   LIG    1       26.967 -33.824   9.856  0.00  0.00    -0.026 C 
ATOM     41  C   LIG    1       26.823 -33.094  10.973  0.00  0.00    -0.005 C 
ATOM     42  C   LIG    1       25.716 -33.279  11.879  0.00  0.00    -0.004 C 
ATOM     43  C   LIG    1       25.645 -32.705  13.090  0.00  0.00    -0.021 C 
ENDROOT
BRANCH   3  44
ATOM     44  O   LIG    1       24.488 -30.410  13.889  0.00  0.00    -0.391 OA
ATOM     45  H   LIG    1       25.348 -30.724  13.562  0.00  0.00    +0.210 HD
ENDBRANCH   3  44
BRANCH  12  46
ATOM     46  O   LIG    1       17.321 -27.754  14.782  0.00  0.00    -0.391 OA
ATOM     47  H   LIG    1       16.384 -27.789  14.523  0.00  0.00    +0.210 HD
ENDBRANCH  12  46
BRANCH  14  48
ATOM     48  O   LIG    1       20.083 -24.502  12.992  0.00  0.00    -0.392 OA
ATOM     49  H   LIG    1       20.494 -24.133  12.183  0.00  0.00    +0.210 HD
ENDBRANCH  14  48
BRANCH  16  50
ATOM     50  O   LIG    1       22.246 -26.254  12.883  0.00  0.00    -0.392 OA
ATOM     51  H   LIG    1       23.048 -25.702  12.937  0.00  0.00    +0.210 HD
ENDBRANCH  16  50
BRANCH  19  52
ATOM     52  O   LIG    1       22.342 -29.950   9.353  0.00  0.00    -0.389 OA
ATOM     53  H   LIG    1       22.663 -29.487   8.551  0.00  0.00    +0.210 HD
ENDBRANCH  19  52
BRANCH  20  54
ATOM     54  O   LIG    1       24.373 -28.440   8.573  0.00  0.00    -0.389 OA
ATOM     55  H   LIG    1       24.751 -27.563   8.824  0.00  0.00    +0.210 HD
ENDBRANCH  20  54
BRANCH  25  56
ATOM     56  O   LIG    1       26.707 -27.423   7.406  0.00  0.00    -0.391 OA
ATOM     57  H   LIG    1       26.481 -26.829   6.651  0.00  0.00    +0.210 HD
ENDBRANCH  25  56
BRANCH  26  58
ATOM     58  C   LIG    1       26.253 -24.771  10.054  0.00  0.00    +0.313 C 
ATOM     59  O   LIG    1       26.257 -23.552  10.059  0.00  0.00    -0.251 OA
BRANCH  58  60
ATOM     60  O   LIG    1       26.569 -25.465  11.159  0.00  0.00    -0.480 OA
ATOM     61  H   LIG    1       27.026 -26.273  10.838  0.00  0.00    +0.295 HD
ENDBRANCH  58  60
ENDBRANCH  26  58
BRANCH  27  62
ATOM     62  O   LIG    1       25.938 -25.085   6.453  0.00  0.00    -0.391 OA
ATOM     63  H   LIG    1       26.258 -26.009   6.524  0.00  0.00    +0.210 HD
ENDBRANCH  27  62
BRANCH  29  64
ATOM     64  O   LIG    1       23.427 -24.191   5.325  0.00  0.00    -0.341 OA
BRANCH  64  65
ATOM     65  C   LIG    1       24.689 -23.523   5.404  0.00  0.00    +0.281 C 
ATOM     66  C   LIG    1       24.937 -22.739   4.099  0.00  0.00    +0.189 C 
ATOM     67  C   LIG    1       24.073 -21.465   4.023  0.00  0.00    +0.116 C 
ATOM     68  C   LIG    1       24.235 -20.660   5.328  0.00  0.00    +0.162 C 
ATOM     69  C   LIG    1       24.079 -21.497   6.612  0.00  0.00    +0.148 C 
ATOM     70  C   LIG    1       22.636 -21.717   7.049  0.00  0.00    +0.040 C 
ATOM     71  O   LIG    1       24.836 -22.714   6.568  0.00  0.00    -0.343 OA
BRANCH  67  72
ATOM     72  N   LIG    1       22.686 -21.804   3.637  0.00  0.00    -0.323 NA
ATOM     73  H   LIG    1       22.386 -21.215   2.855  0.00  0.00    +0.119 HD
ATOM     74  H   LIG    1       22.645 -22.770   3.308  0.00  0.00    +0.119 HD
ENDBRANCH  67  72
BRANCH  66  75
ATOM     75  O   LIG    1       24.684 -23.572   2.954  0.00  0.00    -0.385 OA
ATOM     76  H   LIG    1       25.497 -24.119   2.871  0.00  0.00    +0.210 HD
ENDBRANCH  66  75
BRANCH  68  77
ATOM     77  O   LIG    1       25.552 -20.077   5.322  0.00  0.00    -0.388 OA
ATOM     78  H   LIG    1       25.943 -20.207   4.437  0.00  0.00    +0.210 HD
ENDBRANCH  68  77
ENDBRANCH  64  65
ENDBRANCH  29  64
TORSDOF 15
ENDMDL
