MODEL 1
REMARK VINA RESULT:      -5.4      0.000      0.000
REMARK  Name = *****
REMARK                            x       y       z     vdW  Elec       q    Type
REMARK                         _______ _______ _______ _____ _____    ______ ____
ROOT
ATOM      1  C   LIG    1       22.531 -19.106   4.424  0.00  0.00    +0.123 C 
ATOM      2  N   LIG    1       23.545 -18.809   3.672  0.00  0.00    -0.178 NA
ATOM      3  C   LIG    1       24.785 -19.331   3.957  0.00  0.00    +0.352 C 
ATOM      4  O   LIG    1       25.746 -19.106   3.226  0.00  0.00    -0.244 OA
ATOM      5  N   LIG    1       24.922 -20.137   5.088  0.00  0.00    -0.272 N 
ATOM      6  C   LIG    1       23.835 -20.481   5.862  0.00  0.00    +0.096 C 
ATOM      7  C   LIG    1       22.621 -20.002   5.592  0.00  0.00    +0.061 C 
ENDROOT
BRANCH   5   8
ATOM      8  C   LIG    1       26.245 -20.689   5.364  0.00  0.00    +0.235 C 
ATOM      9  O   LIG    1       27.240 -19.685   5.117  0.00  0.00    -0.340 OA
ATOM     10  C   LIG    1       28.478 -20.073   5.721  0.00  0.00    +0.203 C 
ATOM     11  S   LIG    1       28.160 -21.255   7.062  0.00  0.00    -0.123 S 
ATOM     12  C   LIG    1       26.378 -21.162   6.813  0.00  0.00    +0.126 C 
BRANCH  10  13
ATOM     13  C   LIG    1       29.177 -18.809   6.246  0.00  0.00    +0.198 C 
BRANCH  13  14
ATOM     14  O   LIG    1       29.445 -17.866   5.201  0.00  0.00    -0.392 OA
ATOM     15  H   LIG    1       30.412 -17.736   5.195  0.00  0.00    +0.209 HD
ENDBRANCH  13  14
ENDBRANCH  10  13
ENDBRANCH   5   8
BRANCH   1  16
ATOM     16  N   LIG    1       21.325 -18.556   4.089  0.00  0.00    -0.343 N 
ATOM     17  H   LIG    1       21.391 -17.944   3.281  0.00  0.00    +0.144 HD
ATOM     18  H   LIG    1       20.523 -19.172   4.066  0.00  0.00    +0.144 HD
ENDBRANCH   1  16
TORSDOF 4
ENDMDL
MODEL 2
REMARK VINA RESULT:      -3.7      3.350      4.627
REMARK  Name = *****
REMARK                            x       y       z     vdW  Elec       q    Type
REMARK                         _______ _______ _______ _____ _____    ______ ____
ROOT
ATOM      1  C   LIG    1       25.260 -14.621   3.712  0.00  0.00    +0.123 C 
ATOM      2  N   LIG    1       26.010 -15.593   3.293  0.00  0.00    -0.178 NA
ATOM      3  C   LIG    1       25.529 -16.882   3.306  0.00  0.00    +0.352 C 
ATOM      4  O   LIG    1       26.203 -17.809   2.862  0.00  0.00    -0.244 OA
ATOM      5  N   LIG    1       24.252 -17.110   3.818  0.00  0.00    -0.272 N 
ATOM      6  C   LIG    1       23.445 -16.070   4.227  0.00  0.00    +0.096 C 
ATOM      7  C   LIG    1       23.883 -14.812   4.204  0.00  0.00    +0.061 C 
ENDROOT
BRANCH   5   8
ATOM      8  C   LIG    1       23.760 -18.484   3.810  0.00  0.00    +0.235 C 
ATOM      9  O   LIG    1       24.739 -19.343   4.409  0.00  0.00    -0.340 OA
ATOM     10  C   LIG    1       24.140 -20.600   4.743  0.00  0.00    +0.203 C 
ATOM     11  S   LIG    1       22.344 -20.395   4.913  0.00  0.00    -0.123 S 
ATOM     12  C   LIG    1       22.447 -18.627   4.583  0.00  0.00    +0.126 C 
BRANCH  10  13
ATOM     13  C   LIG    1       24.770 -21.104   6.051  0.00  0.00    +0.198 C 
BRANCH  13  14
ATOM     14  O   LIG    1       26.112 -21.570   5.860  0.00  0.00    -0.392 OA
ATOM     15  H   LIG    1       26.443 -21.812   6.746  0.00  0.00    +0.209 HD
ENDBRANCH  13  14
ENDBRANCH  10  13
ENDBRANCH   5   8
BRANCH   1  16
ATOM     16  N   LIG    1       25.795 -13.363   3.675  0.00  0.00    -0.343 N 
ATOM     17  H   LIG    1       25.142 -12.677   3.306  0.00  0.00    +0.144 HD
ATOM     18  H   LIG    1       26.294 -13.046   4.495  0.00  0.00    +0.144 HD
ENDBRANCH   1  16
TORSDOF 4
ENDMDL
MODEL 3
REMARK VINA RESULT:      -3.0      2.792      5.129
REMARK  Name = *****
REMARK                            x       y       z     vdW  Elec       q    Type
REMARK                         _______ _______ _______ _____ _____    ______ ____
ROOT
ATOM      1  C   LIG    1       28.121 -20.084   5.949  0.00  0.00    +0.123 C 
ATOM      2  N   LIG    1       27.461 -19.598   4.944  0.00  0.00    -0.178 NA
ATOM      3  C   LIG    1       26.097 -19.763   4.877  0.00  0.00    +0.352 C 
ATOM      4  O   LIG    1       25.446 -19.262   3.963  0.00  0.00    -0.244 OA
ATOM      5  N   LIG    1       25.466 -20.497   5.882  0.00  0.00    -0.272 N 
ATOM      6  C   LIG    1       26.166 -20.979   6.967  0.00  0.00    +0.096 C 
ATOM      7  C   LIG    1       27.485 -20.813   7.062  0.00  0.00    +0.061 C 
ENDROOT
BRANCH   5   8
ATOM      8  C   LIG    1       24.017 -20.648   5.796  0.00  0.00    +0.235 C 
ATOM      9  O   LIG    1       23.417 -19.361   5.588  0.00  0.00    -0.340 OA
ATOM     10  C   LIG    1       22.068 -19.525   5.139  0.00  0.00    +0.203 C 
ATOM     11  S   LIG    1       21.868 -21.165   4.387  0.00  0.00    -0.123 S 
ATOM     12  C   LIG    1       23.604 -21.570   4.647  0.00  0.00    +0.126 C 
BRANCH  10  13
ATOM     13  C   LIG    1       21.754 -18.408   4.131  0.00  0.00    +0.198 C 
BRANCH  13  14
ATOM     14  O   LIG    1       22.287 -17.143   4.543  0.00  0.00    -0.392 OA
ATOM     15  H   LIG    1       21.539 -16.646   4.925  0.00  0.00    +0.209 HD
ENDBRANCH  13  14
ENDBRANCH  10  13
ENDBRANCH   5   8
BRANCH   1  16
ATOM     16  N   LIG    1       29.474 -19.888   5.958  0.00  0.00    -0.343 N 
ATOM     17  H   LIG    1       29.991 -20.757   5.860  0.00  0.00    +0.144 HD
ATOM     18  H   LIG    1       29.838 -19.134   5.390  0.00  0.00    +0.144 HD
ENDBRANCH   1  16
TORSDOF 4
ENDMDL
MODEL 4
REMARK VINA RESULT:      -3.0      4.155      5.416
REMARK  Name = *****
REMARK                            x       y       z     vdW  Elec       q    Type
REMARK                         _______ _______ _______ _____ _____    ______ ____
ROOT
ATOM      1  C   LIG    1       25.902 -19.779   4.430  0.00  0.00    +0.123 C 
ATOM      2  N   LIG    1       27.099 -19.417   4.773  0.00  0.00    -0.178 NA
ATOM      3  C   LIG    1       27.558 -18.164   4.439  0.00  0.00    +0.352 C 
ATOM      4  O   LIG    1       28.667 -17.782   4.803  0.00  0.00    -0.244 OA
ATOM      5  N   LIG    1       26.726 -17.330   3.693  0.00  0.00    -0.272 N 
ATOM      6  C   LIG    1       25.441 -17.704   3.363  0.00  0.00    +0.096 C 
ATOM      7  C   LIG    1       24.970 -18.905   3.693  0.00  0.00    +0.061 C 
ENDROOT
BRANCH   5   8
ATOM      8  C   LIG    1       27.229 -16.001   3.360  0.00  0.00    +0.235 C 
ATOM      9  O   LIG    1       26.270 -15.322   2.537  0.00  0.00    -0.340 OA
ATOM     10  C   LIG    1       26.564 -13.921   2.509  0.00  0.00    +0.203 C 
ATOM     11  S   LIG    1       27.537 -13.470   3.974  0.00  0.00    -0.123 S 
ATOM     12  C   LIG    1       27.485 -15.155   4.610  0.00  0.00    +0.126 C 
BRANCH  10  13
ATOM     13  C   LIG    1       25.236 -13.149   2.463  0.00  0.00    +0.198 C 
BRANCH  13  14
ATOM     14  O   LIG    1       24.210 -13.791   3.231  0.00  0.00    -0.392 OA
ATOM     15  H   LIG    1       24.648 -14.518   3.713  0.00  0.00    +0.209 HD
ENDBRANCH  13  14
ENDBRANCH  10  13
ENDBRANCH   5   8
BRANCH   1  16
ATOM     16  N   LIG    1       25.505 -21.037   4.790  0.00  0.00    -0.343 N 
ATOM     17  H   LIG    1       25.854 -21.304   5.706  0.00  0.00    +0.144 HD
ATOM     18  H   LIG    1       24.534 -21.278   4.641  0.00  0.00    +0.144 HD
ENDBRANCH   1  16
TORSDOF 4
ENDMDL
MODEL 5
REMARK VINA RESULT:      -3.0      3.644      4.464
REMARK  Name = *****
REMARK                            x       y       z     vdW  Elec       q    Type
REMARK                         _______ _______ _______ _____ _____    ______ ____
ROOT
ATOM      1  C   LIG    1       23.379 -20.293   4.550  0.00  0.00    +0.123 C 
ATOM      2  N   LIG    1       22.727 -19.172   4.598  0.00  0.00    -0.178 NA
ATOM      3  C   LIG    1       23.325 -18.014   4.161  0.00  0.00    +0.352 C 
ATOM      4  O   LIG    1       22.706 -16.952   4.146  0.00  0.00    -0.244 OA
ATOM      5  N   LIG    1       24.647 -18.074   3.718  0.00  0.00    -0.272 N 
ATOM      6  C   LIG    1       25.322 -19.273   3.634  0.00  0.00    +0.096 C 
ATOM      7  C   LIG    1       24.755 -20.410   4.033  0.00  0.00    +0.061 C 
ENDROOT
BRANCH   5   8
ATOM      8  C   LIG    1       25.256 -16.834   3.249  0.00  0.00    +0.235 C 
ATOM      9  O   LIG    1       24.608 -15.719   3.877  0.00  0.00    -0.340 OA
ATOM     10  C   LIG    1       25.411 -14.544   3.722  0.00  0.00    +0.203 C 
ATOM     11  S   LIG    1       27.139 -15.019   3.428  0.00  0.00    -0.123 S 
ATOM     12  C   LIG    1       26.751 -16.773   3.568  0.00  0.00    +0.126 C 
BRANCH  10  13
ATOM     13  C   LIG    1       25.276 -13.695   4.996  0.00  0.00    +0.198 C 
BRANCH  13  14
ATOM     14  O   LIG    1       26.551 -13.328   5.540  0.00  0.00    -0.392 OA
ATOM     15  H   LIG    1       26.885 -14.119   6.004  0.00  0.00    +0.209 HD
ENDBRANCH  13  14
ENDBRANCH  10  13
ENDBRANCH   5   8
BRANCH   1  16
ATOM     16  N   LIG    1       22.730 -21.409   4.999  0.00  0.00    -0.343 N 
ATOM     17  H   LIG    1       23.346 -22.216   5.058  0.00  0.00    +0.144 HD
ATOM     18  H   LIG    1       22.124 -21.303   5.802  0.00  0.00    +0.144 HD
ENDBRANCH   1  16
TORSDOF 4
ENDMDL
MODEL 6
REMARK VINA RESULT:      -2.7      4.538      5.395
REMARK  Name = *****
REMARK                            x       y       z     vdW  Elec       q    Type
REMARK                         _______ _______ _______ _____ _____    ______ ____
ROOT
ATOM      1  C   LIG    1       23.451 -19.006   3.937  0.00  0.00    +0.123 C 
ATOM      2  N   LIG    1       24.569 -18.516   3.498  0.00  0.00    -0.178 NA
ATOM      3  C   LIG    1       24.806 -17.164   3.590  0.00  0.00    +0.352 C 
ATOM      4  O   LIG    1       25.880 -16.687   3.232  0.00  0.00    -0.244 OA
ATOM      5  N   LIG    1       23.804 -16.349   4.117  0.00  0.00    -0.272 N 
ATOM      6  C   LIG    1       22.634 -16.879   4.616  0.00  0.00    +0.096 C 
ATOM      7  C   LIG    1       22.392 -18.187   4.555  0.00  0.00    +0.061 C 
ENDROOT
BRANCH   5   8
ATOM      8  C   LIG    1       24.083 -14.920   4.215  0.00  0.00    +0.235 C 
ATOM      9  O   LIG    1       25.500 -14.707   4.155  0.00  0.00    -0.340 OA
ATOM     10  C   LIG    1       25.770 -13.328   3.881  0.00  0.00    +0.203 C 
ATOM     11  S   LIG    1       24.329 -12.570   3.078  0.00  0.00    -0.123 S 
ATOM     12  C   LIG    1       23.422 -14.127   3.085  0.00  0.00    +0.126 C 
BRANCH  10  13
ATOM     13  C   LIG    1       27.015 -13.248   2.982  0.00  0.00    +0.198 C 
BRANCH  13  14
ATOM     14  O   LIG    1       26.942 -14.157   1.876  0.00  0.00    -0.392 OA
ATOM     15  H   LIG    1       27.339 -14.992   2.185  0.00  0.00    +0.209 HD
ENDBRANCH  13  14
ENDBRANCH  10  13
ENDBRANCH   5   8
BRANCH   1  16
ATOM     16  N   LIG    1       23.275 -20.357   3.817  0.00  0.00    -0.343 N 
ATOM     17  H   LIG    1       24.001 -20.793   3.255  0.00  0.00    +0.144 HD
ATOM     18  H   LIG    1       23.049 -20.872   4.657  0.00  0.00    +0.144 HD
ENDBRANCH   1  16
TORSDOF 4
ENDMDL
MODEL 7
REMARK VINA RESULT:      -2.7      3.338      4.150
REMARK  Name = *****
REMARK                            x       y       z     vdW  Elec       q    Type
REMARK                         _______ _______ _______ _____ _____    ______ ____
ROOT
ATOM      1  C   LIG    1       22.919 -20.333   4.644  0.00  0.00    +0.123 C 
ATOM      2  N   LIG    1       24.086 -20.548   4.122  0.00  0.00    -0.178 NA
ATOM      3  C   LIG    1       24.836 -19.490   3.664  0.00  0.00    +0.352 C 
ATOM      4  O   LIG    1       25.967 -19.667   3.217  0.00  0.00    -0.244 OA
ATOM      5  N   LIG    1       24.290 -18.208   3.735  0.00  0.00    -0.272 N 
ATOM      6  C   LIG    1       23.065 -17.980   4.325  0.00  0.00    +0.096 C 
ATOM      7  C   LIG    1       22.331 -18.988   4.793  0.00  0.00    +0.061 C 
ENDROOT
BRANCH   5   8
ATOM      8  C   LIG    1       25.109 -17.101   3.254  0.00  0.00    +0.235 C 
ATOM      9  O   LIG    1       24.530 -15.860   3.681  0.00  0.00    -0.340 OA
ATOM     10  C   LIG    1       25.489 -14.806   3.545  0.00  0.00    +0.203 C 
ATOM     11  S   LIG    1       27.166 -15.502   3.548  0.00  0.00    -0.123 S 
ATOM     12  C   LIG    1       26.544 -17.177   3.781  0.00  0.00    +0.126 C 
BRANCH  10  13
ATOM     13  C   LIG    1       25.292 -13.820   4.707  0.00  0.00    +0.198 C 
BRANCH  13  14
ATOM     14  O   LIG    1       26.531 -13.476   5.340  0.00  0.00    -0.392 OA
ATOM     15  H   LIG    1       26.652 -14.118   6.066  0.00  0.00    +0.209 HD
ENDBRANCH  13  14
ENDBRANCH  10  13
ENDBRANCH   5   8
BRANCH   1  16
ATOM     16  N   LIG    1       22.222 -21.425   5.081  0.00  0.00    -0.343 N 
ATOM     17  H   LIG    1       21.875 -21.994   4.314  0.00  0.00    +0.144 HD
ATOM     18  H   LIG    1       22.627 -21.964   5.834  0.00  0.00    +0.144 HD
ENDBRANCH   1  16
TORSDOF 4
ENDMDL
MODEL 8
REMARK VINA RESULT:      -2.7      3.375      4.733
REMARK  Name = *****
REMARK                            x       y       z     vdW  Elec       q    Type
REMARK                         _______ _______ _______ _____ _____    ______ ____
ROOT
ATOM      1  C   LIG    1       25.515 -14.840   3.731  0.00  0.00    +0.123 C 
ATOM      2  N   LIG    1       24.271 -14.948   4.082  0.00  0.00    -0.178 NA
ATOM      3  C   LIG    1       23.667 -16.184   4.090  0.00  0.00    +0.352 C 
ATOM      4  O   LIG    1       22.507 -16.316   4.472  0.00  0.00    -0.244 OA
ATOM      5  N   LIG    1       24.410 -17.288   3.671  0.00  0.00    -0.272 N 
ATOM      6  C   LIG    1       25.741 -17.174   3.336  0.00  0.00    +0.096 C 
ATOM      7  C   LIG    1       26.351 -15.990   3.340  0.00  0.00    +0.061 C 
ENDROOT
BRANCH   5   8
ATOM      8  C   LIG    1       23.752 -18.591   3.700  0.00  0.00    +0.235 C 
ATOM      9  O   LIG    1       24.739 -19.618   3.868  0.00  0.00    -0.340 OA
ATOM     10  C   LIG    1       24.103 -20.838   4.264  0.00  0.00    +0.203 C 
ATOM     11  S   LIG    1       22.497 -20.472   5.026  0.00  0.00    -0.123 S 
ATOM     12  C   LIG    1       22.738 -18.696   4.841  0.00  0.00    +0.126 C 
BRANCH  10  13
ATOM     13  C   LIG    1       25.032 -21.572   5.245  0.00  0.00    +0.198 C 
BRANCH  13  14
ATOM     14  O   LIG    1       26.245 -20.848   5.485  0.00  0.00    -0.392 OA
ATOM     15  H   LIG    1       26.873 -21.137   4.796  0.00  0.00    +0.209 HD
ENDBRANCH  13  14
ENDBRANCH  10  13
ENDBRANCH   5   8
BRANCH   1  16
ATOM     16  N   LIG    1       26.057 -13.585   3.743  0.00  0.00    -0.343 N 
ATOM     17  H   LIG    1       25.524 -12.928   3.180  0.00  0.00    +0.144 HD
ATOM     18  H   LIG    1       26.345 -13.212   4.638  0.00  0.00    +0.144 HD
ENDBRANCH   1  16
TORSDOF 4
ENDMDL
MODEL 9
REMARK VINA RESULT:      -2.7      4.726      5.558
REMARK  Name = *****
REMARK                            x       y       z     vdW  Elec       q    Type
REMARK                         _______ _______ _______ _____ _____    ______ ____
ROOT
ATOM      1  C   LIG    1       24.278 -18.731   3.692  0.00  0.00    +0.123 C 
ATOM      2  N   LIG    1       23.383 -17.881   4.090  0.00  0.00    -0.178 NA
ATOM      3  C   LIG    1       23.680 -16.538   4.116  0.00  0.00    +0.352 C 
ATOM      4  O   LIG    1       22.829 -15.711   4.437  0.00  0.00    -0.244 OA
ATOM      5  N   LIG    1       24.964 -16.134   3.752  0.00  0.00    -0.272 N 
ATOM      6  C   LIG    1       25.899 -17.038   3.294  0.00  0.00    +0.096 C 
ATOM      7  C   LIG    1       25.626 -18.340   3.241  0.00  0.00    +0.061 C 
ENDROOT
BRANCH   5   8
ATOM      8  C   LIG    1       25.252 -14.704   3.776  0.00  0.00    +0.235 C 
ATOM      9  O   LIG    1       26.546 -14.489   4.357  0.00  0.00    -0.340 OA
ATOM     10  C   LIG    1       26.995 -13.163   4.058  0.00  0.00    +0.203 C 
ATOM     11  S   LIG    1       26.138 -12.545   2.581  0.00  0.00    -0.123 S 
ATOM     12  C   LIG    1       25.238 -14.092   2.374  0.00  0.00    +0.126 C 
BRANCH  10  13
ATOM     13  C   LIG    1       28.517 -13.205   3.842  0.00  0.00    +0.198 C 
BRANCH  13  14
ATOM     14  O   LIG    1       29.201 -12.220   4.627  0.00  0.00    -0.392 OA
ATOM     15  H   LIG    1       28.999 -12.429   5.559  0.00  0.00    +0.209 HD
ENDBRANCH  13  14
ENDBRANCH  10  13
ENDBRANCH   5   8
BRANCH   1  16
ATOM     16  N   LIG    1       23.923 -20.052   3.689  0.00  0.00    -0.343 N 
ATOM     17  H   LIG    1       24.265 -20.546   4.508  0.00  0.00    +0.144 HD
ATOM     18  H   LIG    1       22.965 -20.275   3.452  0.00  0.00    +0.144 HD
ENDBRANCH   1  16
TORSDOF 4
ENDMDL
