MODEL 1
REMARK VINA RESULT:      31.7      0.000      0.000
REMARK  Name = *****
REMARK                            x       y       z     vdW  Elec       q    Type
REMARK                         _______ _______ _______ _____ _____    ______ ____
ROOT
ATOM      1  C   LIG    1       24.165 -14.890   4.038  0.00  0.00    +0.220 C 
ATOM      2  C   LIG    1       25.227 -15.100   5.116  0.00  0.00    +0.271 C 
ATOM      3  O   LIG    1       25.052 -15.029   6.323  0.00  0.00    -0.270 OA
ATOM      4  N   LIG    1       26.408 -15.412   4.486  0.00  0.00    -0.233 N 
ATOM      5  C   LIG    1       26.361 -14.786   3.204  0.00  0.00    +0.269 C 
ATOM      6  C   LIG    1       27.033 -13.387   3.353  0.00  0.00    +0.156 C 
ATOM      7  N   LIG    1       28.181 -13.349   4.266  0.00  0.00    -0.290 N 
ATOM      8  C   LIG    1       28.286 -14.150   5.386  0.00  0.00    +0.237 C 
ATOM      9  O   LIG    1       28.994 -13.829   6.342  0.00  0.00    -0.274 OA
ATOM     10  C   LIG    1       28.975 -12.158   4.073  0.00  0.00    +0.108 C 
ATOM     11  C   LIG    1       28.435 -11.557   2.776  0.00  0.00    +0.021 C 
ATOM     12  C   LIG    1       27.620 -12.690   2.129  0.00  0.00    +0.031 C 
ATOM     13  C   LIG    1       27.670 -15.558   5.223  0.00  0.00    +0.171 C 
ATOM     14  O   LIG    1       24.979 -14.693   2.844  0.00  0.00    -0.298 OA
ENDROOT
BRANCH   1  15
ATOM     15  N   LIG    1       23.311 -16.067   3.817  0.00  0.00    -0.280 N 
ATOM     16  H   LIG    1       23.316 -16.488   2.904  0.00  0.00    +0.152 HD
ATOM     17  C   LIG    1       22.682 -16.749   4.855  0.00  0.00    +0.220 C 
ATOM     18  O   LIG    1       22.751 -16.387   6.026  0.00  0.00    -0.275 OA
BRANCH  17  19
ATOM     19  C   LIG    1       21.960 -18.130   4.492  0.00  0.00    +0.090 C 
ATOM     20  C   LIG    1       20.680 -17.482   3.768  0.00  0.00    +0.097 C 
ATOM     21  N   LIG    1       20.672 -17.944   2.409  0.00  0.00    -0.301 NA
ATOM     22  C   LIG    1       19.350 -18.315   1.925  0.00  0.00    +0.105 C 
ATOM     23  C   LIG    1       21.559 -19.072   2.534  0.00  0.00    +0.068 C 
ATOM     24  C   LIG    1       23.349 -18.442   2.820  0.00  0.00    +0.038 C 
ATOM     25  C   LIG    1       24.230 -18.749   4.453  0.00  0.00    -0.033 C 
ATOM     26  C   LIG    1       23.530 -19.741   5.519  0.00  0.00    +0.006 C 
ATOM     27  C   LIG    1       24.265 -20.386   6.474  0.00  0.00    +0.047 C 
ATOM     28  N   LIG    1       23.406 -21.314   7.049  0.00  0.00    -0.360 NA
ATOM     29  H   LIG    1       23.690 -21.940   7.788  0.00  0.00    +0.165 HD
ATOM     30  C   LIG    1       22.176 -21.435   6.380  0.00  0.00    +0.087 C 
ATOM     31  C   LIG    1       25.630 -20.091   6.599  0.00  0.00    +0.026 C 
ATOM     32  C   LIG    1       26.242 -19.166   5.682  0.00  0.00    +0.002 C 
ATOM     33  C   LIG    1       22.137 -20.533   5.343  0.00  0.00    -0.021 C 
ATOM     34  C   LIG    1       25.586 -18.502   4.618  0.00  0.00    +0.005 C 
ATOM     35  C   LIG    1       20.970 -20.286   3.961  0.00  0.00    +0.056 C 
ATOM     36  C   LIG    1       22.932 -19.568   3.458  0.00  0.00    +0.023 C 
ENDBRANCH  17  19
ENDBRANCH   1  15
BRANCH   1  38
ATOM     37  C   LIG    1       23.446 -12.565   3.106  0.00  0.00    +0.012 C 
ATOM     38  C   LIG    1       23.347 -13.564   4.266  0.00  0.00    +0.043 C 
ATOM     39  C   LIG    1       23.681 -12.811   5.565  0.00  0.00    +0.012 C 
ENDBRANCH   1  38
BRANCH   5  40
ATOM     40  O   LIG    1       26.997 -15.585   2.235  0.00  0.00    -0.348 OA
ATOM     41  H   LIG    1       27.283 -16.364   2.744  0.00  0.00    +0.214 HD
ENDBRANCH   5  40
BRANCH  13  42
ATOM     42  C   LIG    1       28.692 -16.510   4.553  0.00  0.00    +0.067 C 
BRANCH  42  43
ATOM     43  C   LIG    1       28.786 -17.873   5.211  0.00  0.00    -0.045 C 
ATOM     44  C   LIG    1       28.426 -19.026   4.494  0.00  0.00    +0.003 C 
ATOM     45  C   LIG    1       28.619 -20.296   5.036  0.00  0.00    +0.000 C 
ATOM     46  C   LIG    1       29.141 -20.432   6.318  0.00  0.00    +0.000 C 
ATOM     47  C   LIG    1       29.464 -19.294   7.059  0.00  0.00    +0.000 C 
ATOM     48  C   LIG    1       29.293 -18.021   6.507  0.00  0.00    +0.003 C 
ENDBRANCH  42  43
ENDBRANCH  13  42
TORSDOF 6
ENDMDL
MODEL 2
REMARK VINA RESULT:      33.8      1.486      4.200
REMARK  Name = *****
REMARK                            x       y       z     vdW  Elec       q    Type
REMARK                         _______ _______ _______ _____ _____    ______ ____
ROOT
ATOM      1  C   LIG    1       26.501 -16.659   4.222  0.00  0.00    +0.220 C 
ATOM      2  C   LIG    1       26.269 -15.667   3.083  0.00  0.00    +0.271 C 
ATOM      3  O   LIG    1       26.481 -15.870   1.897  0.00  0.00    -0.270 OA
ATOM      4  N   LIG    1       25.751 -14.517   3.629  0.00  0.00    -0.233 N 
ATOM      5  C   LIG    1       26.247 -14.444   4.965  0.00  0.00    +0.269 C 
ATOM      6  C   LIG    1       27.558 -13.601   4.920  0.00  0.00    +0.156 C 
ATOM      7  N   LIG    1       27.543 -12.487   3.965  0.00  0.00    -0.290 N 
ATOM      8  C   LIG    1       26.851 -12.521   2.771  0.00  0.00    +0.237 C 
ATOM      9  O   LIG    1       27.174 -11.808   1.819  0.00  0.00    -0.274 OA
ATOM     10  C   LIG    1       28.600 -11.541   4.235  0.00  0.00    +0.108 C 
ATOM     11  C   LIG    1       29.132 -11.958   5.605  0.00  0.00    +0.021 C 
ATOM     12  C   LIG    1       28.051 -12.892   6.177  0.00  0.00    +0.031 C 
ATOM     13  C   LIG    1       25.522 -13.308   2.826  0.00  0.00    +0.171 C 
ATOM     14  O   LIG    1       26.475 -15.790   5.392  0.00  0.00    -0.298 OA
ENDROOT
BRANCH   1  15
ATOM     15  N   LIG    1       25.425 -17.651   4.367  0.00  0.00    -0.280 N 
ATOM     16  H   LIG    1       25.607 -18.463   4.931  0.00  0.00    +0.152 HD
ATOM     17  C   LIG    1       24.116 -17.410   3.957  0.00  0.00    +0.220 C 
ATOM     18  O   LIG    1       23.776 -16.373   3.394  0.00  0.00    -0.275 OA
BRANCH  17  19
ATOM     19  C   LIG    1       23.010 -18.490   4.368  0.00  0.00    +0.090 C 
ATOM     20  C   LIG    1       21.730 -17.581   4.024  0.00  0.00    +0.097 C 
ATOM     21  N   LIG    1       20.982 -18.258   3.003  0.00  0.00    -0.301 NA
ATOM     22  C   LIG    1       19.542 -18.224   3.213  0.00  0.00    +0.105 C 
ATOM     23  C   LIG    1       21.536 -19.580   3.136  0.00  0.00    +0.068 C 
ATOM     24  C   LIG    1       23.342 -19.580   2.491  0.00  0.00    +0.038 C 
ATOM     25  C   LIG    1       24.786 -19.864   3.663  0.00  0.00    -0.033 C 
ATOM     26  C   LIG    1       24.455 -20.327   5.176  0.00  0.00    +0.006 C 
ATOM     27  C   LIG    1       25.378 -20.997   5.928  0.00  0.00    +0.047 C 
ATOM     28  N   LIG    1       24.699 -21.439   7.057  0.00  0.00    -0.360 NA
ATOM     29  H   LIG    1       25.141 -21.973   7.790  0.00  0.00    +0.165 HD
ATOM     30  C   LIG    1       23.308 -21.242   6.991  0.00  0.00    +0.087 C 
ATOM     31  C   LIG    1       26.670 -21.184   5.416  0.00  0.00    +0.026 C 
ATOM     32  C   LIG    1       26.979 -20.723   4.088  0.00  0.00    +0.002 C 
ATOM     33  C   LIG    1       23.000 -20.596   5.816  0.00  0.00    -0.021 C 
ATOM     34  C   LIG    1       26.077 -20.085   3.205  0.00  0.00    +0.005 C 
ATOM     35  C   LIG    1       21.417 -20.218   4.990  0.00  0.00    +0.056 C 
ATOM     36  C   LIG    1       23.023 -20.346   3.568  0.00  0.00    +0.023 C 
ENDBRANCH  17  19
ENDBRANCH   1  15
BRANCH   1  38
ATOM     37  C   LIG    1       28.195 -18.356   5.245  0.00  0.00    +0.012 C 
ATOM     38  C   LIG    1       27.936 -17.306   4.157  0.00  0.00    +0.043 C 
ATOM     39  C   LIG    1       29.102 -16.303   4.184  0.00  0.00    +0.012 C 
ENDBRANCH   1  38
BRANCH   5  40
ATOM     40  O   LIG    1       25.281 -13.885   5.825  0.00  0.00    -0.348 OA
ATOM     41  H   LIG    1       24.456 -14.314   5.539  0.00  0.00    +0.214 HD
ENDBRANCH   5  40
BRANCH  13  42
ATOM     42  C   LIG    1       24.387 -12.397   3.358  0.00  0.00    +0.067 C 
BRANCH  42  43
ATOM     43  C   LIG    1       23.530 -13.044   4.429  0.00  0.00    -0.045 C 
ATOM     44  C   LIG    1       23.078 -14.364   4.264  0.00  0.00    +0.003 C 
ATOM     45  C   LIG    1       22.392 -15.019   5.286  0.00  0.00    +0.000 C 
ATOM     46  C   LIG    1       22.118 -14.353   6.476  0.00  0.00    +0.000 C 
ATOM     47  C   LIG    1       22.525 -13.028   6.638  0.00  0.00    +0.000 C 
ATOM     48  C   LIG    1       23.232 -12.377   5.622  0.00  0.00    +0.003 C 
ENDBRANCH  42  43
ENDBRANCH  13  42
TORSDOF 6
ENDMDL
