MODEL 1
REMARK VINA RESULT:      -3.9      0.000      0.000
REMARK  Name = *****
REMARK                            x       y       z     vdW  Elec       q    Type
REMARK                         _______ _______ _______ _____ _____    ______ ____
ROOT
ATOM      1  C   LIG    1       26.165 -28.034  13.848  0.00  0.00    +0.159 C 
ATOM      2  C   LIG    1       25.187 -28.364  12.679  0.00  0.00    +0.237 C 
ATOM      3  O   LIG    1       25.597 -28.957  11.673  0.00  0.00    -0.274 OA
ATOM      4  N   LIG    1       23.823 -28.180  12.882  0.00  0.00    -0.285 N 
ATOM      5  C   LIG    1       22.853 -28.777  11.966  0.00  0.00    +0.166 C 
ATOM      6  C   LIG    1       21.507 -28.609  12.655  0.00  0.00    +0.078 C 
ATOM      7  C   LIG    1       21.683 -27.448  13.632  0.00  0.00    +0.195 C 
ATOM      8  C   LIG    1       23.117 -30.286  11.821  0.00  0.00    +0.234 C 
ATOM      9  O   LIG    1       23.743 -30.887  12.690  0.00  0.00    -0.274 OA
ATOM     10  N   LIG    1       22.553 -30.887  10.716  0.00  0.00    -0.299 N 
ATOM     11  H   LIG    1       21.947 -30.330  10.121  0.00  0.00    +0.150 HD
ATOM     12  C   LIG    1       23.034 -32.138  10.122  0.00  0.00    +0.119 C 
ATOM     13  C   LIG    1       23.547 -33.374  10.870  0.00  0.00    +0.046 C 
ATOM     14  C   LIG    1       23.712 -33.521  12.325  0.00  0.00    -0.025 C 
ATOM     15  C   LIG    1       24.889 -33.574  12.978  0.00  0.00    -0.031 C 
ATOM     16  C   LIG    1       25.026 -33.825  14.457  0.00  0.00    +0.027 C 
ATOM     17  C   LIG    1       26.074 -32.970  15.195  0.00  0.00    +0.004 C 
ATOM     18  C   LIG    1       25.639 -31.528  15.494  0.00  0.00    +0.000 C 
ATOM     19  C   LIG    1       26.426 -30.465  14.710  0.00  0.00    +0.002 C 
ATOM     20  C   LIG    1       22.139 -33.363  10.349  0.00  0.00    +0.046 C 
ATOM     21  C   LIG    1       23.188 -27.276  13.820  0.00  0.00    +0.153 C 
ATOM     22  C   LIG    1       25.874 -29.050  14.986  0.00  0.00    +0.032 C 
ENDROOT
BRANCH   1  24
ATOM     23  C   LIG    1       26.486 -25.594  13.478  0.00  0.00    +0.265 C 
ATOM     24  N   LIG    1       26.056 -26.636  14.295  0.00  0.00    -0.299 N 
ATOM     25  H   LIG    1       26.088 -26.426  15.289  0.00  0.00    +0.150 HD
ATOM     26  O   LIG    1       26.907 -25.751  12.338  0.00  0.00    -0.269 OA
BRANCH  23  31
ATOM     27  C   LIG    1       26.063 -20.288  15.499  0.00  0.00    +0.067 C 
ATOM     28  C   LIG    1       26.172 -21.702  15.015  0.00  0.00    +0.056 A 
ATOM     29  N   LIG    1       27.204 -22.463  15.459  0.00  0.00    -0.256 NA
ATOM     30  C   LIG    1       27.259 -23.734  14.967  0.00  0.00    +0.144 A 
ATOM     31  C   LIG    1       26.337 -24.220  14.046  0.00  0.00    +0.143 A 
ATOM     32  N   LIG    1       25.316 -23.458  13.570  0.00  0.00    -0.247 NA
ATOM     33  C   LIG    1       25.257 -22.204  14.089  0.00  0.00    +0.134 A 
ENDBRANCH  23  31
ENDBRANCH   1  24
BRANCH  12  34
ATOM     34  C   LIG    1       23.535 -31.984   8.680  0.00  0.00    +0.256 C 
ATOM     35  N   LIG    1       24.003 -30.717   8.288  0.00  0.00    -0.188 N 
ATOM     36  H   LIG    1       24.389 -30.103   9.007  0.00  0.00    +0.176 HD
ATOM     37  O   LIG    1       23.465 -32.943   7.914  0.00  0.00    -0.272 OA
BRANCH  35  38
ATOM     38  S   LIG    1       24.594 -30.533   6.725  0.00  0.00    +0.048 S 
ATOM     39  O   LIG    1       23.496 -30.662   5.808  0.00  0.00    -0.155 OA
ATOM     40  O   LIG    1       25.790 -31.356   6.634  0.00  0.00    -0.155 OA
BRANCH  38  41
ATOM     41  C   LIG    1       25.116 -28.801   6.544  0.00  0.00    +0.151 C 
ATOM     42  C   LIG    1       25.585 -28.408   5.169  0.00  0.00    +0.030 C 
ATOM     43  C   LIG    1       24.237 -27.952   5.652  0.00  0.00    +0.030 C 
ENDBRANCH  38  41
ENDBRANCH  35  38
ENDBRANCH  12  34
BRANCH   7  44
ATOM     44  O   LIG    1       21.104 -27.801  14.893  0.00  0.00    -0.471 OA
BRANCH  44  45
ATOM     45  C   LIG    1       20.019 -28.643  14.779  0.00  0.00    +0.224 A 
ATOM     46  C   LIG    1       18.762 -28.080  14.537  0.00  0.00    +0.044 A 
ATOM     47  C   LIG    1       17.675 -28.973  14.415  0.00  0.00    -0.004 A 
ATOM     48  C   LIG    1       16.391 -28.402  14.229  0.00  0.00    +0.009 A 
ATOM     49  C   LIG    1       16.196 -27.020  14.132  0.00  0.00    +0.001 A 
ATOM     50  C   LIG    1       17.280 -26.160  14.214  0.00  0.00    +0.001 A 
ATOM     51  C   LIG    1       17.928 -30.387  14.477  0.00  0.00    +0.008 A 
ATOM     52  C   LIG    1       19.256 -30.807  14.704  0.00  0.00    +0.075 A 
ATOM     53  C   LIG    1       19.563 -32.158  14.758  0.00  0.00    +0.028 A 
ATOM     54  C   LIG    1       18.589 -33.135  14.580  0.00  0.00    +0.002 A 
ATOM     55  C   LIG    1       17.278 -32.753  14.351  0.00  0.00    +0.001 A 
ATOM     56  C   LIG    1       16.948 -31.397  14.306  0.00  0.00    +0.010 A 
ATOM     57  C   LIG    1       18.553 -26.685  14.423  0.00  0.00    +0.014 A 
ATOM     58  N   LIG    1       20.268 -29.962  14.863  0.00  0.00    -0.212 NA
ENDBRANCH  44  45
ENDBRANCH   7  44
TORSDOF 7
ENDMDL
MODEL 2
REMARK VINA RESULT:      -1.7      4.056      8.286
REMARK  Name = *****
REMARK                            x       y       z     vdW  Elec       q    Type
REMARK                         _______ _______ _______ _____ _____    ______ ____
ROOT
ATOM      1  C   LIG    1       24.915 -27.926   6.058  0.00  0.00    +0.159 C 
ATOM      2  C   LIG    1       24.180 -28.406   7.346  0.00  0.00    +0.237 C 
ATOM      3  O   LIG    1       23.059 -28.927   7.266  0.00  0.00    -0.274 OA
ATOM      4  N   LIG    1       24.889 -28.441   8.543  0.00  0.00    -0.285 N 
ATOM      5  C   LIG    1       24.368 -29.184   9.688  0.00  0.00    +0.166 C 
ATOM      6  C   LIG    1       25.520 -29.232  10.682  0.00  0.00    +0.078 C 
ATOM      7  C   LIG    1       26.428 -28.058  10.321  0.00  0.00    +0.195 C 
ATOM      8  C   LIG    1       24.044 -30.632   9.281  0.00  0.00    +0.234 C 
ATOM      9  O   LIG    1       24.578 -31.127   8.292  0.00  0.00    -0.274 OA
ATOM     10  N   LIG    1       23.196 -31.315  10.127  0.00  0.00    -0.299 N 
ATOM     11  H   LIG    1       22.906 -30.860  10.988  0.00  0.00    +0.150 HD
ATOM     12  C   LIG    1       22.391 -32.474   9.729  0.00  0.00    +0.119 C 
ATOM     13  C   LIG    1       22.817 -33.613   8.796  0.00  0.00    +0.046 C 
ATOM     14  C   LIG    1       24.093 -33.732   8.072  0.00  0.00    -0.025 C 
ATOM     15  C   LIG    1       24.253 -33.599   6.742  0.00  0.00    -0.031 C 
ATOM     16  C   LIG    1       25.555 -33.825   6.020  0.00  0.00    +0.027 C 
ATOM     17  C   LIG    1       25.897 -32.815   4.907  0.00  0.00    +0.004 C 
ATOM     18  C   LIG    1       26.425 -31.461   5.403  0.00  0.00    +0.000 C 
ATOM     19  C   LIG    1       25.468 -30.286   5.136  0.00  0.00    +0.002 C 
ATOM     20  C   LIG    1       22.862 -33.825  10.282  0.00  0.00    +0.046 C 
ATOM     21  C   LIG    1       26.049 -27.650   8.899  0.00  0.00    +0.153 C 
ATOM     22  C   LIG    1       26.016 -28.976   5.743  0.00  0.00    +0.032 C 
ENDROOT
BRANCH   1  24
ATOM     23  C   LIG    1       24.604 -25.461   6.199  0.00  0.00    +0.265 C 
ATOM     24  N   LIG    1       25.454 -26.564   6.193  0.00  0.00    -0.299 N 
ATOM     25  H   LIG    1       26.393 -26.363   5.859  0.00  0.00    +0.150 HD
ATOM     26  O   LIG    1       23.381 -25.543   6.166  0.00  0.00    -0.269 OA
BRANCH  23  31
ATOM     27  C   LIG    1       26.966 -20.316   6.803  0.00  0.00    +0.067 C 
ATOM     28  C   LIG    1       26.361 -21.672   6.596  0.00  0.00    +0.056 A 
ATOM     29  N   LIG    1       25.446 -21.831   5.608  0.00  0.00    -0.256 NA
ATOM     30  C   LIG    1       24.918 -23.082   5.482  0.00  0.00    +0.144 A 
ATOM     31  C   LIG    1       25.269 -24.129   6.328  0.00  0.00    +0.143 A 
ATOM     32  N   LIG    1       26.161 -23.976   7.342  0.00  0.00    -0.247 NA
ATOM     33  C   LIG    1       26.700 -22.732   7.438  0.00  0.00    +0.134 A 
ENDBRANCH  23  31
ENDBRANCH   1  24
BRANCH  12  34
ATOM     34  C   LIG    1       20.879 -32.242   9.841  0.00  0.00    +0.256 C 
ATOM     35  N   LIG    1       20.034 -33.130   9.151  0.00  0.00    -0.188 N 
ATOM     36  H   LIG    1       20.370 -34.079   8.979  0.00  0.00    +0.176 HD
ATOM     37  O   LIG    1       20.465 -31.275  10.477  0.00  0.00    -0.272 OA
BRANCH  35  38
ATOM     38  S   LIG    1       18.372 -32.921   9.291  0.00  0.00    +0.048 S 
ATOM     39  O   LIG    1       17.731 -33.691   8.261  0.00  0.00    -0.155 OA
ATOM     40  O   LIG    1       18.145 -31.493   9.455  0.00  0.00    -0.155 OA
BRANCH  38  41
ATOM     41  C   LIG    1       17.851 -33.731  10.833  0.00  0.00    +0.151 C 
ATOM     42  C   LIG    1       18.240 -33.020  12.100  0.00  0.00    +0.030 C 
ATOM     43  C   LIG    1       16.811 -32.982  11.637  0.00  0.00    +0.030 C 
ENDBRANCH  38  41
ENDBRANCH  35  38
ENDBRANCH  12  34
BRANCH   7  44
ATOM     44  O   LIG    1       27.790 -28.499  10.320  0.00  0.00    -0.471 OA
BRANCH  44  45
ATOM     45  C   LIG    1       28.348 -28.552  11.579  0.00  0.00    +0.224 A 
ATOM     46  C   LIG    1       27.670 -27.933  12.635  0.00  0.00    +0.044 A 
ATOM     47  C   LIG    1       28.264 -28.017  13.912  0.00  0.00    -0.004 A 
ATOM     48  C   LIG    1       27.610 -27.340  14.972  0.00  0.00    +0.009 A 
ATOM     49  C   LIG    1       26.410 -26.645  14.785  0.00  0.00    +0.001 A 
ATOM     50  C   LIG    1       25.820 -26.607  13.531  0.00  0.00    +0.001 A 
ATOM     51  C   LIG    1       29.473 -28.779  14.066  0.00  0.00    +0.008 A 
ATOM     52  C   LIG    1       30.030 -29.368  12.911  0.00  0.00    +0.075 A 
ATOM     53  C   LIG    1       31.187 -30.127  13.001  0.00  0.00    +0.028 A 
ATOM     54  C   LIG    1       31.825 -30.344  14.217  0.00  0.00    +0.002 A 
ATOM     55  C   LIG    1       31.299 -29.782  15.369  0.00  0.00    +0.001 A 
ATOM     56  C   LIG    1       30.143 -29.004  15.296  0.00  0.00    +0.010 A 
ATOM     57  C   LIG    1       26.448 -27.239  12.462  0.00  0.00    +0.014 A 
ATOM     58  N   LIG    1       29.492 -29.248  11.703  0.00  0.00    -0.212 NA
ENDBRANCH  44  45
ENDBRANCH   7  44
TORSDOF 7
ENDMDL
