MODEL 1
REMARK VINA RESULT:      -0.3      0.000      0.000
REMARK  Name = *****
REMARK                            x       y       z     vdW  Elec       q    Type
REMARK                         _______ _______ _______ _____ _____    ______ ____
ROOT
ATOM      1  CA  LIG    1       26.458 -17.236   3.446  0.00  0.00    +0.191 C 
ATOM      2  C   LIG    1       25.360 -16.186   3.118  0.00  0.00    +0.169 C 
ATOM      3  N   LIG    1       26.405 -15.178   3.217  0.00  0.00    -0.249 N 
ATOM      4  CA  LIG    1       26.187 -13.826   3.335  0.00  0.00    +0.125 C 
ATOM      5  C   LIG    1       24.929 -13.347   3.538  0.00  0.00    +0.006 C 
ATOM      6  C   LIG    1       23.715 -14.234   3.746  0.00  0.00    +0.107 C 
ATOM      7  S   LIG    1       24.111 -15.887   4.387  0.00  0.00    -0.131 S 
ATOM      8  C   LIG    1       27.311 -15.989   3.812  0.00  0.00    +0.244 C 
ATOM      9  O   LIG    1       28.333 -15.701   4.402  0.00  0.00    -0.273 OA
ENDROOT
BRANCH   1  11
ATOM     10  C   LIG    1       25.971 -19.548   4.205  0.00  0.00    +0.270 C 
ATOM     11  N   LIG    1       26.221 -18.224   4.523  0.00  0.00    -0.296 N 
ATOM     12  H   LIG    1       26.084 -17.950   5.494  0.00  0.00    +0.150 HD
ATOM     13  O   LIG    1       25.935 -19.935   3.044  0.00  0.00    -0.268 OA
BRANCH  10  15
ATOM     14  N   LIG    1       26.714 -20.974   6.148  0.00  0.00    -0.076 NA
ATOM     15  C   LIG    1       25.758 -20.505   5.392  0.00  0.00    +0.206 C 
BRANCH  15  16
ATOM     16  C   LIG    1       24.396 -20.925   5.641  0.00  0.00    +0.161 A 
ATOM     17  O   LIG    1       23.517 -21.014   4.596  0.00  0.00    -0.461 OA
ATOM     18  C   LIG    1       22.316 -21.396   5.092  0.00  0.00    +0.196 A 
ATOM     19  C   LIG    1       22.396 -21.569   6.451  0.00  0.00    +0.042 A 
ATOM     20  C   LIG    1       23.730 -21.246   6.812  0.00  0.00    +0.052 A 
ENDBRANCH  15  16
BRANCH  14  22
ATOM     21  C   LIG    1       28.855 -20.708   6.932  0.00  0.00    +0.313 C 
ATOM     22  O   LIG    1       27.978 -20.454   5.838  0.00  0.00    -0.396 OA
ENDBRANCH  14  22
ENDBRANCH  10  15
ENDBRANCH   1  11
BRANCH   4  23
ATOM     23  C   LIG    1       27.357 -12.895   3.063  0.00  0.00    +0.351 C 
ATOM     24  O   LIG    1       27.262 -11.885   2.379  0.00  0.00    -0.244 OA
BRANCH  23  25
ATOM     25  OXT LIG    1       28.562 -13.304   3.507  0.00  0.00    -0.476 OA
ATOM     26  HXT LIG    1       28.554 -13.963   4.237  0.00  0.00    +0.295 HD
ENDBRANCH  23  25
ENDBRANCH   4  23
BRANCH   5  27
ATOM     27  C   LIG    1       24.602 -11.859   3.584  0.00  0.00    +0.268 C 
BRANCH  27  28
ATOM     28  O   LIG    1       23.400 -11.526   4.300  0.00  0.00    -0.446 OA
BRANCH  28  29
ATOM     29  C   LIG    1       23.536 -11.452   5.642  0.00  0.00    +0.398 C 
ATOM     30  O   LIG    1       22.635 -11.450   6.462  0.00  0.00    -0.227 OA
ATOM     31  N   LIG    1       24.847 -11.450   5.967  0.00  0.00    -0.295 N 
ATOM     32  H   LIG    1       25.075 -11.659   6.928  0.00  0.00    +0.148 HD
ATOM     33  H   LIG    1       25.517 -11.660   5.243  0.00  0.00    +0.148 HD
ENDBRANCH  28  29
ENDBRANCH  27  28
ENDBRANCH   5  27
TORSDOF 9
ENDMDL
MODEL 2
REMARK VINA RESULT:       2.2      1.875      8.123
REMARK  Name = *****
REMARK                            x       y       z     vdW  Elec       q    Type
REMARK                         _______ _______ _______ _____ _____    ______ ____
ROOT
ATOM      1  CA  LIG    1       24.622 -16.651   2.984  0.00  0.00    +0.191 C 
ATOM      2  C   LIG    1       25.440 -17.967   3.112  0.00  0.00    +0.169 C 
ATOM      3  N   LIG    1       24.332 -18.488   3.898  0.00  0.00    -0.249 N 
ATOM      4  CA  LIG    1       24.387 -19.608   4.691  0.00  0.00    +0.125 C 
ATOM      5  C   LIG    1       25.576 -20.229   4.925  0.00  0.00    +0.006 C 
ATOM      6  C   LIG    1       26.911 -19.700   4.433  0.00  0.00    +0.107 C 
ATOM      7  S   LIG    1       26.929 -17.908   4.132  0.00  0.00    -0.131 S 
ATOM      8  C   LIG    1       23.736 -17.288   4.091  0.00  0.00    +0.244 C 
ATOM      9  O   LIG    1       22.877 -16.974   4.891  0.00  0.00    -0.273 OA
ENDROOT
BRANCH   1  11
ATOM     10  C   LIG    1       24.571 -14.391   4.008  0.00  0.00    +0.270 C 
ATOM     11  N   LIG    1       25.269 -15.359   3.306  0.00  0.00    -0.296 N 
ATOM     12  H   LIG    1       26.163 -15.082   2.904  0.00  0.00    +0.150 HD
ATOM     13  O   LIG    1       23.418 -14.570   4.376  0.00  0.00    -0.268 OA
BRANCH  10  15
ATOM     14  N   LIG    1       24.771 -11.960   4.654  0.00  0.00    -0.076 NA
ATOM     15  C   LIG    1       25.335 -13.089   4.315  0.00  0.00    +0.206 C 
BRANCH  15  16
ATOM     16  C   LIG    1       26.774 -13.141   4.173  0.00  0.00    +0.161 A 
ATOM     17  O   LIG    1       27.567 -12.841   5.246  0.00  0.00    -0.461 OA
ATOM     18  C   LIG    1       28.859 -12.934   4.849  0.00  0.00    +0.196 A 
ATOM     19  C   LIG    1       28.926 -13.301   3.529  0.00  0.00    +0.042 A 
ATOM     20  C   LIG    1       27.584 -13.415   3.084  0.00  0.00    +0.052 A 
ENDBRANCH  15  16
BRANCH  14  22
ATOM     21  C   LIG    1       23.019 -11.447   6.044  0.00  0.00    +0.313 C 
ATOM     22  O   LIG    1       23.382 -12.054   4.807  0.00  0.00    -0.396 OA
ENDBRANCH  14  22
ENDBRANCH  10  15
ENDBRANCH   1  11
BRANCH   4  23
ATOM     23  C   LIG    1       23.071 -20.216   5.148  0.00  0.00    +0.351 C 
ATOM     24  O   LIG    1       22.416 -20.987   4.459  0.00  0.00    -0.244 OA
BRANCH  23  25
ATOM     25  OXT LIG    1       22.576 -19.762   6.316  0.00  0.00    -0.476 OA
ATOM     26  HXT LIG    1       21.611 -19.891   6.457  0.00  0.00    +0.295 HD
ENDBRANCH  23  25
ENDBRANCH   4  23
BRANCH   5  27
ATOM     27  C   LIG    1       25.698 -21.526   5.716  0.00  0.00    +0.268 C 
BRANCH  27  28
ATOM     28  O   LIG    1       26.316 -21.391   7.008  0.00  0.00    -0.446 OA
BRANCH  28  29
ATOM     29  C   LIG    1       27.477 -20.701   7.016  0.00  0.00    +0.398 C 
ATOM     30  O   LIG    1       27.600 -19.490   7.057  0.00  0.00    -0.227 OA
ATOM     31  N   LIG    1       28.517 -21.563   7.046  0.00  0.00    -0.295 N 
ATOM     32  H   LIG    1       29.413 -21.181   7.316  0.00  0.00    +0.148 HD
ATOM     33  H   LIG    1       28.324 -22.537   7.219  0.00  0.00    +0.148 HD
ENDBRANCH  28  29
ENDBRANCH  27  28
ENDBRANCH   5  27
TORSDOF 9
ENDMDL
