MODEL 1
REMARK VINA RESULT:      -1.0      0.000      0.000
REMARK  Name = *****
REMARK                            x       y       z     vdW  Elec       q    Type
REMARK                         _______ _______ _______ _____ _____    ______ ____
ROOT
ATOM      1  N   LIG    1       22.751 -17.044   4.468  0.00  0.00    -0.261 N 
ATOM      2  N   LIG    1       22.119 -16.247   5.357  0.00  0.00    -0.178 NA
ATOM      3  C   LIG    1       22.621 -15.032   5.117  0.00  0.00    +0.144 A 
ATOM      4  C   LIG    1       23.553 -15.024   4.062  0.00  0.00    +0.038 A 
ATOM      5  C   LIG    1       23.593 -16.338   3.651  0.00  0.00    +0.119 A 
ENDROOT
BRANCH   4   6
ATOM      6  C   LIG    1       24.358 -13.986   3.466  0.00  0.00    +0.086 A 
ATOM      7  C   LIG    1       25.754 -13.987   3.530  0.00  0.00    +0.045 A 
ATOM      8  C   LIG    1       26.379 -12.914   2.908  0.00  0.00    +0.142 A 
ATOM      9  N   LIG    1       27.731 -13.060   3.059  0.00  0.00    -0.346 N 
ATOM     10  H   LIG    1       28.409 -12.409   2.690  0.00  0.00    +0.167 HD
ATOM     11  C   LIG    1       27.996 -14.198   3.774  0.00  0.00    +0.085 A 
ATOM     12  N   LIG    1       25.795 -11.895   2.263  0.00  0.00    -0.218 NA
ATOM     13  C   LIG    1       24.457 -12.002   2.275  0.00  0.00    +0.224 A 
ATOM     14  C   LIG    1       26.790 -14.791   4.086  0.00  0.00    +0.031 A 
ATOM     15  N   LIG    1       23.711 -12.970   2.838  0.00  0.00    -0.235 NA
ENDBRANCH   4   6
BRANCH   1  18
ATOM     16  N   LIG    1       24.363 -19.378   5.115  0.00  0.00    -0.176 NA
ATOM     17  C   LIG    1       23.734 -19.221   3.774  0.00  0.00    +0.141 C 
ATOM     18  C   LIG    1       22.526 -18.482   4.445  0.00  0.00    +0.105 C 
ATOM     19  C   LIG    1       23.020 -19.203   5.735  0.00  0.00    +0.141 C 
BRANCH  16  20
ATOM     20  S   LIG    1       25.543 -20.492   5.546  0.00  0.00    +0.032 S 
ATOM     21  O   LIG    1       25.409 -20.727   6.967  0.00  0.00    -0.158 OA
ATOM     22  O   LIG    1       25.487 -21.572   4.586  0.00  0.00    -0.158 OA
BRANCH  20  24
ATOM     23  C   LIG    1       28.183 -19.983   6.090  0.00  0.00    +0.030 C 
ATOM     24  C   LIG    1       27.015 -19.519   5.247  0.00  0.00    +0.182 C 
ENDBRANCH  20  24
ENDBRANCH  16  20
BRANCH  18  25
ATOM     25  C   LIG    1       21.160 -18.879   3.900  0.00  0.00    +0.151 C 
BRANCH  25  26
ATOM     26  C   LIG    1       20.866 -20.302   4.162  0.00  0.00    +0.065 C 
ATOM     27  N   LIG    1       20.678 -21.417   4.405  0.00  0.00    -0.197 NA
ENDBRANCH  25  26
ENDBRANCH  18  25
ENDBRANCH   1  18
TORSDOF 6
ENDMDL
MODEL 2
REMARK VINA RESULT:      -0.3      3.806      7.692
REMARK  Name = *****
REMARK                            x       y       z     vdW  Elec       q    Type
REMARK                         _______ _______ _______ _____ _____    ______ ____
ROOT
ATOM      1  N   LIG    1       27.297 -15.935   3.826  0.00  0.00    -0.261 N 
ATOM      2  N   LIG    1       28.347 -16.635   4.305  0.00  0.00    -0.178 NA
ATOM      3  C   LIG    1       27.876 -17.880   4.432  0.00  0.00    +0.144 A 
ATOM      4  C   LIG    1       26.537 -18.002   4.013  0.00  0.00    +0.038 A 
ATOM      5  C   LIG    1       26.204 -16.730   3.605  0.00  0.00    +0.119 A 
ENDROOT
BRANCH   4   6
ATOM      6  C   LIG    1       25.611 -19.108   3.982  0.00  0.00    +0.086 A 
ATOM      7  C   LIG    1       25.328 -19.883   5.110  0.00  0.00    +0.045 A 
ATOM      8  C   LIG    1       24.417 -20.912   4.911  0.00  0.00    +0.142 A 
ATOM      9  N   LIG    1       24.249 -21.571   6.098  0.00  0.00    -0.346 N 
ATOM     10  H   LIG    1       23.630 -22.360   6.218  0.00  0.00    +0.167 HD
ATOM     11  C   LIG    1       25.039 -20.999   7.060  0.00  0.00    +0.085 A 
ATOM     12  N   LIG    1       23.790 -21.234   3.772  0.00  0.00    -0.218 NA
ATOM     13  C   LIG    1       24.148 -20.425   2.762  0.00  0.00    +0.224 A 
ATOM     14  C   LIG    1       25.725 -19.954   6.476  0.00  0.00    +0.031 A 
ATOM     15  N   LIG    1       25.017 -19.398   2.795  0.00  0.00    -0.235 NA
ENDBRANCH   4   6
BRANCH   1  18
ATOM     16  N   LIG    1       25.354 -13.779   3.610  0.00  0.00    -0.176 NA
ATOM     17  C   LIG    1       26.342 -14.041   2.527  0.00  0.00    +0.141 C 
ATOM     18  C   LIG    1       27.382 -14.498   3.605  0.00  0.00    +0.105 C 
ATOM     19  C   LIG    1       26.484 -13.673   4.575  0.00  0.00    +0.141 C 
BRANCH  16  20
ATOM     20  S   LIG    1       24.001 -12.790   3.518  0.00  0.00    +0.032 S 
ATOM     21  O   LIG    1       23.952 -12.019   4.741  0.00  0.00    -0.158 OA
ATOM     22  O   LIG    1       24.018 -12.156   2.218  0.00  0.00    -0.158 OA
BRANCH  20  24
ATOM     23  C   LIG    1       23.119 -15.258   4.325  0.00  0.00    +0.030 C 
ATOM     24  C   LIG    1       22.708 -14.026   3.548  0.00  0.00    +0.182 C 
ENDBRANCH  20  24
ENDBRANCH  16  20
BRANCH  18  25
ATOM     25  C   LIG    1       28.801 -13.998   3.368  0.00  0.00    +0.151 C 
BRANCH  25  26
ATOM     26  C   LIG    1       29.059 -12.738   4.092  0.00  0.00    +0.065 C 
ATOM     27  N   LIG    1       29.315 -11.751   4.637  0.00  0.00    -0.197 NA
ENDBRANCH  25  26
ENDBRANCH  18  25
ENDBRANCH   1  18
TORSDOF 6
ENDMDL
MODEL 3
REMARK VINA RESULT:       0.4      3.589      7.748
REMARK  Name = *****
REMARK                            x       y       z     vdW  Elec       q    Type
REMARK                         _______ _______ _______ _____ _____    ______ ____
ROOT
ATOM      1  N   LIG    1       27.086 -15.978   3.710  0.00  0.00    -0.261 N 
ATOM      2  N   LIG    1       28.137 -16.743   4.076  0.00  0.00    -0.178 NA
ATOM      3  C   LIG    1       27.609 -17.958   4.251  0.00  0.00    +0.144 A 
ATOM      4  C   LIG    1       26.229 -17.998   3.976  0.00  0.00    +0.038 A 
ATOM      5  C   LIG    1       25.931 -16.706   3.606  0.00  0.00    +0.119 A 
ENDROOT
BRANCH   4   6
ATOM      6  C   LIG    1       25.241 -19.048   4.043  0.00  0.00    +0.086 A 
ATOM      7  C   LIG    1       23.869 -18.788   4.082  0.00  0.00    +0.045 A 
ATOM      8  C   LIG    1       23.052 -19.909   4.148  0.00  0.00    +0.142 A 
ATOM      9  N   LIG    1       21.750 -19.490   4.181  0.00  0.00    -0.346 N 
ATOM     10  H   LIG    1       20.961 -20.117   4.225  0.00  0.00    +0.167 HD
ATOM     11  C   LIG    1       21.705 -18.120   4.150  0.00  0.00    +0.085 A 
ATOM     12  N   LIG    1       23.434 -21.193   4.175  0.00  0.00    -0.218 NA
ATOM     13  C   LIG    1       24.771 -21.314   4.139  0.00  0.00    +0.224 A 
ATOM     14  C   LIG    1       23.003 -17.657   4.095  0.00  0.00    +0.031 A 
ATOM     15  N   LIG    1       25.688 -20.330   4.083  0.00  0.00    -0.235 NA
ENDBRANCH   4   6
BRANCH   1  18
ATOM     16  N   LIG    1       25.233 -13.760   3.374  0.00  0.00    -0.176 NA
ATOM     17  C   LIG    1       26.266 -14.066   2.346  0.00  0.00    +0.141 C 
ATOM     18  C   LIG    1       27.232 -14.548   3.482  0.00  0.00    +0.105 C 
ATOM     19  C   LIG    1       26.313 -13.682   4.396  0.00  0.00    +0.141 C 
BRANCH  16  20
ATOM     20  S   LIG    1       23.921 -12.726   3.202  0.00  0.00    +0.032 S 
ATOM     21  O   LIG    1       24.065 -12.063   1.924  0.00  0.00    -0.158 OA
ATOM     22  O   LIG    1       22.733 -13.478   3.540  0.00  0.00    -0.158 OA
BRANCH  20  24
ATOM     23  C   LIG    1       23.118 -11.447   5.491  0.00  0.00    +0.030 C 
ATOM     24  C   LIG    1       24.268 -11.560   4.514  0.00  0.00    +0.182 C 
ENDBRANCH  20  24
ENDBRANCH  16  20
BRANCH  18  25
ATOM     25  C   LIG    1       28.678 -14.099   3.316  0.00  0.00    +0.151 C 
BRANCH  25  26
ATOM     26  C   LIG    1       28.948 -12.855   4.063  0.00  0.00    +0.065 C 
ATOM     27  N   LIG    1       29.118 -11.896   4.686  0.00  0.00    -0.197 NA
ENDBRANCH  25  26
ENDBRANCH  18  25
ENDBRANCH   1  18
TORSDOF 6
ENDMDL
MODEL 4
REMARK VINA RESULT:       0.8      2.066      4.585
REMARK  Name = *****
REMARK                            x       y       z     vdW  Elec       q    Type
REMARK                         _______ _______ _______ _____ _____    ______ ____
ROOT
ATOM      1  N   LIG    1       27.135 -18.485   4.594  0.00  0.00    -0.261 N 
ATOM      2  N   LIG    1       28.362 -17.986   4.858  0.00  0.00    -0.178 NA
ATOM      3  C   LIG    1       28.298 -16.722   4.430  0.00  0.00    +0.144 A 
ATOM      4  C   LIG    1       27.032 -16.384   3.915  0.00  0.00    +0.038 A 
ATOM      5  C   LIG    1       26.300 -17.541   4.060  0.00  0.00    +0.119 A 
ENDROOT
BRANCH   4   6
ATOM      6  C   LIG    1       26.496 -15.179   3.329  0.00  0.00    +0.086 A 
ATOM      7  C   LIG    1       25.205 -14.720   3.602  0.00  0.00    +0.045 A 
ATOM      8  C   LIG    1       24.841 -13.546   2.955  0.00  0.00    +0.142 A 
ATOM      9  N   LIG    1       23.561 -13.233   3.323  0.00  0.00    -0.346 N 
ATOM     10  H   LIG    1       23.066 -12.419   2.990  0.00  0.00    +0.167 HD
ATOM     11  C   LIG    1       23.083 -14.184   4.185  0.00  0.00    +0.085 A 
ATOM     12  N   LIG    1       25.586 -12.818   2.112  0.00  0.00    -0.218 NA
ATOM     13  C   LIG    1       26.799 -13.362   1.925  0.00  0.00    +0.224 A 
ATOM     14  C   LIG    1       24.076 -15.123   4.372  0.00  0.00    +0.031 A 
ATOM     15  N   LIG    1       27.291 -14.490   2.470  0.00  0.00    -0.235 NA
ENDBRANCH   4   6
BRANCH   1  18
ATOM     16  N   LIG    1       24.688 -19.937   5.200  0.00  0.00    -0.176 NA
ATOM     17  C   LIG    1       25.869 -20.002   6.104  0.00  0.00    +0.141 C 
ATOM     18  C   LIG    1       26.811 -19.879   4.858  0.00  0.00    +0.105 C 
ATOM     19  C   LIG    1       25.559 -20.379   4.075  0.00  0.00    +0.141 C 
BRANCH  16  20
ATOM     20  S   LIG    1       23.130 -20.460   5.543  0.00  0.00    +0.032 S 
ATOM     21  O   LIG    1       22.744 -21.372   4.489  0.00  0.00    -0.158 OA
ATOM     22  O   LIG    1       23.103 -20.850   6.935  0.00  0.00    -0.158 OA
BRANCH  20  24
ATOM     23  C   LIG    1       22.384 -18.351   3.956  0.00  0.00    +0.030 C 
ATOM     24  C   LIG    1       22.234 -18.923   5.349  0.00  0.00    +0.182 C 
ENDBRANCH  20  24
ENDBRANCH  16  20
BRANCH  18  25
ATOM     25  C   LIG    1       28.027 -20.795   4.892  0.00  0.00    +0.151 C 
BRANCH  25  26
ATOM     26  C   LIG    1       28.830 -20.585   6.113  0.00  0.00    +0.065 C 
ATOM     27  N   LIG    1       29.464 -20.365   7.055  0.00  0.00    -0.197 NA
ENDBRANCH  25  26
ENDBRANCH  18  25
ENDBRANCH   1  18
TORSDOF 6
ENDMDL
MODEL 5
REMARK VINA RESULT:       1.6      1.787      2.596
REMARK  Name = *****
REMARK                            x       y       z     vdW  Elec       q    Type
REMARK                         _______ _______ _______ _____ _____    ______ ____
ROOT
ATOM      1  N   LIG    1       24.434 -18.449   4.073  0.00  0.00    -0.261 N 
ATOM      2  N   LIG    1       23.245 -17.912   4.421  0.00  0.00    -0.178 NA
ATOM      3  C   LIG    1       23.400 -16.605   4.188  0.00  0.00    +0.144 A 
ATOM      4  C   LIG    1       24.668 -16.289   3.667  0.00  0.00    +0.038 A 
ATOM      5  C   LIG    1       25.301 -17.509   3.583  0.00  0.00    +0.119 A 
ENDROOT
BRANCH   4   6
ATOM      6  C   LIG    1       25.297 -15.047   3.289  0.00  0.00    +0.086 A 
ATOM      7  C   LIG    1       24.670 -13.808   3.447  0.00  0.00    +0.045 A 
ATOM      8  C   LIG    1       25.409 -12.709   3.031  0.00  0.00    +0.142 A 
ATOM      9  N   LIG    1       24.664 -11.583   3.249  0.00  0.00    -0.346 N 
ATOM     10  H   LIG    1       24.982 -10.650   3.033  0.00  0.00    +0.167 HD
ATOM     11  C   LIG    1       23.452 -11.929   3.787  0.00  0.00    +0.085 A 
ATOM     12  N   LIG    1       26.641 -12.710   2.504  0.00  0.00    -0.218 NA
ATOM     13  C   LIG    1       27.134 -13.954   2.397  0.00  0.00    +0.224 A 
ATOM     14  C   LIG    1       23.423 -13.302   3.915  0.00  0.00    +0.031 A 
ATOM     15  N   LIG    1       26.540 -15.111   2.746  0.00  0.00    -0.235 NA
ENDBRANCH   4   6
BRANCH   1  18
ATOM     16  N   LIG    1       26.621 -20.002   5.202  0.00  0.00    -0.176 NA
ATOM     17  C   LIG    1       26.165 -20.215   3.800  0.00  0.00    +0.141 C 
ATOM     18  C   LIG    1       24.702 -19.871   4.240  0.00  0.00    +0.105 C 
ATOM     19  C   LIG    1       25.224 -20.236   5.662  0.00  0.00    +0.141 C 
BRANCH  16  20
ATOM     20  S   LIG    1       28.031 -20.588   5.899  0.00  0.00    +0.032 S 
ATOM     21  O   LIG    1       27.643 -21.380   7.046  0.00  0.00    -0.158 OA
ATOM     22  O   LIG    1       28.843 -21.136   4.834  0.00  0.00    -0.158 OA
BRANCH  20  24
ATOM     23  C   LIG    1       28.629 -17.952   5.434  0.00  0.00    +0.030 C 
ATOM     24  C   LIG    1       28.763 -19.055   6.462  0.00  0.00    +0.182 C 
ENDBRANCH  20  24
ENDBRANCH  16  20
BRANCH  18  25
ATOM     25  C   LIG    1       23.631 -20.770   3.634  0.00  0.00    +0.151 C 
BRANCH  25  26
ATOM     26  C   LIG    1       22.615 -21.152   4.634  0.00  0.00    +0.065 C 
ATOM     27  N   LIG    1       21.791 -21.479   5.376  0.00  0.00    -0.197 NA
ENDBRANCH  25  26
ENDBRANCH  18  25
ENDBRANCH   1  18
TORSDOF 6
ENDMDL
MODEL 6
REMARK VINA RESULT:       1.7      3.512      7.884
REMARK  Name = *****
REMARK                            x       y       z     vdW  Elec       q    Type
REMARK                         _______ _______ _______ _____ _____    ______ ____
ROOT
ATOM      1  N   LIG    1       27.788 -15.909   4.116  0.00  0.00    -0.261 N 
ATOM      2  N   LIG    1       29.005 -16.409   4.420  0.00  0.00    -0.178 NA
ATOM      3  C   LIG    1       28.755 -17.670   4.787  0.00  0.00    +0.144 A 
ATOM      4  C   LIG    1       27.391 -18.004   4.698  0.00  0.00    +0.038 A 
ATOM      5  C   LIG    1       26.800 -16.849   4.237  0.00  0.00    +0.119 A 
ENDROOT
BRANCH   4   6
ATOM      6  C   LIG    1       26.649 -19.205   4.999  0.00  0.00    +0.086 A 
ATOM      7  C   LIG    1       25.478 -19.554   4.321  0.00  0.00    +0.045 A 
ATOM      8  C   LIG    1       24.883 -20.740   4.733  0.00  0.00    +0.142 A 
ATOM      9  N   LIG    1       23.758 -20.939   3.981  0.00  0.00    -0.346 N 
ATOM     10  H   LIG    1       23.149 -21.737   4.086  0.00  0.00    +0.167 HD
ATOM     11  C   LIG    1       23.604 -19.903   3.098  0.00  0.00    +0.085 A 
ATOM     12  N   LIG    1       25.307 -21.571   5.695  0.00  0.00    -0.218 NA
ATOM     13  C   LIG    1       26.433 -21.125   6.275  0.00  0.00    +0.224 A 
ATOM     14  C   LIG    1       24.651 -19.026   3.289  0.00  0.00    +0.031 A 
ATOM     15  N   LIG    1       27.118 -20.001   5.994  0.00  0.00    -0.235 NA
ENDBRANCH   4   6
BRANCH   1  18
ATOM     16  N   LIG    1       25.496 -14.158   3.735  0.00  0.00    -0.176 NA
ATOM     17  C   LIG    1       26.488 -14.380   2.647  0.00  0.00    +0.141 C 
ATOM     18  C   LIG    1       27.616 -14.517   3.725  0.00  0.00    +0.105 C 
ATOM     19  C   LIG    1       26.612 -13.743   4.630  0.00  0.00    +0.141 C 
BRANCH  16  20
ATOM     20  S   LIG    1       23.989 -13.432   3.587  0.00  0.00    +0.032 S 
ATOM     21  O   LIG    1       23.741 -13.249   2.174  0.00  0.00    -0.158 OA
ATOM     22  O   LIG    1       23.073 -14.165   4.433  0.00  0.00    -0.158 OA
BRANCH  20  24
ATOM     23  C   LIG    1       23.268 -11.447   5.336  0.00  0.00    +0.030 C 
ATOM     24  C   LIG    1       24.332 -11.844   4.336  0.00  0.00    +0.182 C 
ENDBRANCH  20  24
ENDBRANCH  16  20
BRANCH  18  25
ATOM     25  C   LIG    1       28.921 -13.816   3.368  0.00  0.00    +0.151 C 
BRANCH  25  26
ATOM     26  C   LIG    1       29.139 -12.619   4.203  0.00  0.00    +0.065 C 
ATOM     27  N   LIG    1       29.252 -11.677   4.863  0.00  0.00    -0.197 NA
ENDBRANCH  25  26
ENDBRANCH  18  25
ENDBRANCH   1  18
TORSDOF 6
ENDMDL
