MODEL 1
REMARK VINA RESULT:       0.7      0.000      0.000
REMARK  Name = *****
REMARK                            x       y       z     vdW  Elec       q    Type
REMARK                         _______ _______ _______ _____ _____    ______ ____
ROOT
ATOM      1  C   LIG    1       26.452 -14.384   3.191  0.00  0.00    +0.065 C 
ATOM      2  C   LIG    1       25.553 -15.630   3.260  0.00  0.00    +0.102 C 
ATOM      3  C   LIG    1       26.381 -16.870   3.631  0.00  0.00    +0.065 C 
ATOM      4  C   LIG    1       27.556 -16.730   4.295  0.00  0.00    +0.016 C 
ATOM      5  C   LIG    1       28.478 -17.852   4.695  0.00  0.00    +0.061 C 
ATOM      6  N   LIG    1       28.019 -15.455   4.601  0.00  0.00    -0.321 N 
ATOM      7  H   LIG    1       28.962 -15.409   4.985  0.00  0.00    +0.152 HD
ATOM      8  C   LIG    1       27.604 -14.328   3.900  0.00  0.00    +0.016 C 
ATOM      9  C   LIG    1       28.504 -13.130   4.011  0.00  0.00    +0.061 C 
ENDROOT
BRANCH   2  10
ATOM     10  C   LIG    1       24.363 -15.418   4.220  0.00  0.00    +0.042 A 
ATOM     11  C   LIG    1       24.250 -14.353   5.140  0.00  0.00    +0.277 A 
ATOM     12  C   LIG    1       23.111 -14.193   5.954  0.00  0.00    +0.084 A 
ATOM     13  C   LIG    1       22.065 -15.109   5.880  0.00  0.00    +0.007 A 
ATOM     14  C   LIG    1       22.156 -16.180   5.001  0.00  0.00    +0.001 A 
ATOM     15  C   LIG    1       23.278 -16.325   4.179  0.00  0.00    +0.011 A 
BRANCH  11  16
ATOM     16  N   LIG    1       25.309 -13.370   5.344  0.00  0.00    +0.080 N 
ATOM     17  O   LIG    1       25.118 -12.230   4.898  0.00  0.00    -0.576 OA
ATOM     18  O   LIG    1       26.276 -13.710   6.039  0.00  0.00    +0.042 OA
ENDBRANCH  11  16
ENDBRANCH   2  10
BRANCH   1  19
ATOM     19  C   LIG    1       26.072 -13.323   2.223  0.00  0.00    +0.337 C 
ATOM     20  O   LIG    1       26.818 -12.459   1.813  0.00  0.00    -0.245 OA
BRANCH  19  22
ATOM     21  C   LIG    1       23.886 -12.474   1.954  0.00  0.00    +0.280 C 
ATOM     22  O   LIG    1       24.809 -13.557   1.812  0.00  0.00    -0.465 OA
ENDBRANCH  19  22
ENDBRANCH   1  19
BRANCH   3  23
ATOM     23  C   LIG    1       25.831 -18.157   3.130  0.00  0.00    +0.338 C 
ATOM     24  O   LIG    1       25.987 -18.554   1.989  0.00  0.00    -0.245 OA
BRANCH  23  25
ATOM     25  O   LIG    1       25.199 -18.831   4.111  0.00  0.00    -0.461 OA
BRANCH  25  26
ATOM     26  C   LIG    1       24.706 -20.148   3.843  0.00  0.00    +0.235 C 
BRANCH  26  27
ATOM     27  C   LIG    1       24.078 -20.768   5.102  0.00  0.00    +0.021 C 
ATOM     28  C   LIG    1       22.834 -19.999   5.547  0.00  0.00    +0.010 C 
ATOM     29  C   LIG    1       25.078 -20.853   6.259  0.00  0.00    +0.010 C 
ENDBRANCH  26  27
ENDBRANCH  25  26
ENDBRANCH  23  25
ENDBRANCH   3  23
TORSDOF 8
ENDMDL
