MODEL 1
REMARK VINA RESULT:      -9.5      0.000      0.000
REMARK  Name = *****
REMARK                            x       y       z     vdW  Elec       q    Type
REMARK                         _______ _______ _______ _____ _____    ______ ____
ROOT
ATOM      1  C   LIG    1       30.052 -21.030   8.216  0.00  0.00    +0.125 A 
ATOM      2  C   LIG    1       30.219 -20.050   7.237  0.00  0.00    +0.069 A 
ATOM      3 CL   LIG    1       31.693 -19.180   7.003  0.00  0.00    -0.082 Cl
ATOM      4  C   LIG    1       29.145 -19.719   6.392  0.00  0.00    +0.047 A 
ATOM      5  C   LIG    1       27.903 -20.366   6.487  0.00  0.00    +0.057 A 
ATOM      6  N   LIG    1       26.844 -19.910   5.705  0.00  0.00    -0.326 N 
ATOM      7  H   LIG    1       27.143 -19.560   4.798  0.00  0.00    +0.148 HD
ATOM      8  C   LIG    1       25.574 -20.620   5.658  0.00  0.00    +0.163 C 
ATOM      9  N   LIG    1       25.189 -20.972   7.016  0.00  0.00    -0.170 NA
ATOM     10  H   LIG    1       24.226 -21.278   7.130  0.00  0.00    +0.150 HD
ATOM     11  S   LIG    1       26.216 -22.105   7.687  0.00  0.00    +0.062 S 
ATOM     12  O   LIG    1       26.191 -23.281   6.848  0.00  0.00    -0.153 OA
ATOM     13  O   LIG    1       25.903 -22.172   9.097  0.00  0.00    -0.153 OA
ATOM     14  C   LIG    1       27.772 -21.328   7.488  0.00  0.00    +0.128 A 
ATOM     15  C   LIG    1       28.818 -21.673   8.349  0.00  0.00    +0.060 A 
ENDROOT
BRANCH   8  16
ATOM     16  C   LIG    1       24.499 -19.678   5.086  0.00  0.00    +0.033 C 
ATOM     17  C   LIG    1       23.927 -20.070   3.694  0.00  0.00    +0.018 C 
ATOM     18  C   LIG    1       22.652 -19.217   3.667  0.00  0.00    +0.015 C 
ATOM     19  C   LIG    1       22.076 -19.861   4.929  0.00  0.00    +0.012 C 
ATOM     20  C   LIG    1       22.180 -21.312   4.520  0.00  0.00    -0.027 C 
ATOM     21  C   LIG    1       23.286 -21.438   3.771  0.00  0.00    -0.027 C 
ATOM     22  C   LIG    1       23.196 -19.593   5.955  0.00  0.00    +0.015 C 
ENDBRANCH   8  16
BRANCH   1  23
ATOM     23  S   LIG    1       31.385 -21.441   9.292  0.00  0.00    +0.057 S 
ATOM     24  O   LIG    1       32.295 -20.323   9.349  0.00  0.00    -0.153 OA
ATOM     25  O   LIG    1       30.855 -22.102  10.461  0.00  0.00    -0.153 OA
BRANCH  23  26
ATOM     26  N   LIG    1       32.238 -22.642   8.475  0.00  0.00    -0.203 NA
ATOM     27  H   LIG    1       32.208 -23.508   9.018  0.00  0.00    +0.144 HD
ATOM     28  H   LIG    1       31.857 -22.745   7.532  0.00  0.00    +0.144 HD
ENDBRANCH  23  26
ENDBRANCH   1  23
TORSDOF 3
ENDMDL
MODEL 2
REMARK VINA RESULT:      -9.2      1.341      1.789
REMARK  Name = *****
REMARK                            x       y       z     vdW  Elec       q    Type
REMARK                         _______ _______ _______ _____ _____    ______ ____
ROOT
ATOM      1  C   LIG    1       29.267 -20.217   7.629  0.00  0.00    +0.125 A 
ATOM      2  C   LIG    1       29.168 -19.531   6.417  0.00  0.00    +0.069 A 
ATOM      3 CL   LIG    1       30.323 -18.360   5.890  0.00  0.00    -0.082 Cl
ATOM      4  C   LIG    1       28.075 -19.773   5.567  0.00  0.00    +0.047 A 
ATOM      5  C   LIG    1       27.080 -20.708   5.890  0.00  0.00    +0.057 A 
ATOM      6  N   LIG    1       25.961 -20.814   5.066  0.00  0.00    -0.326 N 
ATOM      7  H   LIG    1       26.173 -20.647   4.086  0.00  0.00    +0.148 HD
ATOM      8  C   LIG    1       24.963 -21.854   5.271  0.00  0.00    +0.163 C 
ATOM      9  N   LIG    1       24.653 -21.927   6.690  0.00  0.00    -0.170 NA
ATOM     10  H   LIG    1       23.823 -22.462   6.928  0.00  0.00    +0.150 HD
ATOM     11  S   LIG    1       25.948 -22.481   7.589  0.00  0.00    +0.062 S 
ATOM     12  O   LIG    1       26.304 -23.792   7.095  0.00  0.00    -0.153 OA
ATOM     13  O   LIG    1       25.620 -22.258   8.979  0.00  0.00    -0.153 OA
ATOM     14  C   LIG    1       27.206 -21.361   7.116  0.00  0.00    +0.128 A 
ATOM     15  C   LIG    1       28.278 -21.136   7.987  0.00  0.00    +0.060 A 
ENDROOT
BRANCH   8  16
ATOM     16  C   LIG    1       23.676 -21.462   4.521  0.00  0.00    +0.033 C 
ATOM     17  C   LIG    1       22.432 -21.184   5.412  0.00  0.00    +0.018 C 
ATOM     18  C   LIG    1       21.540 -20.432   4.415  0.00  0.00    +0.015 C 
ATOM     19  C   LIG    1       22.565 -19.322   4.184  0.00  0.00    +0.012 C 
ATOM     20  C   LIG    1       22.815 -18.930   5.622  0.00  0.00    -0.027 C 
ATOM     21  C   LIG    1       22.727 -20.045   6.362  0.00  0.00    -0.027 C 
ATOM     22  C   LIG    1       23.793 -20.126   3.709  0.00  0.00    +0.015 C 
ENDBRANCH   8  16
BRANCH   1  23
ATOM     23  S   LIG    1       30.624 -19.910   8.710  0.00  0.00    +0.057 S 
ATOM     24  O   LIG    1       31.836 -19.865   7.929  0.00  0.00    -0.153 OA
ATOM     25  O   LIG    1       30.244 -18.890   9.657  0.00  0.00    -0.153 OA
BRANCH  23  26
ATOM     26  N   LIG    1       30.763 -21.315   9.630  0.00  0.00    -0.203 NA
ATOM     27  H   LIG    1       30.570 -22.126   9.039  0.00  0.00    +0.144 HD
ATOM     28  H   LIG    1       31.687 -21.343  10.065  0.00  0.00    +0.144 HD
ENDBRANCH  23  26
ENDBRANCH   1  23
TORSDOF 3
ENDMDL
MODEL 3
REMARK VINA RESULT:      -8.2      3.579      4.599
REMARK  Name = *****
REMARK                            x       y       z     vdW  Elec       q    Type
REMARK                         _______ _______ _______ _____ _____    ______ ____
ROOT
ATOM      1  C   LIG    1       28.830 -19.954   6.777  0.00  0.00    +0.125 A 
ATOM      2  C   LIG    1       29.173 -20.963   7.678  0.00  0.00    +0.069 A 
ATOM      3 CL   LIG    1       30.673 -21.006   8.533  0.00  0.00    -0.082 Cl
ATOM      4  C   LIG    1       28.278 -22.022   7.912  0.00  0.00    +0.047 A 
ATOM      5  C   LIG    1       27.028 -22.086   7.278  0.00  0.00    +0.057 A 
ATOM      6  N   LIG    1       26.239 -23.221   7.457  0.00  0.00    -0.326 N 
ATOM      7  H   LIG    1       26.337 -23.630   8.382  0.00  0.00    +0.148 HD
ATOM      8  C   LIG    1       24.880 -23.291   6.938  0.00  0.00    +0.163 C 
ATOM      9  N   LIG    1       24.878 -22.786   5.574  0.00  0.00    -0.170 NA
ATOM     10  H   LIG    1       24.037 -22.982   5.038  0.00  0.00    +0.150 HD
ATOM     11  S   LIG    1       25.211 -21.151   5.507  0.00  0.00    +0.062 S 
ATOM     12  O   LIG    1       24.209 -20.461   6.289  0.00  0.00    -0.153 OA
ATOM     13  O   LIG    1       25.445 -20.826   4.118  0.00  0.00    -0.153 OA
ATOM     14  C   LIG    1       26.729 -21.068   6.373  0.00  0.00    +0.128 A 
ATOM     15  C   LIG    1       27.602 -20.006   6.114  0.00  0.00    +0.060 A 
ENDROOT
BRANCH   8  16
ATOM     16  C   LIG    1       24.437 -24.765   6.903  0.00  0.00    +0.033 C 
ATOM     17  C   LIG    1       24.026 -25.315   5.507  0.00  0.00    +0.018 C 
ATOM     18  C   LIG    1       24.086 -26.825   5.775  0.00  0.00    +0.015 C 
ATOM     19  C   LIG    1       25.563 -26.796   6.171  0.00  0.00    +0.012 C 
ATOM     20  C   LIG    1       26.117 -26.088   4.955  0.00  0.00    -0.027 C 
ATOM     21  C   LIG    1       25.192 -25.205   4.551  0.00  0.00    -0.027 C 
ATOM     22  C   LIG    1       25.556 -25.778   7.329  0.00  0.00    +0.015 C 
ENDBRANCH   8  16
BRANCH   1  23
ATOM     23  S   LIG    1       29.951 -18.630   6.465  0.00  0.00    +0.057 S 
ATOM     24  O   LIG    1       29.883 -17.698   7.564  0.00  0.00    -0.153 OA
ATOM     25  O   LIG    1       31.185 -19.176   5.952  0.00  0.00    -0.153 OA
BRANCH  23  26
ATOM     26  N   LIG    1       29.278 -17.801   5.162  0.00  0.00    -0.203 NA
ATOM     27  H   LIG    1       28.259 -17.848   5.221  0.00  0.00    +0.144 HD
ATOM     28  H   LIG    1       29.637 -16.844   5.149  0.00  0.00    +0.144 HD
ENDBRANCH  23  26
ENDBRANCH   1  23
TORSDOF 3
ENDMDL
MODEL 4
REMARK VINA RESULT:      -7.2      7.947      9.087
REMARK  Name = *****
REMARK                            x       y       z     vdW  Elec       q    Type
REMARK                         _______ _______ _______ _____ _____    ______ ____
ROOT
ATOM      1  C   LIG    1       25.141 -30.777   9.804  0.00  0.00    +0.125 A 
ATOM      2  C   LIG    1       25.900 -29.766  10.397  0.00  0.00    +0.069 A 
ATOM      3 CL   LIG    1       26.378 -29.785  12.056  0.00  0.00    -0.082 Cl
ATOM      4  C   LIG    1       26.297 -28.654   9.633  0.00  0.00    +0.047 A 
ATOM      5  C   LIG    1       25.970 -28.537   8.273  0.00  0.00    +0.057 A 
ATOM      6  N   LIG    1       26.287 -27.356   7.604  0.00  0.00    -0.326 N 
ATOM      7  H   LIG    1       27.148 -26.930   7.936  0.00  0.00    +0.148 HD
ATOM      8  C   LIG    1       26.098 -27.225   6.166  0.00  0.00    +0.163 C 
ATOM      9  N   LIG    1       24.791 -27.761   5.819  0.00  0.00    -0.170 NA
ATOM     10  H   LIG    1       24.459 -27.532   4.886  0.00  0.00    +0.150 HD
ATOM     11  S   LIG    1       24.708 -29.413   6.049  0.00  0.00    +0.062 S 
ATOM     12  O   LIG    1       25.726 -30.028   5.227  0.00  0.00    -0.153 OA
ATOM     13  O   LIG    1       23.316 -29.784   5.934  0.00  0.00    -0.153 OA
ATOM     14  C   LIG    1       25.198 -29.559   7.723  0.00  0.00    +0.128 A 
ATOM     15  C   LIG    1       24.781 -30.673   8.458  0.00  0.00    +0.060 A 
ENDROOT
BRANCH   8  16
ATOM     16  C   LIG    1       26.113 -25.729   5.798  0.00  0.00    +0.033 C 
ATOM     17  C   LIG    1       24.920 -25.234   4.932  0.00  0.00    +0.018 C 
ATOM     18  C   LIG    1       25.035 -23.718   5.143  0.00  0.00    +0.015 C 
ATOM     19  C   LIG    1       24.876 -23.818   6.661  0.00  0.00    +0.012 C 
ATOM     20  C   LIG    1       23.599 -24.626   6.710  0.00  0.00    -0.027 C 
ATOM     21  C   LIG    1       23.620 -25.470   5.668  0.00  0.00    -0.027 C 
ATOM     22  C   LIG    1       26.033 -24.767   7.034  0.00  0.00    +0.015 C 
ENDBRANCH   8  16
BRANCH   1  23
ATOM     23  S   LIG    1       24.624 -32.167  10.755  0.00  0.00    +0.057 S 
ATOM     24  O   LIG    1       25.789 -32.937  11.119  0.00  0.00    -0.153 OA
ATOM     25  O   LIG    1       23.620 -31.738  11.700  0.00  0.00    -0.153 OA
BRANCH  23  26
ATOM     26  N   LIG    1       23.791 -33.144   9.664  0.00  0.00    -0.203 NA
ATOM     27  H   LIG    1       24.131 -32.959   8.718  0.00  0.00    +0.144 HD
ATOM     28  H   LIG    1       23.890 -34.122   9.944  0.00  0.00    +0.144 HD
ENDBRANCH  23  26
ENDBRANCH   1  23
TORSDOF 3
ENDMDL
MODEL 5
REMARK VINA RESULT:      -6.7      6.763      8.252
REMARK  Name = *****
REMARK                            x       y       z     vdW  Elec       q    Type
REMARK                         _______ _______ _______ _____ _____    ______ ____
ROOT
ATOM      1  C   LIG    1       25.083 -23.087   6.265  0.00  0.00    +0.125 A 
ATOM      2  C   LIG    1       23.784 -23.412   6.658  0.00  0.00    +0.069 A 
ATOM      3 CL   LIG    1       22.622 -22.241   7.169  0.00  0.00    -0.082 Cl
ATOM      4  C   LIG    1       23.375 -24.758   6.665  0.00  0.00    +0.047 A 
ATOM      5  C   LIG    1       24.233 -25.793   6.263  0.00  0.00    +0.057 A 
ATOM      6  N   LIG    1       23.810 -27.113   6.408  0.00  0.00    -0.326 N 
ATOM      7  H   LIG    1       22.810 -27.227   6.266  0.00  0.00    +0.148 HD
ATOM      8  C   LIG    1       24.596 -28.223   5.887  0.00  0.00    +0.163 C 
ATOM      9  N   LIG    1       25.990 -28.013   6.244  0.00  0.00    -0.170 NA
ATOM     10  H   LIG    1       26.597 -28.819   6.124  0.00  0.00    +0.150 HD
ATOM     11  S   LIG    1       26.650 -26.697   5.456  0.00  0.00    +0.062 S 
ATOM     12  O   LIG    1       26.536 -26.928   4.033  0.00  0.00    -0.153 OA
ATOM     13  O   LIG    1       27.926 -26.429   6.081  0.00  0.00    -0.153 OA
ATOM     14  C   LIG    1       25.527 -25.428   5.893  0.00  0.00    +0.128 A 
ATOM     15  C   LIG    1       25.966 -24.100   5.884  0.00  0.00    +0.060 A 
ENDROOT
BRANCH   8  16
ATOM     16  C   LIG    1       24.121 -29.525   6.559  0.00  0.00    +0.033 C 
ATOM     17  C   LIG    1       24.050 -30.775   5.636  0.00  0.00    +0.018 C 
ATOM     18  C   LIG    1       23.985 -31.892   6.687  0.00  0.00    +0.015 C 
ATOM     19  C   LIG    1       25.318 -31.501   7.327  0.00  0.00    +0.012 C 
ATOM     20  C   LIG    1       26.182 -31.499   6.086  0.00  0.00    -0.027 C 
ATOM     21  C   LIG    1       25.419 -31.072   5.069  0.00  0.00    -0.027 C 
ATOM     22  C   LIG    1       25.061 -30.029   7.708  0.00  0.00    +0.015 C 
ENDBRANCH   8  16
BRANCH   1  23
ATOM     23  S   LIG    1       25.612 -21.405   6.269  0.00  0.00    +0.057 S 
ATOM     24  O   LIG    1       25.377 -20.845   4.960  0.00  0.00    -0.153 OA
ATOM     25  O   LIG    1       25.178 -20.783   7.497  0.00  0.00    -0.153 OA
BRANCH  23  26
ATOM     26  N   LIG    1       27.289 -21.486   6.403  0.00  0.00    -0.203 NA
ATOM     27  H   LIG    1       27.546 -21.552   7.390  0.00  0.00    +0.144 HD
ATOM     28  H   LIG    1       27.635 -22.268   5.843  0.00  0.00    +0.144 HD
ENDBRANCH  23  26
ENDBRANCH   1  23
TORSDOF 3
ENDMDL
MODEL 6
REMARK VINA RESULT:      -6.7      3.749      7.528
REMARK  Name = *****
REMARK                            x       y       z     vdW  Elec       q    Type
REMARK                         _______ _______ _______ _____ _____    ______ ____
ROOT
ATOM      1  C   LIG    1       26.338 -20.807   6.065  0.00  0.00    +0.125 A 
ATOM      2  C   LIG    1       26.587 -21.494   7.254  0.00  0.00    +0.069 A 
ATOM      3 CL   LIG    1       25.487 -22.635   7.941  0.00  0.00    -0.082 Cl
ATOM      4  C   LIG    1       27.779 -21.256   7.961  0.00  0.00    +0.047 A 
ATOM      5  C   LIG    1       28.748 -20.355   7.492  0.00  0.00    +0.057 A 
ATOM      6  N   LIG    1       29.850 -20.071   8.297  0.00  0.00    -0.326 N 
ATOM      7  H   LIG    1       30.153 -20.869   8.850  0.00  0.00    +0.148 HD
ATOM      8  C   LIG    1       30.953 -19.253   7.814  0.00  0.00    +0.163 C 
ATOM      9  N   LIG    1       30.405 -18.086   7.140  0.00  0.00    -0.170 NA
ATOM     10  H   LIG    1       31.069 -17.341   6.951  0.00  0.00    +0.150 HD
ATOM     11  S   LIG    1       29.605 -18.491   5.731  0.00  0.00    +0.062 S 
ATOM     12  O   LIG    1       30.546 -19.163   4.863  0.00  0.00    -0.153 OA
ATOM     13  O   LIG    1       28.887 -17.312   5.302  0.00  0.00    -0.153 OA
ATOM     14  C   LIG    1       28.455 -19.677   6.309  0.00  0.00    +0.128 A 
ATOM     15  C   LIG    1       27.275 -19.886   5.588  0.00  0.00    +0.060 A 
ENDROOT
BRANCH   8  16
ATOM     16  C   LIG    1       31.776 -18.766   9.021  0.00  0.00    +0.033 C 
ATOM     17  C   LIG    1       31.996 -17.229   9.113  0.00  0.00    +0.018 C 
ATOM     18  C   LIG    1       32.430 -17.098  10.579  0.00  0.00    +0.015 C 
ATOM     19  C   LIG    1       31.135 -17.709  11.118  0.00  0.00    +0.012 C 
ATOM     20  C   LIG    1       30.142 -16.821  10.405  0.00  0.00    -0.027 C 
ATOM     21  C   LIG    1       30.661 -16.525   9.204  0.00  0.00    -0.027 C 
ATOM     22  C   LIG    1       31.117 -19.078  10.409  0.00  0.00    +0.015 C 
ENDBRANCH   8  16
BRANCH   1  23
ATOM     23  S   LIG    1       24.840 -21.086   5.179  0.00  0.00    +0.057 S 
ATOM     24  O   LIG    1       23.729 -20.887   6.078  0.00  0.00    -0.153 OA
ATOM     25  O   LIG    1       24.943 -20.462   3.882  0.00  0.00    -0.153 OA
BRANCH  23  26
ATOM     26  N   LIG    1       24.837 -22.739   4.858  0.00  0.00    -0.203 NA
ATOM     27  H   LIG    1       25.793 -23.096   4.913  0.00  0.00    +0.144 HD
ATOM     28  H   LIG    1       24.194 -23.206   5.500  0.00  0.00    +0.144 HD
ENDBRANCH  23  26
ENDBRANCH   1  23
TORSDOF 3
ENDMDL
MODEL 7
REMARK VINA RESULT:      -6.5      8.818      9.773
REMARK  Name = *****
REMARK                            x       y       z     vdW  Elec       q    Type
REMARK                         _______ _______ _______ _____ _____    ______ ____
ROOT
ATOM      1  C   LIG    1       26.120 -30.399  12.076  0.00  0.00    +0.125 A 
ATOM      2  C   LIG    1       26.670 -29.150  11.779  0.00  0.00    +0.069 A 
ATOM      3 CL   LIG    1       27.534 -28.194  12.928  0.00  0.00    -0.082 Cl
ATOM      4  C   LIG    1       26.515 -28.609  10.490  0.00  0.00    +0.047 A 
ATOM      5  C   LIG    1       25.837 -29.302   9.475  0.00  0.00    +0.057 A 
ATOM      6  N   LIG    1       25.611 -28.662   8.257  0.00  0.00    -0.326 N 
ATOM      7  H   LIG    1       26.363 -28.028   7.997  0.00  0.00    +0.148 HD
ATOM      8  C   LIG    1       25.036 -29.370   7.123  0.00  0.00    +0.163 C 
ATOM      9  N   LIG    1       23.903 -30.153   7.591  0.00  0.00    -0.170 NA
ATOM     10  H   LIG    1       23.295 -30.518   6.863  0.00  0.00    +0.150 HD
ATOM     11  S   LIG    1       24.373 -31.399   8.599  0.00  0.00    +0.062 S 
ATOM     12  O   LIG    1       25.286 -32.245   7.864  0.00  0.00    -0.153 OA
ATOM     13  O   LIG    1       23.171 -31.927   9.203  0.00  0.00    -0.153 OA
ATOM     14  C   LIG    1       25.289 -30.538   9.816  0.00  0.00    +0.128 A 
ATOM     15  C   LIG    1       25.419 -31.099  11.091  0.00  0.00    +0.060 A 
ENDROOT
BRANCH   8  16
ATOM     16  C   LIG    1       24.515 -28.337   6.105  0.00  0.00    +0.033 C 
ATOM     17  C   LIG    1       24.536 -26.855   6.576  0.00  0.00    +0.018 C 
ATOM     18  C   LIG    1       24.389 -26.135   5.229  0.00  0.00    +0.015 C 
ATOM     19  C   LIG    1       25.656 -26.759   4.645  0.00  0.00    +0.012 C 
ATOM     20  C   LIG    1       26.627 -26.394   5.745  0.00  0.00    -0.027 C 
ATOM     21  C   LIG    1       25.953 -26.442   6.904  0.00  0.00    -0.027 C 
ATOM     22  C   LIG    1       25.354 -28.266   4.783  0.00  0.00    +0.015 C 
ENDBRANCH   8  16
BRANCH   1  23
ATOM     23  S   LIG    1       26.294 -31.079  13.692  0.00  0.00    +0.057 S 
ATOM     24  O   LIG    1       27.700 -31.187  13.999  0.00  0.00    -0.153 OA
ATOM     25  O   LIG    1       25.330 -30.456  14.566  0.00  0.00    -0.153 OA
BRANCH  23  26
ATOM     26  N   LIG    1       25.767 -32.672  13.543  0.00  0.00    -0.203 NA
ATOM     27  H   LIG    1       24.990 -32.832  14.188  0.00  0.00    +0.144 HD
ATOM     28  H   LIG    1       25.526 -32.858  12.568  0.00  0.00    +0.144 HD
ENDBRANCH  23  26
ENDBRANCH   1  23
TORSDOF 3
ENDMDL
