MODEL 1
REMARK VINA RESULT:     -10.4      0.000      0.000
REMARK  Name = *****
REMARK                            x       y       z     vdW  Elec       q    Type
REMARK                         _______ _______ _______ _____ _____    ______ ____
ROOT
ATOM      1  C   LIG    1       25.878 -21.394   6.834  0.00  0.00    +0.034 C 
ATOM      2  C   LIG    1       25.261 -20.588   5.654  0.00  0.00    -0.032 A 
ATOM      3  C   LIG    1       23.841 -20.660   5.600  0.00  0.00    -0.036 A 
ATOM      4  C   LIG    1       23.122 -20.004   4.607  0.00  0.00    +0.004 A 
ATOM      5  C   LIG    1       23.819 -19.267   3.651  0.00  0.00    +0.000 A 
ATOM      6  C   LIG    1       25.217 -19.195   3.689  0.00  0.00    +0.000 A 
ATOM      7  C   LIG    1       23.221 -21.518   6.696  0.00  0.00    +0.050 C 
ATOM      8  C   LIG    1       23.896 -22.883   6.656  0.00  0.00    -0.036 A 
ATOM      9  C   LIG    1       23.224 -24.096   6.543  0.00  0.00    +0.004 A 
ATOM     10  C   LIG    1       23.968 -25.273   6.491  0.00  0.00    +0.000 A 
ATOM     11  C   LIG    1       25.366 -25.234   6.546  0.00  0.00    +0.000 A 
ATOM     12  C   LIG    1       26.045 -24.016   6.658  0.00  0.00    +0.005 A 
ATOM     13  C   LIG    1       23.647 -20.866   8.030  0.00  0.00    +0.014 C 
ATOM     14  C   LIG    1       25.943 -19.855   4.686  0.00  0.00    +0.005 A 
ATOM     15  C   LIG    1       25.316 -22.833   6.720  0.00  0.00    -0.032 A 
ATOM     16  C   LIG    1       25.200 -20.790   8.118  0.00  0.00    +0.018 C 
ENDROOT
BRANCH   1  17
ATOM     17  C   LIG    1       27.431 -21.273   6.915  0.00  0.00    +0.097 C 
BRANCH  17  19
ATOM     18  C   LIG    1       29.136 -19.723   7.658  0.00  0.00    +0.101 C 
ATOM     19  N   LIG    1       27.949 -20.475   8.042  0.00  0.00    -0.318 NA
ATOM     20  H   LIG    1       27.233 -19.828   8.367  0.00  0.00    +0.122 HD
ENDBRANCH  17  19
ENDBRANCH   1  17
TORSDOF 2
ENDMDL
MODEL 2
REMARK VINA RESULT:      -9.1      1.838      4.881
REMARK  Name = *****
REMARK                            x       y       z     vdW  Elec       q    Type
REMARK                         _______ _______ _______ _____ _____    ______ ____
ROOT
ATOM      1  C   LIG    1       25.134 -21.102   6.006  0.00  0.00    +0.034 C 
ATOM      2  C   LIG    1       25.173 -22.657   5.937  0.00  0.00    -0.032 A 
ATOM      3  C   LIG    1       25.835 -23.256   7.045  0.00  0.00    -0.036 A 
ATOM      4  C   LIG    1       25.968 -24.636   7.145  0.00  0.00    +0.004 A 
ATOM      5  C   LIG    1       25.441 -25.436   6.132  0.00  0.00    +0.000 A 
ATOM      6  C   LIG    1       24.795 -24.857   5.033  0.00  0.00    +0.000 A 
ATOM      7  C   LIG    1       26.376 -22.257   8.060  0.00  0.00    +0.050 C 
ATOM      8  C   LIG    1       27.246 -21.256   7.309  0.00  0.00    -0.036 A 
ATOM      9  C   LIG    1       28.568 -20.961   7.625  0.00  0.00    +0.004 A 
ATOM     10  C   LIG    1       29.258 -20.042   6.837  0.00  0.00    +0.000 A 
ATOM     11  C   LIG    1       28.632 -19.432   5.743  0.00  0.00    +0.000 A 
ATOM     12  C   LIG    1       27.304 -19.729   5.420  0.00  0.00    +0.005 A 
ATOM     13  C   LIG    1       25.150 -21.467   8.566  0.00  0.00    +0.014 C 
ATOM     14  C   LIG    1       24.661 -23.468   4.928  0.00  0.00    +0.005 A 
ATOM     15  C   LIG    1       26.598 -20.637   6.204  0.00  0.00    -0.032 A 
ATOM     16  C   LIG    1       24.418 -20.789   7.371  0.00  0.00    +0.018 C 
ENDROOT
BRANCH   1  17
ATOM     17  C   LIG    1       24.368 -20.453   4.812  0.00  0.00    +0.097 C 
BRANCH  17  19
ATOM     18  C   LIG    1       22.422 -19.016   4.714  0.00  0.00    +0.101 C 
ATOM     19  N   LIG    1       22.904 -20.367   4.967  0.00  0.00    -0.318 NA
ATOM     20  H   LIG    1       22.448 -21.012   4.324  0.00  0.00    +0.122 HD
ENDBRANCH  17  19
ENDBRANCH   1  17
TORSDOF 2
ENDMDL
MODEL 3
REMARK VINA RESULT:      -8.0      2.103      4.600
REMARK  Name = *****
REMARK                            x       y       z     vdW  Elec       q    Type
REMARK                         _______ _______ _______ _____ _____    ______ ____
ROOT
ATOM      1  C   LIG    1       24.515 -22.660   5.834  0.00  0.00    +0.034 C 
ATOM      2  C   LIG    1       25.539 -22.058   6.839  0.00  0.00    -0.032 A 
ATOM      3  C   LIG    1       24.989 -21.041   7.667  0.00  0.00    -0.036 A 
ATOM      4  C   LIG    1       25.763 -20.389   8.621  0.00  0.00    +0.004 A 
ATOM      5  C   LIG    1       27.103 -20.748   8.756  0.00  0.00    +0.000 A 
ATOM      6  C   LIG    1       27.658 -21.742   7.940  0.00  0.00    +0.000 A 
ATOM      7  C   LIG    1       23.520 -20.743   7.392  0.00  0.00    +0.050 C 
ATOM      8  C   LIG    1       23.376 -20.451   5.903  0.00  0.00    -0.036 A 
ATOM      9  C   LIG    1       22.802 -19.301   5.373  0.00  0.00    +0.004 A 
ATOM     10  C   LIG    1       22.758 -19.149   3.988  0.00  0.00    +0.000 A 
ATOM     11  C   LIG    1       23.287 -20.136   3.148  0.00  0.00    +0.000 A 
ATOM     12  C   LIG    1       23.867 -21.292   3.678  0.00  0.00    +0.005 A 
ATOM     13  C   LIG    1       22.769 -22.068   7.646  0.00  0.00    +0.014 C 
ATOM     14  C   LIG    1       26.882 -22.398   6.979  0.00  0.00    +0.005 A 
ATOM     15  C   LIG    1       23.910 -21.463   5.058  0.00  0.00    -0.032 A 
ATOM     16  C   LIG    1       23.345 -23.194   6.738  0.00  0.00    +0.018 C 
ENDROOT
BRANCH   1  17
ATOM     17  C   LIG    1       25.112 -23.806   4.960  0.00  0.00    +0.097 C 
BRANCH  17  19
ATOM     18  C   LIG    1       25.366 -26.214   4.941  0.00  0.00    +0.101 C 
ATOM     19  N   LIG    1       24.426 -25.108   5.063  0.00  0.00    -0.318 NA
ATOM     20  H   LIG    1       23.943 -25.175   5.958  0.00  0.00    +0.122 HD
ENDBRANCH  17  19
ENDBRANCH   1  17
TORSDOF 2
ENDMDL
