MODEL 1
REMARK VINA RESULT:      -8.3      0.000      0.000
REMARK  Name = *****
REMARK                            x       y       z     vdW  Elec       q    Type
REMARK                         _______ _______ _______ _____ _____    ______ ____
ROOT
ATOM      1  C   LIG    1       27.955 -20.822   6.750  0.00  0.00    +0.124 A 
ATOM      2  C   LIG    1       29.230 -20.604   7.334  0.00  0.00    +0.000 A 
ATOM      3  C   LIG    1       29.779 -21.544   8.395  0.00  0.00    +0.073 C 
ATOM      4  C   LIG    1       31.262 -21.302   8.745  0.00  0.00    +0.148 C 
ATOM      5  C   LIG    1       31.568 -19.810   8.874  0.00  0.00    +0.147 C 
ATOM      6  C   LIG    1       31.298 -19.104   7.554  0.00  0.00    +0.069 C 
ATOM      7  C   LIG    1       29.965 -19.477   6.930  0.00  0.00    -0.038 A 
ATOM      8  C   LIG    1       29.488 -18.648   5.899  0.00  0.00    +0.004 A 
ATOM      9  C   LIG    1       28.276 -18.924   5.277  0.00  0.00    +0.004 A 
ATOM     10  C   LIG    1       27.527 -19.992   5.701  0.00  0.00    +0.046 A 
ENDROOT
BRANCH   5  11
ATOM     11  O   LIG    1       30.797 -19.240   9.944  0.00  0.00    -0.389 OA
ATOM     12  H   LIG    1       30.723 -19.910  10.650  0.00  0.00    +0.210 HD
ENDBRANCH   5  11
BRANCH   4  13
ATOM     13  O   LIG    1       31.577 -21.954   9.981  0.00  0.00    -0.389 OA
ATOM     14  H   LIG    1       30.751 -21.956  10.505  0.00  0.00    +0.210 HD
ENDBRANCH   4  13
BRANCH   1  15
ATOM     15  O   LIG    1       27.175 -21.828   7.258  0.00  0.00    -0.489 OA
BRANCH  15  16
ATOM     16  C   LIG    1       25.808 -21.455   7.536  0.00  0.00    +0.261 C 
BRANCH  16  17
ATOM     17  C   LIG    1       24.802 -22.439   6.947  0.00  0.00    +0.166 C 
BRANCH  17  18
ATOM     18  O   LIG    1       25.287 -22.988   5.722  0.00  0.00    -0.387 OA
ATOM     19  H   LIG    1       25.242 -22.250   5.083  0.00  0.00    +0.210 HD
ENDBRANCH  17  18
BRANCH  17  20
ATOM     20  C   LIG    1       23.417 -21.811   6.741  0.00  0.00    +0.116 C 
BRANCH  20  21
ATOM     21  N   LIG    1       23.461 -20.396   6.330  0.00  0.00    -0.309 NA
ATOM     22  H   LIG    1       22.974 -19.833   7.037  0.00  0.00    +0.122 HD
BRANCH  21  24
ATOM     23  C   LIG    1       23.978 -20.328   3.928  0.00  0.00    +0.027 C 
ATOM     24  C   LIG    1       22.881 -20.137   4.997  0.00  0.00    +0.011 C 
ATOM     25  C   LIG    1       21.762 -21.152   4.718  0.00  0.00    +0.027 C 
ATOM     26  C   LIG    1       22.338 -18.703   4.872  0.00  0.00    +0.027 C 
ENDBRANCH  21  24
ENDBRANCH  20  21
ENDBRANCH  17  20
ENDBRANCH  16  17
ENDBRANCH  15  16
ENDBRANCH   1  15
TORSDOF 9
ENDMDL
MODEL 2
REMARK VINA RESULT:      -8.3      2.824      7.161
REMARK  Name = *****
REMARK                            x       y       z     vdW  Elec       q    Type
REMARK                         _______ _______ _______ _____ _____    ______ ____
ROOT
ATOM      1  C   LIG    1       25.951 -21.773   7.307  0.00  0.00    +0.124 A 
ATOM      2  C   LIG    1       25.401 -23.050   7.020  0.00  0.00    +0.000 A 
ATOM      3  C   LIG    1       26.296 -24.258   6.798  0.00  0.00    +0.073 C 
ATOM      4  C   LIG    1       25.539 -25.601   6.735  0.00  0.00    +0.148 C 
ATOM      5  C   LIG    1       24.263 -25.483   5.900  0.00  0.00    +0.147 C 
ATOM      6  C   LIG    1       23.321 -24.464   6.525  0.00  0.00    +0.069 C 
ATOM      7  C   LIG    1       24.005 -23.167   6.914  0.00  0.00    -0.038 A 
ATOM      8  C   LIG    1       23.176 -22.065   7.189  0.00  0.00    +0.004 A 
ATOM      9  C   LIG    1       23.727 -20.841   7.553  0.00  0.00    +0.004 A 
ATOM     10  C   LIG    1       25.091 -20.704   7.607  0.00  0.00    +0.046 A 
ENDROOT
BRANCH   5  11
ATOM     11  O   LIG    1       24.593 -25.136   4.546  0.00  0.00    -0.389 OA
ATOM     12  H   LIG    1       23.901 -24.534   4.213  0.00  0.00    +0.210 HD
ENDBRANCH   5  11
BRANCH   4  13
ATOM     13  O   LIG    1       26.384 -26.605   6.161  0.00  0.00    -0.389 OA
ATOM     14  H   LIG    1       25.790 -27.329   5.878  0.00  0.00    +0.210 HD
ENDBRANCH   4  13
BRANCH   1  15
ATOM     15  O   LIG    1       27.313 -21.629   7.252  0.00  0.00    -0.489 OA
BRANCH  15  16
ATOM     16  C   LIG    1       27.800 -20.319   7.616  0.00  0.00    +0.261 C 
BRANCH  16  17
ATOM     17  C   LIG    1       28.515 -19.620   6.464  0.00  0.00    +0.166 C 
BRANCH  17  18
ATOM     18  O   LIG    1       28.210 -20.251   5.220  0.00  0.00    -0.387 OA
ATOM     19  H   LIG    1       28.970 -20.042   4.642  0.00  0.00    +0.210 HD
ENDBRANCH  17  18
BRANCH  17  20
ATOM     20  C   LIG    1       30.033 -19.549   6.670  0.00  0.00    +0.116 C 
BRANCH  20  21
ATOM     21  N   LIG    1       30.498 -18.268   7.231  0.00  0.00    -0.309 NA
ATOM     22  H   LIG    1       31.226 -17.885   6.617  0.00  0.00    +0.122 HD
BRANCH  21  24
ATOM     23  C   LIG    1       29.926 -17.849   9.585  0.00  0.00    +0.027 C 
ATOM     24  C   LIG    1       31.009 -18.365   8.613  0.00  0.00    +0.011 C 
ATOM     25  C   LIG    1       31.293 -19.836   8.954  0.00  0.00    +0.027 C 
ATOM     26  C   LIG    1       32.277 -17.519   8.821  0.00  0.00    +0.027 C 
ENDBRANCH  21  24
ENDBRANCH  20  21
ENDBRANCH  17  20
ENDBRANCH  16  17
ENDBRANCH  15  16
ENDBRANCH   1  15
TORSDOF 9
ENDMDL
MODEL 3
REMARK VINA RESULT:      -8.3      1.776      2.749
REMARK  Name = *****
REMARK                            x       y       z     vdW  Elec       q    Type
REMARK                         _______ _______ _______ _____ _____    ______ ____
ROOT
ATOM      1  C   LIG    1       28.049 -20.444   6.524  0.00  0.00    +0.124 A 
ATOM      2  C   LIG    1       29.269 -20.350   7.244  0.00  0.00    +0.000 A 
ATOM      3  C   LIG    1       29.621 -21.356   8.326  0.00  0.00    +0.073 C 
ATOM      4  C   LIG    1       31.073 -21.251   8.836  0.00  0.00    +0.148 C 
ATOM      5  C   LIG    1       31.487 -19.793   9.042  0.00  0.00    +0.147 C 
ATOM      6  C   LIG    1       31.419 -19.039   7.723  0.00  0.00    +0.069 C 
ATOM      7  C   LIG    1       30.134 -19.282   6.953  0.00  0.00    -0.038 A 
ATOM      8  C   LIG    1       29.839 -18.392   5.904  0.00  0.00    +0.004 A 
ATOM      9  C   LIG    1       28.681 -18.548   5.151  0.00  0.00    +0.004 A 
ATOM     10  C   LIG    1       27.805 -19.557   5.462  0.00  0.00    +0.046 A 
ENDROOT
BRANCH   5  11
ATOM     11  O   LIG    1       30.657 -19.183  10.043  0.00  0.00    -0.389 OA
ATOM     12  H   LIG    1       30.756 -19.695  10.868  0.00  0.00    +0.210 HD
ENDBRANCH   5  11
BRANCH   4  13
ATOM     13  O   LIG    1       31.200 -21.954  10.078  0.00  0.00    -0.389 OA
ATOM     14  H   LIG    1       31.676 -22.784   9.871  0.00  0.00    +0.210 HD
ENDBRANCH   4  13
BRANCH   1  15
ATOM     15  O   LIG    1       27.138 -21.390   6.917  0.00  0.00    -0.489 OA
BRANCH  15  16
ATOM     16  C   LIG    1       25.973 -20.868   7.590  0.00  0.00    +0.261 C 
BRANCH  16  17
ATOM     17  C   LIG    1       24.683 -21.135   6.820  0.00  0.00    +0.166 C 
BRANCH  17  18
ATOM     18  O   LIG    1       23.608 -21.422   7.715  0.00  0.00    -0.387 OA
ATOM     19  H   LIG    1       24.036 -21.551   8.584  0.00  0.00    +0.210 HD
ENDBRANCH  17  18
BRANCH  17  20
ATOM     20  C   LIG    1       24.837 -22.260   5.789  0.00  0.00    +0.116 C 
BRANCH  20  21
ATOM     21  N   LIG    1       25.645 -23.397   6.265  0.00  0.00    -0.309 NA
ATOM     22  H   LIG    1       26.557 -23.373   5.795  0.00  0.00    +0.122 HD
BRANCH  21  24
ATOM     23  C   LIG    1       25.771 -25.772   6.887  0.00  0.00    +0.027 C 
ATOM     24  C   LIG    1       25.010 -24.715   6.060  0.00  0.00    +0.011 C 
ATOM     25  C   LIG    1       23.558 -24.670   6.563  0.00  0.00    +0.027 C 
ATOM     26  C   LIG    1       25.045 -25.149   4.584  0.00  0.00    +0.027 C 
ENDBRANCH  21  24
ENDBRANCH  20  21
ENDBRANCH  17  20
ENDBRANCH  16  17
ENDBRANCH  15  16
ENDBRANCH   1  15
TORSDOF 9
ENDMDL
MODEL 4
REMARK VINA RESULT:      -8.1      2.319      3.487
REMARK  Name = *****
REMARK                            x       y       z     vdW  Elec       q    Type
REMARK                         _______ _______ _______ _____ _____    ______ ____
ROOT
ATOM      1  C   LIG    1       28.069 -20.685   6.644  0.00  0.00    +0.124 A 
ATOM      2  C   LIG    1       29.317 -20.495   7.292  0.00  0.00    +0.000 A 
ATOM      3  C   LIG    1       29.813 -21.474   8.343  0.00  0.00    +0.073 C 
ATOM      4  C   LIG    1       31.280 -21.254   8.768  0.00  0.00    +0.148 C 
ATOM      5  C   LIG    1       31.587 -19.769   8.962  0.00  0.00    +0.147 C 
ATOM      6  C   LIG    1       31.380 -19.017   7.656  0.00  0.00    +0.069 C 
ATOM      7  C   LIG    1       30.075 -19.360   6.961  0.00  0.00    -0.038 A 
ATOM      8  C   LIG    1       29.649 -18.493   5.939  0.00  0.00    +0.004 A 
ATOM      9  C   LIG    1       28.464 -18.739   5.254  0.00  0.00    +0.004 A 
ATOM     10  C   LIG    1       27.692 -19.817   5.607  0.00  0.00    +0.046 A 
ENDROOT
BRANCH   5  11
ATOM     11  O   LIG    1       30.771 -19.232  10.015  0.00  0.00    -0.389 OA
ATOM     12  H   LIG    1       30.961 -18.277  10.085  0.00  0.00    +0.210 HD
ENDBRANCH   5  11
BRANCH   4  13
ATOM     13  O   LIG    1       31.536 -21.950   9.994  0.00  0.00    -0.389 OA
ATOM     14  H   LIG    1       32.508 -22.044  10.054  0.00  0.00    +0.210 HD
ENDBRANCH   4  13
BRANCH   1  15
ATOM     15  O   LIG    1       27.261 -21.703   7.082  0.00  0.00    -0.489 OA
BRANCH  15  16
ATOM     16  C   LIG    1       25.846 -21.467   6.922  0.00  0.00    +0.261 C 
BRANCH  16  17
ATOM     17  C   LIG    1       25.079 -22.736   6.563  0.00  0.00    +0.166 C 
BRANCH  17  18
ATOM     18  O   LIG    1       23.776 -22.723   7.146  0.00  0.00    -0.387 OA
ATOM     19  H   LIG    1       23.248 -23.328   6.589  0.00  0.00    +0.210 HD
ENDBRANCH  17  18
BRANCH  17  20
ATOM     20  C   LIG    1       25.832 -24.011   6.962  0.00  0.00    +0.116 C 
BRANCH  20  21
ATOM     21  N   LIG    1       26.182 -24.877   5.821  0.00  0.00    -0.309 NA
ATOM     22  H   LIG    1       25.873 -24.421   4.955  0.00  0.00    +0.122 HD
BRANCH  21  24
ATOM     23  C   LIG    1       24.074 -26.138   5.913  0.00  0.00    +0.027 C 
ATOM     24  C   LIG    1       25.614 -26.238   5.902  0.00  0.00    +0.011 C 
ATOM     25  C   LIG    1       26.031 -27.043   4.661  0.00  0.00    +0.027 C 
ATOM     26  C   LIG    1       26.053 -26.972   7.181  0.00  0.00    +0.027 C 
ENDBRANCH  21  24
ENDBRANCH  20  21
ENDBRANCH  17  20
ENDBRANCH  16  17
ENDBRANCH  15  16
ENDBRANCH   1  15
TORSDOF 9
ENDMDL
MODEL 5
REMARK VINA RESULT:      -7.9      2.959      7.650
REMARK  Name = *****
REMARK                            x       y       z     vdW  Elec       q    Type
REMARK                         _______ _______ _______ _____ _____    ______ ____
ROOT
ATOM      1  C   LIG    1       26.812 -20.362   6.583  0.00  0.00    +0.124 A 
ATOM      2  C   LIG    1       25.560 -20.599   5.957  0.00  0.00    +0.000 A 
ATOM      3  C   LIG    1       25.423 -20.583   4.444  0.00  0.00    +0.073 C 
ATOM      4  C   LIG    1       24.060 -21.091   3.929  0.00  0.00    +0.148 C 
ATOM      5  C   LIG    1       22.906 -20.536   4.766  0.00  0.00    +0.147 C 
ATOM      6  C   LIG    1       23.040 -20.994   6.210  0.00  0.00    +0.069 C 
ATOM      7  C   LIG    1       24.438 -20.819   6.774  0.00  0.00    -0.038 A 
ATOM      8  C   LIG    1       24.579 -20.903   8.170  0.00  0.00    +0.004 A 
ATOM      9  C   LIG    1       25.828 -20.754   8.763  0.00  0.00    +0.004 A 
ATOM     10  C   LIG    1       26.920 -20.487   7.978  0.00  0.00    +0.046 A 
ENDROOT
BRANCH   5  11
ATOM     11  O   LIG    1       22.872 -19.104   4.667  0.00  0.00    -0.389 OA
ATOM     12  H   LIG    1       23.678 -18.754   5.092  0.00  0.00    +0.210 HD
ENDBRANCH   5  11
BRANCH   4  13
ATOM     13  O   LIG    1       23.882 -20.695   2.564  0.00  0.00    -0.389 OA
ATOM     14  H   LIG    1       24.372 -21.349   2.027  0.00  0.00    +0.210 HD
ENDBRANCH   4  13
BRANCH   1  15
ATOM     15  O   LIG    1       27.869 -19.991   5.793  0.00  0.00    -0.489 OA
BRANCH  15  16
ATOM     16  C   LIG    1       29.169 -20.174   6.393  0.00  0.00    +0.261 C 
BRANCH  16  17
ATOM     17  C   LIG    1       29.909 -18.856   6.600  0.00  0.00    +0.166 C 
BRANCH  17  18
ATOM     18  O   LIG    1       30.089 -18.175   5.358  0.00  0.00    -0.387 OA
ATOM     19  H   LIG    1       30.126 -17.228   5.596  0.00  0.00    +0.210 HD
ENDBRANCH  17  18
BRANCH  17  20
ATOM     20  C   LIG    1       31.256 -19.042   7.309  0.00  0.00    +0.116 C 
BRANCH  20  21
ATOM     21  N   LIG    1       31.763 -17.818   7.955  0.00  0.00    -0.309 NA
ATOM     22  H   LIG    1       32.774 -17.753   7.789  0.00  0.00    +0.122 HD
BRANCH  21  24
ATOM     23  C   LIG    1       30.201 -16.919   9.627  0.00  0.00    +0.027 C 
ATOM     24  C   LIG    1       31.486 -17.743   9.404  0.00  0.00    +0.011 C 
ATOM     25  C   LIG    1       31.248 -19.157   9.955  0.00  0.00    +0.027 C 
ATOM     26  C   LIG    1       32.630 -17.060  10.175  0.00  0.00    +0.027 C 
ENDBRANCH  21  24
ENDBRANCH  20  21
ENDBRANCH  17  20
ENDBRANCH  16  17
ENDBRANCH  15  16
ENDBRANCH   1  15
TORSDOF 9
ENDMDL
MODEL 6
REMARK VINA RESULT:      -7.6      4.685      7.176
REMARK  Name = *****
REMARK                            x       y       z     vdW  Elec       q    Type
REMARK                         _______ _______ _______ _____ _____    ______ ____
ROOT
ATOM      1  C   LIG    1       24.918 -24.398   6.828  0.00  0.00    +0.124 A 
ATOM      2  C   LIG    1       25.313 -23.063   7.106  0.00  0.00    +0.000 A 
ATOM      3  C   LIG    1       26.773 -22.708   7.335  0.00  0.00    +0.073 C 
ATOM      4  C   LIG    1       27.053 -21.192   7.385  0.00  0.00    +0.148 C 
ATOM      5  C   LIG    1       25.992 -20.456   8.205  0.00  0.00    +0.147 C 
ATOM      6  C   LIG    1       24.621 -20.640   7.573  0.00  0.00    +0.069 C 
ATOM      7  C   LIG    1       24.316 -22.077   7.195  0.00  0.00    -0.038 A 
ATOM      8  C   LIG    1       22.975 -22.393   6.914  0.00  0.00    +0.004 A 
ATOM      9  C   LIG    1       22.615 -23.689   6.560  0.00  0.00    +0.004 A 
ATOM     10  C   LIG    1       23.574 -24.669   6.521  0.00  0.00    +0.046 A 
ENDROOT
BRANCH   5  11
ATOM     11  O   LIG    1       26.013 -20.921   9.564  0.00  0.00    -0.389 OA
ATOM     12  H   LIG    1       25.155 -21.347   9.749  0.00  0.00    +0.210 HD
ENDBRANCH   5  11
BRANCH   4  13
ATOM     13  O   LIG    1       28.341 -20.958   7.966  0.00  0.00    -0.389 OA
ATOM     14  H   LIG    1       28.364 -21.481   8.792  0.00  0.00    +0.210 HD
ENDBRANCH   4  13
BRANCH   1  15
ATOM     15  O   LIG    1       25.870 -25.382   6.899  0.00  0.00    -0.489 OA
BRANCH  15  16
ATOM     16  C   LIG    1       26.056 -26.136   5.682  0.00  0.00    +0.261 C 
BRANCH  16  17
ATOM     17  C   LIG    1       25.730 -27.616   5.855  0.00  0.00    +0.166 C 
BRANCH  17  18
ATOM     18  O   LIG    1       24.650 -28.000   5.005  0.00  0.00    -0.387 OA
ATOM     19  H   LIG    1       24.357 -28.867   5.351  0.00  0.00    +0.210 HD
ENDBRANCH  17  18
BRANCH  17  20
ATOM     20  C   LIG    1       25.422 -27.984   7.312  0.00  0.00    +0.116 C 
BRANCH  20  21
ATOM     21  N   LIG    1       25.656 -29.404   7.629  0.00  0.00    -0.309 NA
ATOM     22  H   LIG    1       24.844 -29.949   7.317  0.00  0.00    +0.122 HD
BRANCH  21  24
ATOM     23  C   LIG    1       26.860 -30.881   9.182  0.00  0.00    +0.027 C 
ATOM     24  C   LIG    1       25.916 -29.666   9.059  0.00  0.00    +0.011 C 
ATOM     25  C   LIG    1       26.619 -28.451   9.685  0.00  0.00    +0.027 C 
ATOM     26  C   LIG    1       24.625 -29.986   9.831  0.00  0.00    +0.027 C 
ENDBRANCH  21  24
ENDBRANCH  20  21
ENDBRANCH  17  20
ENDBRANCH  16  17
ENDBRANCH  15  16
ENDBRANCH   1  15
TORSDOF 9
ENDMDL
MODEL 7
REMARK VINA RESULT:      -7.6      5.265      7.435
REMARK  Name = *****
REMARK                            x       y       z     vdW  Elec       q    Type
REMARK                         _______ _______ _______ _____ _____    ______ ____
ROOT
ATOM      1  C   LIG    1       24.959 -24.378   6.838  0.00  0.00    +0.124 A 
ATOM      2  C   LIG    1       25.331 -23.038   7.123  0.00  0.00    +0.000 A 
ATOM      3  C   LIG    1       26.783 -22.660   7.361  0.00  0.00    +0.073 C 
ATOM      4  C   LIG    1       27.038 -21.140   7.418  0.00  0.00    +0.148 C 
ATOM      5  C   LIG    1       25.962 -20.425   8.236  0.00  0.00    +0.147 C 
ATOM      6  C   LIG    1       24.597 -20.628   7.595  0.00  0.00    +0.069 C 
ATOM      7  C   LIG    1       24.318 -22.069   7.210  0.00  0.00    -0.038 A 
ATOM      8  C   LIG    1       22.984 -22.406   6.921  0.00  0.00    +0.004 A 
ATOM      9  C   LIG    1       22.647 -23.706   6.559  0.00  0.00    +0.004 A 
ATOM     10  C   LIG    1       23.622 -24.670   6.522  0.00  0.00    +0.046 A 
ENDROOT
BRANCH   5  11
ATOM     11  O   LIG    1       25.983 -20.894   9.593  0.00  0.00    -0.389 OA
ATOM     12  H   LIG    1       26.795 -20.556  10.015  0.00  0.00    +0.210 HD
ENDBRANCH   5  11
BRANCH   4  13
ATOM     13  O   LIG    1       28.319 -20.888   8.007  0.00  0.00    -0.389 OA
ATOM     14  H   LIG    1       28.261 -21.207   8.929  0.00  0.00    +0.210 HD
ENDBRANCH   4  13
BRANCH   1  15
ATOM     15  O   LIG    1       25.926 -25.347   6.910  0.00  0.00    -0.489 OA
BRANCH  15  16
ATOM     16  C   LIG    1       25.671 -26.521   6.109  0.00  0.00    +0.261 C 
BRANCH  16  17
ATOM     17  C   LIG    1       25.302 -27.736   6.955  0.00  0.00    +0.166 C 
BRANCH  17  18
ATOM     18  O   LIG    1       26.402 -28.140   7.770  0.00  0.00    -0.387 OA
ATOM     19  H   LIG    1       26.447 -27.467   8.478  0.00  0.00    +0.210 HD
ENDBRANCH  17  18
BRANCH  17  20
ATOM     20  C   LIG    1       24.804 -28.913   6.106  0.00  0.00    +0.116 C 
BRANCH  20  21
ATOM     21  N   LIG    1       25.876 -29.822   5.663  0.00  0.00    -0.309 NA
ATOM     22  H   LIG    1       26.128 -29.588   4.696  0.00  0.00    +0.122 HD
BRANCH  21  24
ATOM     23  C   LIG    1       26.369 -31.902   6.877  0.00  0.00    +0.027 C 
ATOM     24  C   LIG    1       25.528 -31.255   5.757  0.00  0.00    +0.011 C 
ATOM     25  C   LIG    1       24.044 -31.400   6.128  0.00  0.00    +0.027 C 
ATOM     26  C   LIG    1       25.822 -32.007   4.447  0.00  0.00    +0.027 C 
ENDBRANCH  21  24
ENDBRANCH  20  21
ENDBRANCH  17  20
ENDBRANCH  16  17
ENDBRANCH  15  16
ENDBRANCH   1  15
TORSDOF 9
ENDMDL
MODEL 8
REMARK VINA RESULT:      -7.2      2.562      7.007
REMARK  Name = *****
REMARK                            x       y       z     vdW  Elec       q    Type
REMARK                         _______ _______ _______ _____ _____    ______ ____
ROOT
ATOM      1  C   LIG    1       28.362 -20.874   6.794  0.00  0.00    +0.124 A 
ATOM      2  C   LIG    1       26.990 -21.101   6.509  0.00  0.00    +0.000 A 
ATOM      3  C   LIG    1       26.216 -22.208   7.206  0.00  0.00    +0.073 C 
ATOM      4  C   LIG    1       24.693 -22.163   6.961  0.00  0.00    +0.148 C 
ATOM      5  C   LIG    1       24.373 -21.869   5.495  0.00  0.00    +0.147 C 
ATOM      6  C   LIG    1       24.932 -20.511   5.100  0.00  0.00    +0.069 C 
ATOM      7  C   LIG    1       26.368 -20.296   5.542  0.00  0.00    -0.038 A 
ATOM      8  C   LIG    1       27.065 -19.227   4.949  0.00  0.00    +0.004 A 
ATOM      9  C   LIG    1       28.384 -18.965   5.302  0.00  0.00    +0.004 A 
ATOM     10  C   LIG    1       29.016 -19.779   6.207  0.00  0.00    +0.046 A 
ENDROOT
BRANCH   5  11
ATOM     11  O   LIG    1       24.890 -22.917   4.660  0.00  0.00    -0.389 OA
ATOM     12  H   LIG    1       24.172 -23.558   4.503  0.00  0.00    +0.210 HD
ENDBRANCH   5  11
BRANCH   4  13
ATOM     13  O   LIG    1       24.109 -23.419   7.326  0.00  0.00    -0.389 OA
ATOM     14  H   LIG    1       24.325 -23.553   8.271  0.00  0.00    +0.210 HD
ENDBRANCH   4  13
BRANCH   1  15
ATOM     15  O   LIG    1       29.006 -21.761   7.618  0.00  0.00    -0.489 OA
BRANCH  15  16
ATOM     16  C   LIG    1       29.677 -21.162   8.748  0.00  0.00    +0.261 C 
BRANCH  16  17
ATOM     17  C   LIG    1       31.178 -21.010   8.523  0.00  0.00    +0.166 C 
BRANCH  17  18
ATOM     18  O   LIG    1       31.914 -21.670   9.553  0.00  0.00    -0.387 OA
ATOM     19  H   LIG    1       31.233 -22.048  10.143  0.00  0.00    +0.210 HD
ENDBRANCH  17  18
BRANCH  17  20
ATOM     20  C   LIG    1       31.610 -19.543   8.413  0.00  0.00    +0.116 C 
BRANCH  20  21
ATOM     21  N   LIG    1       31.990 -18.936   9.701  0.00  0.00    -0.309 NA
ATOM     22  H   LIG    1       31.729 -19.578  10.458  0.00  0.00    +0.122 HD
BRANCH  21  24
ATOM     23  C   LIG    1       32.401 -16.519   9.525  0.00  0.00    +0.027 C 
ATOM     24  C   LIG    1       31.390 -17.608   9.942  0.00  0.00    +0.011 C 
ATOM     25  C   LIG    1       30.132 -17.448   9.075  0.00  0.00    +0.027 C 
ATOM     26  C   LIG    1       31.042 -17.392  11.425  0.00  0.00    +0.027 C 
ENDBRANCH  21  24
ENDBRANCH  20  21
ENDBRANCH  17  20
ENDBRANCH  16  17
ENDBRANCH  15  16
ENDBRANCH   1  15
TORSDOF 9
ENDMDL
MODEL 9
REMARK VINA RESULT:      -7.1      3.454      6.473
REMARK  Name = *****
REMARK                            x       y       z     vdW  Elec       q    Type
REMARK                         _______ _______ _______ _____ _____    ______ ____
ROOT
ATOM      1  C   LIG    1       25.926 -21.650   6.974  0.00  0.00    +0.124 A 
ATOM      2  C   LIG    1       25.296 -20.811   6.018  0.00  0.00    +0.000 A 
ATOM      3  C   LIG    1       23.787 -20.819   5.840  0.00  0.00    +0.073 C 
ATOM      4  C   LIG    1       23.252 -19.687   4.939  0.00  0.00    +0.148 C 
ATOM      5  C   LIG    1       24.125 -19.504   3.697  0.00  0.00    +0.147 C 
ATOM      6  C   LIG    1       25.541 -19.123   4.104  0.00  0.00    +0.069 C 
ATOM      7  C   LIG    1       26.105 -19.991   5.214  0.00  0.00    -0.038 A 
ATOM      8  C   LIG    1       27.494 -19.932   5.427  0.00  0.00    +0.004 A 
ATOM      9  C   LIG    1       28.087 -20.697   6.426  0.00  0.00    +0.004 A 
ATOM     10  C   LIG    1       27.311 -21.540   7.181  0.00  0.00    +0.046 A 
ENDROOT
BRANCH   5  11
ATOM     11  O   LIG    1       24.108 -20.701   2.903  0.00  0.00    -0.389 OA
ATOM     12  H   LIG    1       24.977 -20.784   2.467  0.00  0.00    +0.210 HD
ENDBRANCH   5  11
BRANCH   4  13
ATOM     13  O   LIG    1       21.913 -19.989   4.530  0.00  0.00    -0.389 OA
ATOM     14  H   LIG    1       21.901 -19.901   3.556  0.00  0.00    +0.210 HD
ENDBRANCH   4  13
BRANCH   1  15
ATOM     15  O   LIG    1       25.152 -22.562   7.644  0.00  0.00    -0.489 OA
BRANCH  15  16
ATOM     16  C   LIG    1       25.244 -23.915   7.150  0.00  0.00    +0.261 C 
BRANCH  16  17
ATOM     17  C   LIG    1       24.189 -24.225   6.093  0.00  0.00    +0.166 C 
BRANCH  17  18
ATOM     18  O   LIG    1       22.885 -24.261   6.673  0.00  0.00    -0.387 OA
ATOM     19  H   LIG    1       22.906 -25.023   7.285  0.00  0.00    +0.210 HD
ENDBRANCH  17  18
BRANCH  17  20
ATOM     20  C   LIG    1       24.476 -25.531   5.340  0.00  0.00    +0.116 C 
BRANCH  20  21
ATOM     21  N   LIG    1       23.999 -26.737   6.039  0.00  0.00    -0.309 NA
ATOM     22  H   LIG    1       23.723 -26.478   6.993  0.00  0.00    +0.122 HD
BRANCH  21  24
ATOM     23  C   LIG    1       24.280 -29.156   5.700  0.00  0.00    +0.027 C 
ATOM     24  C   LIG    1       24.984 -27.837   6.084  0.00  0.00    +0.011 C 
ATOM     25  C   LIG    1       26.096 -27.572   5.057  0.00  0.00    +0.027 C 
ATOM     26  C   LIG    1       25.590 -28.012   7.487  0.00  0.00    +0.027 C 
ENDBRANCH  21  24
ENDBRANCH  20  21
ENDBRANCH  17  20
ENDBRANCH  16  17
ENDBRANCH  15  16
ENDBRANCH   1  15
TORSDOF 9
ENDMDL
