MODEL 1
REMARK VINA RESULT:      -7.8      0.000      0.000
REMARK  Name = *****
REMARK                            x       y       z     vdW  Elec       q    Type
REMARK                         _______ _______ _______ _____ _____    ______ ____
ROOT
ATOM      1  C   LIG    1       27.217 -20.857   7.785  0.00  0.00    +0.011 C 
ATOM      2  C   LIG    1       25.914 -21.165   7.040  0.00  0.00    -0.030 C 
ATOM      3  C   LIG    1       25.864 -20.378   5.709  0.00  0.00    +0.013 C 
ATOM      4  C   LIG    1       24.553 -20.676   4.943  0.00  0.00    -0.030 C 
ATOM      5  C   LIG    1       23.356 -20.279   5.838  0.00  0.00    +0.010 C 
ATOM      6  C   LIG    1       23.387 -21.067   7.157  0.00  0.00    -0.008 C 
ATOM      7  C   LIG    1       23.314 -22.573   6.853  0.00  0.00    +0.025 C 
ATOM      8  C   LIG    1       24.511 -22.994   5.976  0.00  0.00    +0.018 C 
ATOM      9  C   LIG    1       24.518 -19.887   3.632  0.00  0.00    +0.011 C 
ATOM     10  C   LIG    1       24.478 -22.194   4.658  0.00  0.00    +0.028 C 
ATOM     11  C   LIG    1       25.823 -22.677   6.727  0.00  0.00    +0.028 C 
ATOM     12  C   LIG    1       24.697 -20.762   7.901  0.00  0.00    +0.010 C 
ENDROOT
BRANCH   8  13
ATOM     13  N   LIG    1       24.427 -24.424   5.685  0.00  0.00    -0.325 NA
ATOM     14  H   LIG    1       23.480 -24.662   5.388  0.00  0.00    +0.119 HD
ATOM     15  H   LIG    1       25.036 -24.656   4.902  0.00  0.00    +0.119 HD
ENDBRANCH   8  13
TORSDOF 1
ENDMDL
MODEL 2
REMARK VINA RESULT:      -7.6      1.363      3.103
REMARK  Name = *****
REMARK                            x       y       z     vdW  Elec       q    Type
REMARK                         _______ _______ _______ _____ _____    ______ ____
ROOT
ATOM      1  C   LIG    1       24.424 -24.659   6.334  0.00  0.00    +0.011 C 
ATOM      2  C   LIG    1       24.505 -23.130   6.394  0.00  0.00    -0.030 C 
ATOM      3  C   LIG    1       25.776 -22.695   7.161  0.00  0.00    +0.013 C 
ATOM      4  C   LIG    1       25.873 -21.153   7.234  0.00  0.00    -0.030 C 
ATOM      5  C   LIG    1       24.613 -20.609   7.945  0.00  0.00    +0.010 C 
ATOM      6  C   LIG    1       23.345 -21.023   7.181  0.00  0.00    -0.008 C 
ATOM      7  C   LIG    1       23.403 -20.456   5.752  0.00  0.00    +0.025 C 
ATOM      8  C   LIG    1       24.644 -21.002   5.017  0.00  0.00    +0.018 C 
ATOM      9  C   LIG    1       27.133 -20.740   7.999  0.00  0.00    +0.011 C 
ATOM     10  C   LIG    1       25.912 -20.590   5.793  0.00  0.00    +0.028 C 
ATOM     11  C   LIG    1       24.562 -22.543   4.964  0.00  0.00    +0.028 C 
ATOM     12  C   LIG    1       23.267 -22.556   7.117  0.00  0.00    +0.010 C 
ENDROOT
BRANCH   8  13
ATOM     13  N   LIG    1       24.696 -20.450   3.664  0.00  0.00    -0.325 NA
ATOM     14  H   LIG    1       24.309 -19.506   3.661  0.00  0.00    +0.119 HD
ATOM     15  H   LIG    1       25.664 -20.360   3.363  0.00  0.00    +0.119 HD
ENDBRANCH   8  13
TORSDOF 1
ENDMDL
MODEL 3
REMARK VINA RESULT:      -7.6      1.521      3.206
REMARK  Name = *****
REMARK                            x       y       z     vdW  Elec       q    Type
REMARK                         _______ _______ _______ _____ _____    ______ ____
ROOT
ATOM      1  C   LIG    1       24.983 -20.262   3.859  0.00  0.00    +0.011 C 
ATOM      2  C   LIG    1       24.820 -20.943   5.222  0.00  0.00    -0.030 C 
ATOM      3  C   LIG    1       24.656 -22.470   5.037  0.00  0.00    +0.013 C 
ATOM      4  C   LIG    1       24.487 -23.174   6.404  0.00  0.00    -0.030 C 
ATOM      5  C   LIG    1       23.244 -22.590   7.113  0.00  0.00    +0.010 C 
ATOM      6  C   LIG    1       23.403 -21.075   7.316  0.00  0.00    -0.008 C 
ATOM      7  C   LIG    1       24.649 -20.805   8.177  0.00  0.00    +0.025 C 
ATOM      8  C   LIG    1       25.906 -21.363   7.478  0.00  0.00    +0.018 C 
ATOM      9  C   LIG    1       24.322 -24.683   6.202  0.00  0.00    +0.011 C 
ATOM     10  C   LIG    1       25.735 -22.883   7.270  0.00  0.00    +0.028 C 
ATOM     11  C   LIG    1       26.064 -20.680   6.102  0.00  0.00    +0.028 C 
ATOM     12  C   LIG    1       23.572 -20.394   5.949  0.00  0.00    +0.010 C 
ENDROOT
BRANCH   8  13
ATOM     13  N   LIG    1       27.082 -21.110   8.308  0.00  0.00    -0.325 NA
ATOM     14  H   LIG    1       27.636 -20.356   7.903  0.00  0.00    +0.119 HD
ATOM     15  H   LIG    1       26.793 -20.785   9.229  0.00  0.00    +0.119 HD
ENDBRANCH   8  13
TORSDOF 1
ENDMDL
MODEL 4
REMARK VINA RESULT:      -6.5      1.120      3.288
REMARK  Name = *****
REMARK                            x       y       z     vdW  Elec       q    Type
REMARK                         _______ _______ _______ _____ _____    ______ ____
ROOT
ATOM      1  C   LIG    1       22.368 -19.512   5.231  0.00  0.00    +0.011 C 
ATOM      2  C   LIG    1       23.369 -20.569   5.709  0.00  0.00    -0.030 C 
ATOM      3  C   LIG    1       24.024 -20.120   7.036  0.00  0.00    +0.013 C 
ATOM      4  C   LIG    1       25.041 -21.175   7.532  0.00  0.00    -0.030 C 
ATOM      5  C   LIG    1       26.124 -21.368   6.446  0.00  0.00    +0.010 C 
ATOM      6  C   LIG    1       25.486 -21.831   5.127  0.00  0.00    -0.008 C 
ATOM      7  C   LIG    1       24.754 -23.164   5.355  0.00  0.00    +0.025 C 
ATOM      8  C   LIG    1       23.655 -22.989   6.422  0.00  0.00    +0.018 C 
ATOM      9  C   LIG    1       25.682 -20.713   8.843  0.00  0.00    +0.011 C 
ATOM     10  C   LIG    1       24.302 -22.517   7.741  0.00  0.00    +0.028 C 
ATOM     11  C   LIG    1       22.651 -21.919   5.941  0.00  0.00    +0.028 C 
ATOM     12  C   LIG    1       24.478 -20.772   4.651  0.00  0.00    +0.010 C 
ENDROOT
BRANCH   8  13
ATOM     13  N   LIG    1       22.973 -24.264   6.638  0.00  0.00    -0.325 NA
ATOM     14  H   LIG    1       23.414 -24.992   6.076  0.00  0.00    +0.119 HD
ATOM     15  H   LIG    1       23.077 -24.553   7.609  0.00  0.00    +0.119 HD
ENDBRANCH   8  13
TORSDOF 1
ENDMDL
MODEL 5
REMARK VINA RESULT:      -6.4      1.750      3.277
REMARK  Name = *****
REMARK                            x       y       z     vdW  Elec       q    Type
REMARK                         _______ _______ _______ _____ _____    ______ ____
ROOT
ATOM      1  C   LIG    1       23.398 -24.443   6.578  0.00  0.00    +0.011 C 
ATOM      2  C   LIG    1       24.002 -23.036   6.510  0.00  0.00    -0.030 C 
ATOM      3  C   LIG    1       22.930 -22.018   6.056  0.00  0.00    +0.013 C 
ATOM      4  C   LIG    1       23.524 -20.592   5.978  0.00  0.00    -0.030 C 
ATOM      5  C   LIG    1       24.704 -20.599   4.980  0.00  0.00    +0.010 C 
ATOM      6  C   LIG    1       25.783 -21.597   5.431  0.00  0.00    -0.008 C 
ATOM      7  C   LIG    1       26.300 -21.192   6.821  0.00  0.00    +0.025 C 
ATOM      8  C   LIG    1       25.141 -21.197   7.839  0.00  0.00    +0.018 C 
ATOM      9  C   LIG    1       22.451 -19.599   5.524  0.00  0.00    +0.011 C 
ATOM     10  C   LIG    1       24.059 -20.200   7.376  0.00  0.00    +0.028 C 
ATOM     11  C   LIG    1       24.530 -22.614   7.901  0.00  0.00    +0.028 C 
ATOM     12  C   LIG    1       25.174 -23.006   5.504  0.00  0.00    +0.010 C 
ENDROOT
BRANCH   8  13
ATOM     13  N   LIG    1       25.642 -20.803   9.155  0.00  0.00    -0.325 NA
ATOM     14  H   LIG    1       26.578 -20.407   9.065  0.00  0.00    +0.119 HD
ATOM     15  H   LIG    1       25.057 -20.063   9.541  0.00  0.00    +0.119 HD
ENDBRANCH   8  13
TORSDOF 1
ENDMDL
MODEL 6
REMARK VINA RESULT:      -6.4      1.783      3.619
REMARK  Name = *****
REMARK                            x       y       z     vdW  Elec       q    Type
REMARK                         _______ _______ _______ _____ _____    ______ ____
ROOT
ATOM      1  C   LIG    1       22.591 -20.809   5.447  0.00  0.00    +0.011 C 
ATOM      2  C   LIG    1       23.899 -21.139   6.173  0.00  0.00    -0.030 C 
ATOM      3  C   LIG    1       24.093 -22.671   6.249  0.00  0.00    +0.013 C 
ATOM      4  C   LIG    1       25.409 -23.023   6.983  0.00  0.00    -0.030 C 
ATOM      5  C   LIG    1       25.358 -22.424   8.407  0.00  0.00    +0.010 C 
ATOM      6  C   LIG    1       25.181 -20.899   8.343  0.00  0.00    -0.008 C 
ATOM      7  C   LIG    1       26.363 -20.281   7.577  0.00  0.00    +0.025 C 
ATOM      8  C   LIG    1       26.421 -20.850   6.145  0.00  0.00    +0.018 C 
ATOM      9  C   LIG    1       25.584 -24.542   7.053  0.00  0.00    +0.011 C 
ATOM     10  C   LIG    1       26.591 -22.382   6.217  0.00  0.00    +0.028 C 
ATOM     11  C   LIG    1       25.099 -20.522   5.417  0.00  0.00    +0.028 C 
ATOM     12  C   LIG    1       23.871 -20.569   7.609  0.00  0.00    +0.010 C 
ENDROOT
BRANCH   8  13
ATOM     13  N   LIG    1       27.553 -20.264   5.429  0.00  0.00    -0.325 NA
ATOM     14  H   LIG    1       27.957 -20.954   4.796  0.00  0.00    +0.119 HD
ATOM     15  H   LIG    1       27.232 -19.496   4.842  0.00  0.00    +0.119 HD
ENDBRANCH   8  13
TORSDOF 1
ENDMDL
MODEL 7
REMARK VINA RESULT:      -6.0      1.588      3.067
REMARK  Name = *****
REMARK                            x       y       z     vdW  Elec       q    Type
REMARK                         _______ _______ _______ _____ _____    ______ ____
ROOT
ATOM      1  C   LIG    1       27.918 -20.930   7.546  0.00  0.00    +0.011 C 
ATOM      2  C   LIG    1       26.539 -21.283   6.981  0.00  0.00    -0.030 C 
ATOM      3  C   LIG    1       26.339 -22.817   6.986  0.00  0.00    +0.013 C 
ATOM      4  C   LIG    1       24.951 -23.193   6.415  0.00  0.00    -0.030 C 
ATOM      5  C   LIG    1       24.846 -22.651   4.971  0.00  0.00    +0.010 C 
ATOM      6  C   LIG    1       25.027 -21.124   4.956  0.00  0.00    -0.008 C 
ATOM      7  C   LIG    1       23.935 -20.473   5.821  0.00  0.00    +0.025 C 
ATOM      8  C   LIG    1       24.035 -20.986   7.272  0.00  0.00    +0.018 C 
ATOM      9  C   LIG    1       24.771 -24.713   6.424  0.00  0.00    +0.011 C 
ATOM     10  C   LIG    1       23.859 -22.519   7.279  0.00  0.00    +0.028 C 
ATOM     11  C   LIG    1       25.427 -20.634   7.838  0.00  0.00    +0.028 C 
ATOM     12  C   LIG    1       26.409 -20.771   5.529  0.00  0.00    +0.010 C 
ENDROOT
BRANCH   8  13
ATOM     13  N   LIG    1       22.987 -20.369   8.084  0.00  0.00    -0.325 NA
ATOM     14  H   LIG    1       22.482 -19.677   7.529  0.00  0.00    +0.119 HD
ATOM     15  H   LIG    1       22.300 -21.070   8.356  0.00  0.00    +0.119 HD
ENDBRANCH   8  13
TORSDOF 1
ENDMDL
MODEL 8
REMARK VINA RESULT:      -5.9      1.531      2.908
REMARK  Name = *****
REMARK                            x       y       z     vdW  Elec       q    Type
REMARK                         _______ _______ _______ _____ _____    ______ ____
ROOT
ATOM      1  C   LIG    1       24.796 -24.620   6.142  0.00  0.00    +0.011 C 
ATOM      2  C   LIG    1       24.947 -23.100   6.261  0.00  0.00    -0.030 C 
ATOM      3  C   LIG    1       24.798 -22.441   4.870  0.00  0.00    +0.013 C 
ATOM      4  C   LIG    1       24.950 -20.904   4.969  0.00  0.00    -0.030 C 
ATOM      5  C   LIG    1       26.342 -20.581   5.561  0.00  0.00    +0.010 C 
ATOM      6  C   LIG    1       26.495 -21.219   6.952  0.00  0.00    -0.008 C 
ATOM      7  C   LIG    1       25.407 -20.666   7.888  0.00  0.00    +0.025 C 
ATOM      8  C   LIG    1       24.009 -20.995   7.325  0.00  0.00    +0.018 C 
ATOM      9  C   LIG    1       24.804 -20.269   3.584  0.00  0.00    +0.011 C 
ATOM     10  C   LIG    1       23.865 -20.359   5.927  0.00  0.00    +0.028 C 
ATOM     11  C   LIG    1       23.862 -22.527   7.202  0.00  0.00    +0.028 C 
ATOM     12  C   LIG    1       26.338 -22.743   6.832  0.00  0.00    +0.010 C 
ENDROOT
BRANCH   8  13
ATOM     13  N   LIG    1       22.983 -20.457   8.217  0.00  0.00    -0.325 NA
ATOM     14  H   LIG    1       22.799 -21.119   8.972  0.00  0.00    +0.119 HD
ATOM     15  H   LIG    1       23.321 -19.606   8.663  0.00  0.00    +0.119 HD
ENDBRANCH   8  13
TORSDOF 1
ENDMDL
MODEL 9
REMARK VINA RESULT:      -5.9      1.435      3.431
REMARK  Name = *****
REMARK                            x       y       z     vdW  Elec       q    Type
REMARK                         _______ _______ _______ _____ _____    ______ ____
ROOT
ATOM      1  C   LIG    1       24.703 -20.181   3.623  0.00  0.00    +0.011 C 
ATOM      2  C   LIG    1       24.905 -20.846   4.988  0.00  0.00    -0.030 C 
ATOM      3  C   LIG    1       26.269 -20.429   5.587  0.00  0.00    +0.013 C 
ATOM      4  C   LIG    1       26.491 -21.094   6.966  0.00  0.00    -0.030 C 
ATOM      5  C   LIG    1       26.436 -22.629   6.791  0.00  0.00    +0.010 C 
ATOM      6  C   LIG    1       25.078 -23.056   6.211  0.00  0.00    -0.008 C 
ATOM      7  C   LIG    1       23.956 -22.616   7.166  0.00  0.00    +0.025 C 
ATOM      8  C   LIG    1       23.980 -21.084   7.340  0.00  0.00    +0.018 C 
ATOM      9  C   LIG    1       27.846 -20.674   7.541  0.00  0.00    +0.011 C 
ATOM     10  C   LIG    1       25.348 -20.662   7.915  0.00  0.00    +0.028 C 
ATOM     11  C   LIG    1       23.783 -20.416   5.962  0.00  0.00    +0.028 C 
ATOM     12  C   LIG    1       24.875 -22.384   4.844  0.00  0.00    +0.010 C 
ENDROOT
BRANCH   8  13
ATOM     13  N   LIG    1       22.916 -20.678   8.257  0.00  0.00    -0.325 NA
ATOM     14  H   LIG    1       23.129 -21.003   9.201  0.00  0.00    +0.119 HD
ATOM     15  H   LIG    1       22.874 -19.662   8.312  0.00  0.00    +0.119 HD
ENDBRANCH   8  13
TORSDOF 1
ENDMDL
