MODEL 1
REMARK VINA RESULT:      -5.2      0.000      0.000
REMARK  Name = *****
REMARK                            x       y       z     vdW  Elec       q    Type
REMARK                         _______ _______ _______ _____ _____    ______ ____
ROOT
ATOM      1  C   LIG    1       25.118 -20.130   4.640  0.00  0.00    +0.117 A 
ATOM      2  C   LIG    1       24.466 -19.279   3.753  0.00  0.00    +0.045 A 
ATOM      3  C   LIG    1       23.132 -18.942   3.975  0.00  0.00    +0.004 A 
ATOM      4  C   LIG    1       22.457 -19.459   5.082  0.00  0.00    +0.000 A 
ATOM      5  C   LIG    1       23.119 -20.309   5.970  0.00  0.00    +0.004 A 
ATOM      6  C   LIG    1       24.455 -20.648   5.749  0.00  0.00    +0.045 A 
ENDROOT
BRANCH   1   7
ATOM      7  O   LIG    1       26.421 -20.440   4.381  0.00  0.00    -0.507 OA
ATOM      8  H   LIG    1       26.764 -20.965   5.123  0.00  0.00    +0.292 HD
ENDBRANCH   1   7
TORSDOF 1
ENDMDL
MODEL 2
REMARK VINA RESULT:      -5.2      0.038      1.829
REMARK  Name = *****
REMARK                            x       y       z     vdW  Elec       q    Type
REMARK                         _______ _______ _______ _____ _____    ______ ____
ROOT
ATOM      1  C   LIG    1       25.109 -20.104   4.601  0.00  0.00    +0.117 A 
ATOM      2  C   LIG    1       24.473 -20.646   5.712  0.00  0.00    +0.045 A 
ATOM      3  C   LIG    1       23.140 -20.325   5.969  0.00  0.00    +0.004 A 
ATOM      4  C   LIG    1       22.453 -19.465   5.112  0.00  0.00    +0.000 A 
ATOM      5  C   LIG    1       23.098 -18.928   3.995  0.00  0.00    +0.004 A 
ATOM      6  C   LIG    1       24.432 -19.247   3.737  0.00  0.00    +0.045 A 
ENDROOT
BRANCH   1   7
ATOM      7  O   LIG    1       26.415 -20.438   4.392  0.00  0.00    -0.507 OA
ATOM      8  H   LIG    1       26.579 -20.449   3.434  0.00  0.00    +0.292 HD
ENDBRANCH   1   7
TORSDOF 1
ENDMDL
MODEL 3
REMARK VINA RESULT:      -4.9      0.964      2.150
REMARK  Name = *****
REMARK                            x       y       z     vdW  Elec       q    Type
REMARK                         _______ _______ _______ _____ _____    ______ ____
ROOT
ATOM      1  C   LIG    1       25.171 -20.274   4.811  0.00  0.00    +0.117 A 
ATOM      2  C   LIG    1       25.563 -20.736   6.063  0.00  0.00    +0.045 A 
ATOM      3  C   LIG    1       24.607 -20.926   7.059  0.00  0.00    +0.004 A 
ATOM      4  C   LIG    1       23.264 -20.653   6.798  0.00  0.00    +0.000 A 
ATOM      5  C   LIG    1       22.877 -20.194   5.537  0.00  0.00    +0.004 A 
ATOM      6  C   LIG    1       23.833 -20.002   4.538  0.00  0.00    +0.045 A 
ENDROOT
BRANCH   1   7
ATOM      7  O   LIG    1       26.139 -20.094   3.868  0.00  0.00    -0.507 OA
ATOM      8  H   LIG    1       26.033 -20.778   3.185  0.00  0.00    +0.292 HD
ENDBRANCH   1   7
TORSDOF 1
ENDMDL
MODEL 4
REMARK VINA RESULT:      -4.7      1.370      2.250
REMARK  Name = *****
REMARK                            x       y       z     vdW  Elec       q    Type
REMARK                         _______ _______ _______ _____ _____    ______ ____
ROOT
ATOM      1  C   LIG    1       24.039 -20.710   5.818  0.00  0.00    +0.117 A 
ATOM      2  C   LIG    1       22.801 -20.079   5.758  0.00  0.00    +0.045 A 
ATOM      3  C   LIG    1       22.531 -19.184   4.724  0.00  0.00    +0.004 A 
ATOM      4  C   LIG    1       23.501 -18.927   3.754  0.00  0.00    +0.000 A 
ATOM      5  C   LIG    1       24.741 -19.567   3.818  0.00  0.00    +0.004 A 
ATOM      6  C   LIG    1       25.013 -20.463   4.854  0.00  0.00    +0.045 A 
ENDROOT
BRANCH   1   7
ATOM      7  O   LIG    1       24.264 -21.571   6.851  0.00  0.00    -0.507 OA
ATOM      8  H   LIG    1       23.459 -22.096   6.994  0.00  0.00    +0.292 HD
ENDBRANCH   1   7
TORSDOF 1
ENDMDL
MODEL 5
REMARK VINA RESULT:      -4.6      6.023      6.886
REMARK  Name = *****
REMARK                            x       y       z     vdW  Elec       q    Type
REMARK                         _______ _______ _______ _____ _____    ______ ____
ROOT
ATOM      1  C   LIG    1       26.039 -13.833   2.541  0.00  0.00    +0.117 A 
ATOM      2  C   LIG    1       25.701 -14.596   3.653  0.00  0.00    +0.045 A 
ATOM      3  C   LIG    1       24.603 -14.231   4.432  0.00  0.00    +0.004 A 
ATOM      4  C   LIG    1       23.850 -13.107   4.092  0.00  0.00    +0.000 A 
ATOM      5  C   LIG    1       24.194 -12.348   2.971  0.00  0.00    +0.004 A 
ATOM      6  C   LIG    1       25.294 -12.711   2.191  0.00  0.00    +0.045 A 
ENDROOT
BRANCH   1   7
ATOM      7  O   LIG    1       27.125 -14.220   1.812  0.00  0.00    -0.507 OA
ATOM      8  H   LIG    1       27.760 -14.648   2.411  0.00  0.00    +0.292 HD
ENDBRANCH   1   7
TORSDOF 1
ENDMDL
MODEL 6
REMARK VINA RESULT:      -4.6      1.659      2.666
REMARK  Name = *****
REMARK                            x       y       z     vdW  Elec       q    Type
REMARK                         _______ _______ _______ _____ _____    ______ ____
ROOT
ATOM      1  C   LIG    1       23.528 -20.520   5.939  0.00  0.00    +0.117 A 
ATOM      2  C   LIG    1       24.843 -20.691   5.521  0.00  0.00    +0.045 A 
ATOM      3  C   LIG    1       25.292 -20.038   4.373  0.00  0.00    +0.004 A 
ATOM      4  C   LIG    1       24.423 -19.218   3.653  0.00  0.00    +0.000 A 
ATOM      5  C   LIG    1       23.105 -19.048   4.081  0.00  0.00    +0.004 A 
ATOM      6  C   LIG    1       22.653 -19.702   5.229  0.00  0.00    +0.045 A 
ENDROOT
BRANCH   1   7
ATOM      7  O   LIG    1       23.127 -21.183   7.062  0.00  0.00    -0.507 OA
ATOM      8  H   LIG    1       23.805 -21.842   7.287  0.00  0.00    +0.292 HD
ENDBRANCH   1   7
TORSDOF 1
ENDMDL
MODEL 7
REMARK VINA RESULT:      -4.6      6.013      6.642
REMARK  Name = *****
REMARK                            x       y       z     vdW  Elec       q    Type
REMARK                         _______ _______ _______ _____ _____    ______ ____
ROOT
ATOM      1  C   LIG    1       26.051 -13.869   2.578  0.00  0.00    +0.117 A 
ATOM      2  C   LIG    1       25.321 -12.748   2.196  0.00  0.00    +0.045 A 
ATOM      3  C   LIG    1       24.212 -12.359   2.945  0.00  0.00    +0.004 A 
ATOM      4  C   LIG    1       23.841 -13.092   4.072  0.00  0.00    +0.000 A 
ATOM      5  C   LIG    1       24.581 -14.214   4.452  0.00  0.00    +0.004 A 
ATOM      6  C   LIG    1       25.691 -14.606   3.703  0.00  0.00    +0.045 A 
ENDROOT
BRANCH   1   7
ATOM      7  O   LIG    1       27.124 -14.219   1.812  0.00  0.00    -0.507 OA
ATOM      8  H   LIG    1       27.886 -14.359   2.398  0.00  0.00    +0.292 HD
ENDBRANCH   1   7
TORSDOF 1
ENDMDL
MODEL 8
REMARK VINA RESULT:      -4.6      6.452      7.087
REMARK  Name = *****
REMARK                            x       y       z     vdW  Elec       q    Type
REMARK                         _______ _______ _______ _____ _____    ______ ____
ROOT
ATOM      1  C   LIG    1       27.940 -13.558   3.605  0.00  0.00    +0.117 A 
ATOM      2  C   LIG    1       27.517 -13.295   4.904  0.00  0.00    +0.045 A 
ATOM      3  C   LIG    1       26.177 -13.476   5.243  0.00  0.00    +0.004 A 
ATOM      4  C   LIG    1       25.268 -13.919   4.281  0.00  0.00    +0.000 A 
ATOM      5  C   LIG    1       25.700 -14.184   2.980  0.00  0.00    +0.004 A 
ATOM      6  C   LIG    1       27.042 -14.003   2.639  0.00  0.00    +0.045 A 
ENDROOT
BRANCH   1   7
ATOM      7  O   LIG    1       29.257 -13.360   3.314  0.00  0.00    -0.507 OA
ATOM      8  H   LIG    1       29.756 -13.338   4.148  0.00  0.00    +0.292 HD
ENDBRANCH   1   7
TORSDOF 1
ENDMDL
MODEL 9
REMARK VINA RESULT:      -4.6      2.048      2.675
REMARK  Name = *****
REMARK                            x       y       z     vdW  Elec       q    Type
REMARK                         _______ _______ _______ _____ _____    ______ ____
ROOT
ATOM      1  C   LIG    1       22.759 -19.152   4.486  0.00  0.00    +0.117 A 
ATOM      2  C   LIG    1       23.886 -19.078   3.674  0.00  0.00    +0.045 A 
ATOM      3  C   LIG    1       25.029 -19.800   4.014  0.00  0.00    +0.004 A 
ATOM      4  C   LIG    1       25.037 -20.592   5.163  0.00  0.00    +0.000 A 
ATOM      5  C   LIG    1       23.901 -20.665   5.971  0.00  0.00    +0.004 A 
ATOM      6  C   LIG    1       22.755 -19.942   5.633  0.00  0.00    +0.045 A 
ENDROOT
BRANCH   1   7
ATOM      7  O   LIG    1       21.665 -18.424   4.121  0.00  0.00    -0.507 OA
ATOM      8  H   LIG    1       21.786 -18.126   3.204  0.00  0.00    +0.292 HD
ENDBRANCH   1   7
TORSDOF 1
ENDMDL
