MODEL 1
REMARK VINA RESULT:      10.5      0.000      0.000
REMARK  Name = *****
REMARK                            x       y       z     vdW  Elec       q    Type
REMARK                         _______ _______ _______ _____ _____    ______ ____
ROOT
ATOM      1  C   LIG    1       24.272 -20.450   4.815  0.00  0.00    +0.015 A 
ATOM      2  C   LIG    1       25.528 -20.849   5.299  0.00  0.00    +0.043 A 
ATOM      3  C   LIG    1       26.603 -19.967   5.120  0.00  0.00    +0.067 A 
ATOM      4  C   LIG    1       26.485 -18.742   4.470  0.00  0.00    +0.027 A 
ATOM      5  C   LIG    1       27.778 -18.140   4.574  0.00  0.00    +0.093 A 
ATOM      6  N   LIG    1       28.643 -18.954   5.201  0.00  0.00    -0.173 NA
ATOM      7  C   LIG    1       25.234 -18.390   3.927  0.00  0.00    +0.013 A 
ATOM      8  N   LIG    1       27.916 -20.041   5.500  0.00  0.00    -0.276 N 
ATOM      9  H   LIG    1       28.375 -20.799   5.991  0.00  0.00    +0.189 HD
ATOM     10  C   LIG    1       24.139 -19.251   4.106  0.00  0.00    +0.016 A 
ENDROOT
BRANCH   5  11
ATOM     11  C   LIG    1       28.110 -16.825   4.104  0.00  0.00    +0.032 C 
ATOM     12  C   LIG    1       27.337 -15.738   4.270  0.00  0.00    +0.030 C 
BRANCH  12  13
ATOM     13  C   LIG    1       27.668 -14.398   3.771  0.00  0.00    +0.064 A 
ATOM     14  N   LIG    1       28.895 -13.902   4.062  0.00  0.00    -0.256 NA
ATOM     15  C   LIG    1       29.191 -12.668   3.596  0.00  0.00    +0.111 A 
ATOM     16  C   LIG    1       28.319 -11.894   2.849  0.00  0.00    +0.020 A 
ATOM     17  C   LIG    1       27.065 -12.417   2.559  0.00  0.00    +0.004 A 
ATOM     18  C   LIG    1       26.733 -13.686   3.025  0.00  0.00    +0.028 A 
ENDBRANCH  12  13
ENDBRANCH   5  11
BRANCH   1  19
ATOM     19  S   LIG    1       22.852 -21.507   5.112  0.00  0.00    -0.089 S 
BRANCH  19  21
ATOM     20  C   LIG    1       21.296 -19.212   4.450  0.00  0.00    +0.050 A 
ATOM     21  C   LIG    1       21.519 -20.598   4.312  0.00  0.00    +0.025 A 
ATOM     22  C   LIG    1       20.684 -21.322   3.435  0.00  0.00    +0.016 A 
ATOM     23  C   LIG    1       19.608 -20.713   2.781  0.00  0.00    +0.001 A 
ATOM     24  C   LIG    1       19.352 -19.364   2.973  0.00  0.00    +0.001 A 
ATOM     25  C   LIG    1       20.202 -18.617   3.786  0.00  0.00    +0.014 A 
BRANCH  20  29
ATOM     26  C   LIG    1       23.011 -15.983   5.493  0.00  0.00    +0.128 C 
ATOM     27  N   LIG    1       22.185 -16.940   4.807  0.00  0.00    -0.314 N 
ATOM     28  H   LIG    1       21.561 -16.624   4.074  0.00  0.00    +0.149 HD
ATOM     29  C   LIG    1       22.143 -18.249   5.216  0.00  0.00    +0.245 C 
ATOM     30  O   LIG    1       22.813 -18.657   6.168  0.00  0.00    -0.270 OA
ENDBRANCH  20  29
ENDBRANCH  19  21
ENDBRANCH   1  19
TORSDOF 5
ENDMDL
MODEL 2
REMARK VINA RESULT:      11.9      1.845      2.177
REMARK  Name = *****
REMARK                            x       y       z     vdW  Elec       q    Type
REMARK                         _______ _______ _______ _____ _____    ______ ____
ROOT
ATOM      1  C   LIG    1       25.167 -20.221   3.334  0.00  0.00    +0.015 A 
ATOM      2  C   LIG    1       26.201 -20.734   4.132  0.00  0.00    +0.043 A 
ATOM      3  C   LIG    1       27.191 -19.841   4.566  0.00  0.00    +0.067 A 
ATOM      4  C   LIG    1       27.205 -18.494   4.223  0.00  0.00    +0.027 A 
ATOM      5  C   LIG    1       28.323 -17.943   4.926  0.00  0.00    +0.093 A 
ATOM      6  N   LIG    1       28.977 -18.892   5.614  0.00  0.00    -0.173 NA
ATOM      7  C   LIG    1       26.200 -18.011   3.362  0.00  0.00    +0.013 A 
ATOM      8  N   LIG    1       28.287 -20.015   5.367  0.00  0.00    -0.276 N 
ATOM      9  H   LIG    1       28.607 -20.873   5.800  0.00  0.00    +0.189 HD
ATOM     10  C   LIG    1       25.190 -18.883   2.925  0.00  0.00    +0.016 A 
ENDROOT
BRANCH   5  11
ATOM     11  C   LIG    1       28.685 -16.554   4.929  0.00  0.00    +0.032 C 
ATOM     12  C   LIG    1       27.897 -15.559   4.486  0.00  0.00    +0.030 C 
BRANCH  12  13
ATOM     13  C   LIG    1       28.277 -14.142   4.471  0.00  0.00    +0.064 A 
ATOM     14  N   LIG    1       28.988 -13.689   3.410  0.00  0.00    -0.256 NA
ATOM     15  C   LIG    1       29.331 -12.381   3.406  0.00  0.00    +0.111 A 
ATOM     16  C   LIG    1       29.001 -11.493   4.415  0.00  0.00    +0.020 A 
ATOM     17  C   LIG    1       28.271 -11.971   5.495  0.00  0.00    +0.004 A 
ATOM     18  C   LIG    1       27.902 -13.313   5.526  0.00  0.00    +0.028 A 
ENDBRANCH  12  13
ENDBRANCH   5  11
BRANCH   1  19
ATOM     19  S   LIG    1       23.829 -21.312   2.841  0.00  0.00    -0.089 S 
BRANCH  19  21
ATOM     20  C   LIG    1       22.008 -20.401   4.838  0.00  0.00    +0.050 A 
ATOM     21  C   LIG    1       22.378 -20.455   3.477  0.00  0.00    +0.025 A 
ATOM     22  C   LIG    1       21.599 -19.734   2.548  0.00  0.00    +0.016 A 
ATOM     23  C   LIG    1       20.442 -19.052   2.936  0.00  0.00    +0.001 A 
ATOM     24  C   LIG    1       20.045 -19.059   4.265  0.00  0.00    +0.001 A 
ATOM     25  C   LIG    1       20.834 -19.712   5.209  0.00  0.00    +0.014 A 
BRANCH  20  29
ATOM     26  C   LIG    1       24.913 -21.436   7.062  0.00  0.00    +0.128 C 
ATOM     27  N   LIG    1       24.136 -20.868   5.992  0.00  0.00    -0.314 N 
ATOM     28  H   LIG    1       24.596 -20.304   5.288  0.00  0.00    +0.149 HD
ATOM     29  C   LIG    1       22.768 -20.977   5.987  0.00  0.00    +0.245 C 
ATOM     30  O   LIG    1       22.157 -21.572   6.879  0.00  0.00    -0.270 OA
ENDBRANCH  20  29
ENDBRANCH  19  21
ENDBRANCH   1  19
TORSDOF 5
ENDMDL
