MODEL 1
REMARK VINA RESULT:      33.5      0.000      0.000
REMARK  Name = *****
REMARK                            x       y       z     vdW  Elec       q    Type
REMARK                         _______ _______ _______ _____ _____    ______ ____
ROOT
ATOM      1  C   LIG    1       26.761 -14.975   2.486  0.00  0.00    +0.176 C 
ATOM      2  C   LIG    1       27.262 -15.852   3.641  0.00  0.00    +0.239 C 
ATOM      3  O   LIG    1       27.869 -15.369   4.599  0.00  0.00    -0.273 OA
ATOM      4  N   LIG    1       26.884 -17.171   3.527  0.00  0.00    -0.279 N 
ATOM      5  H   LIG    1       26.187 -17.385   2.819  0.00  0.00    +0.155 HD
ATOM      6  C   LIG    1       27.131 -18.209   4.415  0.00  0.00    +0.110 C 
ATOM      7  C   LIG    1       28.052 -18.188   5.405  0.00  0.00    +0.104 C 
ATOM      8  C   LIG    1       26.190 -19.375   4.300  0.00  0.00    +0.260 C 
ATOM      9  O   LIG    1       26.478 -20.450   3.791  0.00  0.00    -0.269 OA
ATOM     10  N   LIG    1       24.959 -18.975   4.749  0.00  0.00    -0.296 N 
ATOM     11  H   LIG    1       24.852 -18.030   5.154  0.00  0.00    +0.150 HD
ATOM     12  C   LIG    1       23.777 -19.847   4.795  0.00  0.00    +0.194 C 
ATOM     13  C   LIG    1       22.963 -19.285   5.969  0.00  0.00    +0.237 C 
ATOM     14  O   LIG    1       22.839 -19.874   7.041  0.00  0.00    -0.274 OA
ATOM     15  N   LIG    1       22.501 -18.007   5.754  0.00  0.00    -0.312 N 
ATOM     16  H   LIG    1       22.677 -17.614   4.832  0.00  0.00    +0.149 HD
ATOM     17  C   LIG    1       21.965 -17.155   6.800  0.00  0.00    +0.132 C 
ATOM     18  CA  LIG    1       21.544 -15.776   6.257  0.00  0.00    +0.155 C 
ATOM     19  C   LIG    1       22.782 -15.061   5.682  0.00  0.00    +0.232 C 
ATOM     20  O   LIG    1       23.924 -15.254   6.088  0.00  0.00    -0.274 OA
ATOM     21  N   LIG    1       22.512 -14.142   4.695  0.00  0.00    -0.301 N 
ATOM     22  H   LIG    1       21.564 -14.175   4.323  0.00  0.00    +0.150 HD
ATOM     23  CA  LIG    1       23.563 -13.394   3.998  0.00  0.00    +0.184 C 
ATOM     24  C   LIG    1       24.474 -14.380   3.210  0.00  0.00    +0.236 C 
ATOM     25  O   LIG    1       24.012 -15.394   2.674  0.00  0.00    -0.274 OA
ATOM     26  N   LIG    1       25.805 -14.030   3.076  0.00  0.00    -0.301 N 
ATOM     27  H   LIG    1       26.188 -13.477   3.844  0.00  0.00    +0.150 HD
ENDROOT
BRANCH   7  28
ATOM     28  N   LIG    1       28.224 -19.195   6.324  0.00  0.00    -0.274 N 
ATOM     29  H   LIG    1       28.011 -19.025   7.305  0.00  0.00    +0.156 HD
ATOM     30  C   LIG    1       28.655 -20.476   6.124  0.00  0.00    +0.301 C 
ATOM     31  O   LIG    1       28.758 -21.268   7.059  0.00  0.00    -0.253 OA
ATOM     32  N   LIG    1       28.986 -20.852   4.872  0.00  0.00    -0.313 N 
ATOM     33  H   LIG    1       29.238 -21.828   4.781  0.00  0.00    +0.146 HD
ATOM     34  H   LIG    1       28.514 -20.448   4.077  0.00  0.00    +0.146 HD
ENDBRANCH   7  28
BRANCH  12  35
ATOM     35  C   LIG    1       23.063 -19.904   3.419  0.00  0.00    +0.168 C 
ATOM     36  N   LIG    1       22.578 -18.586   2.995  0.00  0.00    -0.234 N 
ATOM     37  H   LIG    1       23.112 -18.171   2.237  0.00  0.00    +0.245 HD
ATOM     38  C   LIG    1       21.255 -18.330   2.905  0.00  0.00    +0.362 C 
ATOM     39  N   LIG    1       20.285 -19.055   3.324  0.00  0.00    -0.117 NA
ATOM     40  C   LIG    1       20.624 -20.367   3.888  0.00  0.00    +0.246 C 
ATOM     41  C   LIG    1       21.928 -20.920   3.327  0.00  0.00    +0.081 C 
BRANCH  38  42
ATOM     42  N   LIG    1       21.038 -17.110   2.378  0.00  0.00    -0.252 N 
ATOM     43  H   LIG    1       21.321 -16.321   2.959  0.00  0.00    +0.241 HD
ATOM     44  H   LIG    1       20.102 -17.010   1.998  0.00  0.00    +0.241 HD
ENDBRANCH  38  42
ENDBRANCH  12  35
BRANCH  18  45
ATOM     45  N   LIG    1       20.478 -15.857   5.220  0.00  0.00    -0.319 NA
ATOM     46  H1  LIG    1       19.800 -16.561   5.529  0.00  0.00    +0.119 HD
ATOM     47  H2  LIG    1       20.879 -16.306   4.387  0.00  0.00    +0.119 HD
ENDBRANCH  18  45
BRANCH   1  48
ATOM     48  C   LIG    1       27.966 -14.282   1.836  0.00  0.00    +0.136 C 
BRANCH  48  50
ATOM     49  C   LIG    1       28.398 -12.443   3.425  0.00  0.00    +0.215 C 
ATOM     50  N   LIG    1       28.813 -13.605   2.812  0.00  0.00    -0.313 N 
ATOM     51  H   LIG    1       29.383 -14.181   3.445  0.00  0.00    +0.149 HD
ATOM     52  O   LIG    1       27.375 -11.842   3.118  0.00  0.00    -0.276 OA
BRANCH  49  53
ATOM     53  C   LIG    1       29.370 -11.923   4.473  0.00  0.00    +0.114 C 
BRANCH  53  54
ATOM     54  C   LIG    1       28.743 -11.669   5.852  0.00  0.00    +0.059 C 
BRANCH  54  55
ATOM     55  N   LIG    1       27.282 -11.458   5.742  0.00  0.00    -0.327 NA
ATOM     56  H   LIG    1       27.124 -10.645   5.139  0.00  0.00    +0.118 HD
ATOM     57  H   LIG    1       26.912 -11.173   6.652  0.00  0.00    +0.118 HD
ENDBRANCH  54  55
BRANCH  54  58
ATOM     58  C   LIG    1       29.003 -12.839   6.832  0.00  0.00    +0.020 C 
BRANCH  58  59
ATOM     59  C   LIG    1       27.933 -13.942   6.850  0.00  0.00    +0.016 C 
BRANCH  59  60
ATOM     60  C   LIG    1       26.515 -13.388   6.716  0.00  0.00    +0.077 C 
BRANCH  60  61
ATOM     61  N   LIG    1       25.710 -14.245   5.857  0.00  0.00    -0.330 NA
ATOM     62  H   LIG    1       24.837 -14.471   6.332  0.00  0.00    +0.118 HD
ATOM     63  H   LIG    1       25.450 -13.741   5.010  0.00  0.00    +0.118 HD
ENDBRANCH  60  61
ENDBRANCH  59  60
ENDBRANCH  58  59
ENDBRANCH  54  58
ENDBRANCH  53  54
ENDBRANCH  49  53
ENDBRANCH  48  50
ENDBRANCH   1  48
BRANCH  23  64
ATOM     64  C   LIG    1       24.271 -12.371   4.904  0.00  0.00    +0.187 C 
BRANCH  64  65
ATOM     65  O   LIG    1       23.405 -11.651   5.773  0.00  0.00    -0.393 OA
ATOM     66  H   LIG    1       22.488 -11.711   5.421  0.00  0.00    +0.209 HD
ENDBRANCH  64  65
ENDBRANCH  23  64
TORSDOF 15
ENDMDL
