MODEL 1
REMARK VINA RESULT:      -5.7      0.000      0.000
REMARK  Name = *****
REMARK                            x       y       z     vdW  Elec       q    Type
REMARK                         _______ _______ _______ _____ _____    ______ ____
ROOT
ATOM      1  C   LIG    1       23.767 -20.870   6.657  0.00  0.00    +0.434 C 
ATOM      2  F   LIG    1       25.012 -20.321   6.548  0.00  0.00    -0.186 F 
ATOM      3  F   LIG    1       23.239 -20.372   7.813  0.00  0.00    -0.186 F 
ENDROOT
BRANCH   1   5
ATOM      4  F   LIG    1       24.789 -22.785   7.596  0.00  0.00    -0.165 F 
ATOM      5  C   LIG    1       23.846 -22.374   6.711  0.00  0.00    +0.463 C 
ATOM      6  F   LIG    1       22.680 -22.941   7.098  0.00  0.00    -0.165 F 
ATOM      7  F   LIG    1       24.175 -22.919   5.516  0.00  0.00    -0.165 F 
ENDBRANCH   1   5
BRANCH   1   8
ATOM      8  C   LIG    1       22.913 -20.498   5.473  0.00  0.00    +0.463 C 
ATOM      9  F   LIG    1       23.616 -20.469   4.317  0.00  0.00    -0.165 F 
ATOM     10  F   LIG    1       22.373 -19.262   5.627  0.00  0.00    -0.165 F 
ATOM     11  F   LIG    1       21.879 -21.351   5.289  0.00  0.00    -0.165 F 
ENDBRANCH   1   8
TORSDOF 2
ENDMDL
MODEL 2
REMARK VINA RESULT:      -5.7      0.015      3.171
REMARK  Name = *****
REMARK                            x       y       z     vdW  Elec       q    Type
REMARK                         _______ _______ _______ _____ _____    ______ ____
ROOT
ATOM      1  C   LIG    1       23.767 -20.868   6.661  0.00  0.00    +0.434 C 
ATOM      2  F   LIG    1       23.235 -20.381   7.820  0.00  0.00    -0.186 F 
ATOM      3  F   LIG    1       25.012 -20.316   6.561  0.00  0.00    -0.186 F 
ENDROOT
BRANCH   1   5
ATOM      4  F   LIG    1       22.379 -19.249   5.638  0.00  0.00    -0.165 F 
ATOM      5  C   LIG    1       22.916 -20.485   5.478  0.00  0.00    +0.463 C 
ATOM      6  F   LIG    1       23.621 -20.452   4.322  0.00  0.00    -0.165 F 
ATOM      7  F   LIG    1       21.880 -21.334   5.287  0.00  0.00    -0.165 F 
ENDBRANCH   1   5
BRANCH   1   8
ATOM      8  C   LIG    1       23.848 -22.372   6.700  0.00  0.00    +0.463 C 
ATOM      9  F   LIG    1       22.682 -22.943   7.080  0.00  0.00    -0.165 F 
ATOM     10  F   LIG    1       24.789 -22.790   7.584  0.00  0.00    -0.165 F 
ATOM     11  F   LIG    1       24.181 -22.906   5.502  0.00  0.00    -0.165 F 
ENDBRANCH   1   8
TORSDOF 2
ENDMDL
MODEL 3
REMARK VINA RESULT:      -5.7      1.060      2.333
REMARK  Name = *****
REMARK                            x       y       z     vdW  Elec       q    Type
REMARK                         _______ _______ _______ _____ _____    ______ ____
ROOT
ATOM      1  C   LIG    1       22.873 -20.369   5.407  0.00  0.00    +0.434 C 
ATOM      2  F   LIG    1       22.411 -19.191   5.921  0.00  0.00    -0.186 F 
ATOM      3  F   LIG    1       21.765 -21.074   5.034  0.00  0.00    -0.186 F 
ENDROOT
BRANCH   1   5
ATOM      4  F   LIG    1       22.867 -21.596   7.429  0.00  0.00    -0.165 F 
ATOM      5  C   LIG    1       23.667 -21.129   6.438  0.00  0.00    +0.463 C 
ATOM      6  F   LIG    1       24.300 -22.204   5.914  0.00  0.00    -0.165 F 
ATOM      7  F   LIG    1       24.612 -20.364   7.033  0.00  0.00    -0.165 F 
ENDBRANCH   1   5
BRANCH   1   8
ATOM      8  C   LIG    1       23.773 -20.120   4.225  0.00  0.00    +0.463 C 
ATOM      9  F   LIG    1       25.035 -19.802   4.595  0.00  0.00    -0.165 F 
ATOM     10  F   LIG    1       23.319 -19.086   3.472  0.00  0.00    -0.165 F 
ATOM     11  F   LIG    1       23.858 -21.190   3.402  0.00  0.00    -0.165 F 
ENDBRANCH   1   8
TORSDOF 2
ENDMDL
MODEL 4
REMARK VINA RESULT:      -5.7      1.061      3.351
REMARK  Name = *****
REMARK                            x       y       z     vdW  Elec       q    Type
REMARK                         _______ _______ _______ _____ _____    ______ ____
ROOT
ATOM      1  C   LIG    1       22.872 -20.367   5.407  0.00  0.00    +0.434 C 
ATOM      2  F   LIG    1       21.765 -21.072   5.034  0.00  0.00    -0.186 F 
ATOM      3  F   LIG    1       22.409 -19.191   5.925  0.00  0.00    -0.186 F 
ENDROOT
BRANCH   1   5
ATOM      4  F   LIG    1       23.312 -19.079   3.473  0.00  0.00    -0.165 F 
ATOM      5  C   LIG    1       23.770 -20.112   4.224  0.00  0.00    +0.463 C 
ATOM      6  F   LIG    1       25.033 -19.793   4.592  0.00  0.00    -0.165 F 
ATOM      7  F   LIG    1       23.855 -21.181   3.398  0.00  0.00    -0.165 F 
ENDBRANCH   1   5
BRANCH   1   8
ATOM      8  C   LIG    1       23.670 -21.128   6.434  0.00  0.00    +0.463 C 
ATOM      9  F   LIG    1       24.301 -22.202   5.906  0.00  0.00    -0.165 F 
ATOM     10  F   LIG    1       22.872 -21.598   7.426  0.00  0.00    -0.165 F 
ATOM     11  F   LIG    1       24.615 -20.364   7.028  0.00  0.00    -0.165 F 
ENDBRANCH   1   8
TORSDOF 2
ENDMDL
MODEL 5
REMARK VINA RESULT:      -5.7      0.728      1.747
REMARK  Name = *****
REMARK                            x       y       z     vdW  Elec       q    Type
REMARK                         _______ _______ _______ _____ _____    ______ ____
ROOT
ATOM      1  C   LIG    1       24.004 -21.406   5.737  0.00  0.00    +0.434 C 
ATOM      2  F   LIG    1       24.469 -22.193   4.724  0.00  0.00    -0.186 F 
ATOM      3  F   LIG    1       25.054 -20.616   6.108  0.00  0.00    -0.186 F 
ENDROOT
BRANCH   1   5
ATOM      4  F   LIG    1       24.575 -22.831   7.536  0.00  0.00    -0.165 F 
ATOM      5  C   LIG    1       23.532 -22.245   6.896  0.00  0.00    +0.463 C 
ATOM      6  F   LIG    1       22.867 -21.519   7.824  0.00  0.00    -0.165 F 
ATOM      7  F   LIG    1       22.706 -23.246   6.509  0.00  0.00    -0.165 F 
ENDBRANCH   1   5
BRANCH   1   8
ATOM      8  C   LIG    1       22.841 -20.568   5.273  0.00  0.00    +0.463 C 
ATOM      9  F   LIG    1       21.707 -21.292   5.131  0.00  0.00    -0.165 F 
ATOM     10  F   LIG    1       23.093 -20.005   4.064  0.00  0.00    -0.165 F 
ATOM     11  F   LIG    1       22.561 -19.552   6.121  0.00  0.00    -0.165 F 
ENDBRANCH   1   8
TORSDOF 2
ENDMDL
MODEL 6
REMARK VINA RESULT:      -5.7      0.728      3.213
REMARK  Name = *****
REMARK                            x       y       z     vdW  Elec       q    Type
REMARK                         _______ _______ _______ _____ _____    ______ ____
ROOT
ATOM      1  C   LIG    1       24.003 -21.387   5.735  0.00  0.00    +0.434 C 
ATOM      2  F   LIG    1       25.049 -20.592   6.106  0.00  0.00    -0.186 F 
ATOM      3  F   LIG    1       24.471 -22.171   4.720  0.00  0.00    -0.186 F 
ENDROOT
BRANCH   1   5
ATOM      4  F   LIG    1       23.084 -19.987   4.065  0.00  0.00    -0.165 F 
ATOM      5  C   LIG    1       22.835 -20.555   5.272  0.00  0.00    +0.463 C 
ATOM      6  F   LIG    1       21.703 -21.284   5.130  0.00  0.00    -0.165 F 
ATOM      7  F   LIG    1       22.549 -19.542   6.123  0.00  0.00    -0.165 F 
ENDBRANCH   1   5
BRANCH   1   8
ATOM      8  C   LIG    1       23.535 -22.231   6.893  0.00  0.00    +0.463 C 
ATOM      9  F   LIG    1       22.867 -21.509   7.822  0.00  0.00    -0.165 F 
ATOM     10  F   LIG    1       24.583 -22.809   7.533  0.00  0.00    -0.165 F 
ATOM     11  F   LIG    1       22.716 -23.236   6.506  0.00  0.00    -0.165 F 
ENDBRANCH   1   8
TORSDOF 2
ENDMDL
MODEL 7
REMARK VINA RESULT:      -5.7      1.493      2.746
REMARK  Name = *****
REMARK                            x       y       z     vdW  Elec       q    Type
REMARK                         _______ _______ _______ _____ _____    ______ ____
ROOT
ATOM      1  C   LIG    1       24.298 -20.627   5.098  0.00  0.00    +0.434 C 
ATOM      2  F   LIG    1       24.695 -21.906   4.833  0.00  0.00    -0.186 F 
ATOM      3  F   LIG    1       25.173 -20.151   6.033  0.00  0.00    -0.186 F 
ENDROOT
BRANCH   1   5
ATOM      4  F   LIG    1       22.755 -21.402   6.714  0.00  0.00    -0.165 F 
ATOM      5  C   LIG    1       22.887 -20.602   5.626  0.00  0.00    +0.463 C 
ATOM      6  F   LIG    1       22.499 -19.363   6.008  0.00  0.00    -0.165 F 
ATOM      7  F   LIG    1       21.985 -21.037   4.715  0.00  0.00    -0.165 F 
ENDBRANCH   1   5
BRANCH   1   8
ATOM      8  C   LIG    1       24.337 -19.785   3.849  0.00  0.00    +0.463 C 
ATOM      9  F   LIG    1       24.137 -20.515   2.728  0.00  0.00    -0.165 F 
ATOM     10  F   LIG    1       25.542 -19.177   3.705  0.00  0.00    -0.165 F 
ATOM     11  F   LIG    1       23.407 -18.803   3.856  0.00  0.00    -0.165 F 
ENDBRANCH   1   8
TORSDOF 2
ENDMDL
MODEL 8
REMARK VINA RESULT:      -5.7      1.498      3.305
REMARK  Name = *****
REMARK                            x       y       z     vdW  Elec       q    Type
REMARK                         _______ _______ _______ _____ _____    ______ ____
ROOT
ATOM      1  C   LIG    1       24.293 -20.617   5.087  0.00  0.00    +0.434 C 
ATOM      2  F   LIG    1       25.171 -20.148   6.021  0.00  0.00    -0.186 F 
ATOM      3  F   LIG    1       24.685 -21.896   4.814  0.00  0.00    -0.186 F 
ENDROOT
BRANCH   1   5
ATOM      4  F   LIG    1       24.134 -20.522   2.730  0.00  0.00    -0.165 F 
ATOM      5  C   LIG    1       24.331 -19.770   3.842  0.00  0.00    +0.463 C 
ATOM      6  F   LIG    1       23.373 -18.813   3.837  0.00  0.00    -0.165 F 
ATOM      7  F   LIG    1       25.519 -19.142   3.678  0.00  0.00    -0.165 F 
ENDBRANCH   1   5
BRANCH   1   8
ATOM      8  C   LIG    1       22.883 -20.590   5.618  0.00  0.00    +0.463 C 
ATOM      9  F   LIG    1       22.491 -19.347   5.981  0.00  0.00    -0.165 F 
ATOM     10  F   LIG    1       22.759 -21.371   6.721  0.00  0.00    -0.165 F 
ATOM     11  F   LIG    1       21.980 -21.046   4.719  0.00  0.00    -0.165 F 
ENDBRANCH   1   8
TORSDOF 2
ENDMDL
MODEL 9
REMARK VINA RESULT:      -5.7      1.506      3.351
REMARK  Name = *****
REMARK                            x       y       z     vdW  Elec       q    Type
REMARK                         _______ _______ _______ _____ _____    ______ ____
ROOT
ATOM      1  C   LIG    1       23.886 -20.466   4.491  0.00  0.00    +0.434 C 
ATOM      2  F   LIG    1       24.005 -19.253   3.877  0.00  0.00    -0.186 F 
ATOM      3  F   LIG    1       23.769 -21.383   3.486  0.00  0.00    -0.186 F 
ENDROOT
BRANCH   1   5
ATOM      4  F   LIG    1       21.559 -20.838   4.693  0.00  0.00    -0.165 F 
ATOM      5  C   LIG    1       22.675 -20.498   5.387  0.00  0.00    +0.463 C 
ATOM      6  F   LIG    1       22.796 -21.398   6.390  0.00  0.00    -0.165 F 
ATOM      7  F   LIG    1       22.421 -19.297   5.959  0.00  0.00    -0.165 F 
ENDBRANCH   1   5
BRANCH   1   8
ATOM      8  C   LIG    1       25.095 -20.756   5.343  0.00  0.00    +0.463 C 
ATOM      9  F   LIG    1       24.983 -20.243   6.590  0.00  0.00    -0.165 F 
ATOM     10  F   LIG    1       26.217 -20.216   4.802  0.00  0.00    -0.165 F 
ATOM     11  F   LIG    1       25.330 -22.081   5.477  0.00  0.00    -0.165 F 
ENDBRANCH   1   8
TORSDOF 2
ENDMDL
