MODEL 1
REMARK VINA RESULT:      -7.1      0.000      0.000
REMARK  Name = *****
REMARK                            x       y       z     vdW  Elec       q    Type
REMARK                         _______ _______ _______ _____ _____    ______ ____
ROOT
ATOM      1  N   LIG    1       26.164 -21.739   6.614  0.00  0.00    -0.287 NA
ATOM      2  C   LIG    1       25.104 -20.748   6.672  0.00  0.00    +0.108 C 
ATOM      3  C   LIG    1       23.978 -21.118   5.680  0.00  0.00    +0.039 C 
ATOM      4  C   LIG    1       22.856 -20.090   5.810  0.00  0.00    +0.030 C 
ATOM      5  C   LIG    1       23.453 -22.529   6.088  0.00  0.00    +0.108 C 
ATOM      6  N   LIG    1       24.505 -23.548   5.936  0.00  0.00    -0.287 NA
ATOM      7  C   LIG    1       25.705 -23.110   6.632  0.00  0.00    +0.171 C 
ENDROOT
BRANCH   3   8
ATOM      8  N   LIG    1       24.546 -21.119   4.302  0.00  0.00    -0.323 NA
ATOM      9  H   LIG    1       24.401 -22.059   3.905  0.00  0.00    +0.119 HD
ATOM     10  H   LIG    1       25.552 -21.103   4.433  0.00  0.00    +0.119 HD
ENDBRANCH   3   8
BRANCH   1  11
ATOM     11  C   LIG    1       27.288 -21.529   7.562  0.00  0.00    +0.089 C 
BRANCH  11  12
ATOM     12  C   LIG    1       28.462 -20.460   7.380  0.00  0.00    +0.003 C 
BRANCH  12  13
ATOM     13  C   LIG    1       28.923 -20.014   5.970  0.00  0.00    +0.001 C 
ATOM     14  C   LIG    1       29.032 -18.584   5.512  0.00  0.00    +0.004 C 
ENDBRANCH  12  13
BRANCH  12  15
ATOM     15  C   LIG    1       29.773 -20.863   8.122  0.00  0.00    +0.005 C 
BRANCH  15  16
ATOM     16  C   LIG    1       31.030 -19.978   7.927  0.00  0.00    +0.000 C 
BRANCH  16  18
ATOM     17  C   LIG    1       30.369 -17.766   9.003  0.00  0.00    +0.004 C 
ATOM     18  C   LIG    1       31.315 -18.970   9.037  0.00  0.00    -0.003 C 
ENDBRANCH  16  18
ENDBRANCH  15  16
ENDBRANCH  12  15
ENDBRANCH  11  12
ENDBRANCH   1  11
BRANCH   6  19
ATOM     19  C   LIG    1       24.044 -24.900   6.439  0.00  0.00    +0.089 C 
BRANCH  19  20
ATOM     20  C   LIG    1       24.297 -26.225   5.570  0.00  0.00    +0.003 C 
BRANCH  20  21
ATOM     21  C   LIG    1       25.645 -26.325   4.819  0.00  0.00    +0.001 C 
ATOM     22  C   LIG    1       26.844 -26.643   5.653  0.00  0.00    +0.004 C 
ENDBRANCH  20  21
BRANCH  20  23
ATOM     23  C   LIG    1       24.228 -27.509   6.467  0.00  0.00    +0.005 C 
BRANCH  23  24
ATOM     24  C   LIG    1       24.096 -28.871   5.720  0.00  0.00    +0.000 C 
BRANCH  24  25
ATOM     25  C   LIG    1       24.610 -30.079   6.509  0.00  0.00    -0.003 C 
ATOM     26  C   LIG    1       24.945 -29.708   7.951  0.00  0.00    +0.004 C 
ENDBRANCH  24  25
ENDBRANCH  23  24
ENDBRANCH  20  23
ENDBRANCH  19  20
ENDBRANCH   6  19
TORSDOF 13
ENDMDL
MODEL 2
REMARK VINA RESULT:      -7.1      2.124      7.402
REMARK  Name = *****
REMARK                            x       y       z     vdW  Elec       q    Type
REMARK                         _______ _______ _______ _____ _____    ______ ____
ROOT
ATOM      1  N   LIG    1       23.993 -21.391   5.753  0.00  0.00    -0.287 NA
ATOM      2  C   LIG    1       23.447 -22.660   6.199  0.00  0.00    +0.108 C 
ATOM      3  C   LIG    1       24.537 -23.754   6.144  0.00  0.00    +0.039 C 
ATOM      4  C   LIG    1       23.946 -25.059   6.674  0.00  0.00    +0.030 C 
ATOM      5  C   LIG    1       25.702 -23.286   7.070  0.00  0.00    +0.108 C 
ATOM      6  N   LIG    1       26.316 -22.048   6.561  0.00  0.00    -0.287 NA
ATOM      7  C   LIG    1       25.278 -21.057   6.325  0.00  0.00    +0.171 C 
ENDROOT
BRANCH   3   8
ATOM      8  N   LIG    1       24.984 -23.904   4.729  0.00  0.00    -0.323 NA
ATOM      9  H   LIG    1       25.941 -23.526   4.663  0.00  0.00    +0.119 HD
ATOM     10  H   LIG    1       24.452 -23.212   4.212  0.00  0.00    +0.119 HD
ENDBRANCH   3   8
BRANCH   1  11
ATOM     11  C   LIG    1       23.058 -20.238   5.809  0.00  0.00    +0.089 C 
BRANCH  11  12
ATOM     12  C   LIG    1       22.674 -19.300   4.573  0.00  0.00    +0.003 C 
BRANCH  12  13
ATOM     13  C   LIG    1       23.696 -19.004   3.447  0.00  0.00    +0.001 C 
ATOM     14  C   LIG    1       25.185 -18.903   3.641  0.00  0.00    +0.004 C 
ENDBRANCH  12  13
BRANCH  12  15
ATOM     15  C   LIG    1       22.143 -17.900   5.012  0.00  0.00    +0.005 C 
BRANCH  15  16
ATOM     16  C   LIG    1       22.513 -16.670   4.145  0.00  0.00    +0.000 C 
BRANCH  16  18
ATOM     17  C   LIG    1       23.856 -14.506   4.105  0.00  0.00    +0.004 C 
ATOM     18  C   LIG    1       22.920 -15.414   4.910  0.00  0.00    -0.003 C 
ENDBRANCH  16  18
ENDBRANCH  15  16
ENDBRANCH  12  15
ENDBRANCH  11  12
ENDBRANCH   1  11
BRANCH   6  19
ATOM     19  C   LIG    1       27.370 -21.521   7.512  0.00  0.00    +0.089 C 
BRANCH  19  20
ATOM     20  C   LIG    1       28.625 -20.688   6.962  0.00  0.00    +0.003 C 
BRANCH  20  21
ATOM     21  C   LIG    1       28.390 -19.809   5.712  0.00  0.00    +0.001 C 
ATOM     22  C   LIG    1       29.244 -18.588   5.594  0.00  0.00    +0.004 C 
ENDBRANCH  20  21
BRANCH  20  23
ATOM     23  C   LIG    1       29.178 -19.711   8.056  0.00  0.00    +0.005 C 
BRANCH  23  24
ATOM     24  C   LIG    1       30.651 -19.941   8.512  0.00  0.00    +0.000 C 
BRANCH  24  25
ATOM     25  C   LIG    1       31.339 -18.698   9.083  0.00  0.00    -0.003 C 
ATOM     26  C   LIG    1       30.327 -17.622   9.467  0.00  0.00    +0.004 C 
ENDBRANCH  24  25
ENDBRANCH  23  24
ENDBRANCH  20  23
ENDBRANCH  19  20
ENDBRANCH   6  19
TORSDOF 13
ENDMDL
MODEL 3
REMARK VINA RESULT:      -6.9      2.124      4.572
REMARK  Name = *****
REMARK                            x       y       z     vdW  Elec       q    Type
REMARK                         _______ _______ _______ _____ _____    ______ ____
ROOT
ATOM      1  N   LIG    1       24.142 -21.407   7.025  0.00  0.00    -0.287 NA
ATOM      2  C   LIG    1       25.282 -20.519   7.174  0.00  0.00    +0.108 C 
ATOM      3  C   LIG    1       26.370 -21.195   8.037  0.00  0.00    +0.039 C 
ATOM      4  C   LIG    1       27.575 -20.260   8.123  0.00  0.00    +0.030 C 
ATOM      5  C   LIG    1       26.776 -22.515   7.312  0.00  0.00    +0.108 C 
ATOM      6  N   LIG    1       25.641 -23.451   7.248  0.00  0.00    -0.287 NA
ATOM      7  C   LIG    1       24.484 -22.770   6.690  0.00  0.00    +0.171 C 
ENDROOT
BRANCH   3   8
ATOM      8  N   LIG    1       25.802 -21.461   9.389  0.00  0.00    -0.323 NA
ATOM      9  H   LIG    1       26.417 -21.007  10.081  0.00  0.00    +0.119 HD
ATOM     10  H   LIG    1       25.986 -22.443   9.562  0.00  0.00    +0.119 HD
ENDBRANCH   3   8
BRANCH   1  11
ATOM     11  C   LIG    1       23.041 -20.895   6.168  0.00  0.00    +0.089 C 
BRANCH  11  12
ATOM     12  C   LIG    1       23.209 -19.834   4.985  0.00  0.00    +0.003 C 
BRANCH  12  13
ATOM     13  C   LIG    1       22.043 -18.897   4.582  0.00  0.00    +0.001 C 
ATOM     14  C   LIG    1       22.115 -17.394   4.560  0.00  0.00    +0.004 C 
ENDBRANCH  12  13
BRANCH  12  15
ATOM     15  C   LIG    1       23.684 -20.482   3.648  0.00  0.00    +0.005 C 
BRANCH  15  16
ATOM     16  C   LIG    1       25.129 -20.195   3.165  0.00  0.00    +0.000 C 
BRANCH  16  18
ATOM     17  C   LIG    1       25.712 -17.719   3.261  0.00  0.00    +0.004 C 
ATOM     18  C   LIG    1       25.876 -19.095   3.913  0.00  0.00    -0.003 C 
ENDBRANCH  16  18
ENDBRANCH  15  16
ENDBRANCH  12  15
ENDBRANCH  11  12
ENDBRANCH   1  11
BRANCH   6  19
ATOM     19  C   LIG    1       25.988 -24.688   6.445  0.00  0.00    +0.089 C 
BRANCH  19  20
ATOM     20  C   LIG    1       25.137 -26.037   6.612  0.00  0.00    +0.003 C 
BRANCH  20  21
ATOM     21  C   LIG    1       24.630 -26.712   5.317  0.00  0.00    +0.001 C 
ATOM     22  C   LIG    1       25.658 -26.977   4.265  0.00  0.00    +0.004 C 
ENDBRANCH  20  21
BRANCH  20  23
ATOM     23  C   LIG    1       25.967 -27.141   7.355  0.00  0.00    +0.005 C 
BRANCH  23  24
ATOM     24  C   LIG    1       25.287 -28.534   7.510  0.00  0.00    +0.000 C 
BRANCH  24  25
ATOM     25  C   LIG    1       25.715 -29.313   8.757  0.00  0.00    -0.003 C 
ATOM     26  C   LIG    1       26.604 -28.471   9.668  0.00  0.00    +0.004 C 
ENDBRANCH  24  25
ENDBRANCH  23  24
ENDBRANCH  20  23
ENDBRANCH  19  20
ENDBRANCH   6  19
TORSDOF 13
ENDMDL
MODEL 4
REMARK VINA RESULT:      -6.8      1.238      8.068
REMARK  Name = *****
REMARK                            x       y       z     vdW  Elec       q    Type
REMARK                         _______ _______ _______ _____ _____    ______ ____
ROOT
ATOM      1  N   LIG    1       25.180 -23.426   6.814  0.00  0.00    -0.287 NA
ATOM      2  C   LIG    1       24.275 -22.685   5.954  0.00  0.00    +0.108 C 
ATOM      3  C   LIG    1       23.861 -21.362   6.636  0.00  0.00    +0.039 C 
ATOM      4  C   LIG    1       22.959 -20.582   5.682  0.00  0.00    +0.030 C 
ATOM      5  C   LIG    1       25.168 -20.556   6.905  0.00  0.00    +0.108 C 
ATOM      6  N   LIG    1       26.042 -21.268   7.853  0.00  0.00    -0.287 NA
ATOM      7  C   LIG    1       26.241 -22.633   7.394  0.00  0.00    +0.171 C 
ENDROOT
BRANCH   3   8
ATOM      8  N   LIG    1       23.145 -21.688   7.902  0.00  0.00    -0.323 NA
ATOM      9  H   LIG    1       22.141 -21.776   7.680  0.00  0.00    +0.119 HD
ATOM     10  H   LIG    1       23.162 -20.830   8.442  0.00  0.00    +0.119 HD
ENDBRANCH   3   8
BRANCH   1  11
ATOM     11  C   LIG    1       25.698 -24.699   6.251  0.00  0.00    +0.089 C 
BRANCH  11  12
ATOM     12  C   LIG    1       25.242 -26.162   6.703  0.00  0.00    +0.003 C 
BRANCH  12  13
ATOM     13  C   LIG    1       26.283 -27.228   7.129  0.00  0.00    +0.001 C 
ATOM     14  C   LIG    1       26.251 -27.992   8.425  0.00  0.00    +0.004 C 
ENDBRANCH  12  13
BRANCH  12  15
ATOM     15  C   LIG    1       24.348 -26.876   5.643  0.00  0.00    +0.005 C 
BRANCH  15  16
ATOM     16  C   LIG    1       24.765 -28.289   5.160  0.00  0.00    +0.000 C 
BRANCH  16  18
ATOM     17  C   LIG    1       24.903 -30.664   6.068  0.00  0.00    +0.004 C 
ATOM     18  C   LIG    1       24.004 -29.457   5.779  0.00  0.00    -0.003 C 
ENDBRANCH  16  18
ENDBRANCH  15  16
ENDBRANCH  12  15
ENDBRANCH  11  12
ENDBRANCH   1  11
BRANCH   6  19
ATOM     19  C   LIG    1       27.364 -20.553   8.033  0.00  0.00    +0.089 C 
BRANCH  19  20
ATOM     20  C   LIG    1       28.687 -21.081   7.294  0.00  0.00    +0.003 C 
BRANCH  20  21
ATOM     21  C   LIG    1       29.210 -20.240   6.107  0.00  0.00    +0.001 C 
ATOM     22  C   LIG    1       28.237 -19.286   5.494  0.00  0.00    +0.004 C 
ENDBRANCH  20  21
BRANCH  20  23
ATOM     23  C   LIG    1       29.891 -21.178   8.293  0.00  0.00    +0.005 C 
BRANCH  23  24
ATOM     24  C   LIG    1       31.077 -20.197   8.049  0.00  0.00    +0.000 C 
BRANCH  24  25
ATOM     25  C   LIG    1       31.227 -19.107   9.113  0.00  0.00    -0.003 C 
ATOM     26  C   LIG    1       30.115 -18.066   9.012  0.00  0.00    +0.004 C 
ENDBRANCH  24  25
ENDBRANCH  23  24
ENDBRANCH  20  23
ENDBRANCH  19  20
ENDBRANCH   6  19
TORSDOF 13
ENDMDL
MODEL 5
REMARK VINA RESULT:      -6.7      3.130      8.368
REMARK  Name = *****
REMARK                            x       y       z     vdW  Elec       q    Type
REMARK                         _______ _______ _______ _____ _____    ______ ____
ROOT
ATOM      1  N   LIG    1       26.218 -20.418   5.385  0.00  0.00    -0.287 NA
ATOM      2  C   LIG    1       25.515 -20.713   6.621  0.00  0.00    +0.108 C 
ATOM      3  C   LIG    1       26.419 -21.543   7.559  0.00  0.00    +0.039 C 
ATOM      4  C   LIG    1       25.673 -21.785   8.870  0.00  0.00    +0.030 C 
ATOM      5  C   LIG    1       27.700 -20.696   7.829  0.00  0.00    +0.108 C 
ATOM      6  N   LIG    1       28.461 -20.479   6.587  0.00  0.00    -0.287 NA
ATOM      7  C   LIG    1       27.574 -19.949   5.563  0.00  0.00    +0.171 C 
ENDROOT
BRANCH   3   8
ATOM      8  N   LIG    1       26.743 -22.832   6.883  0.00  0.00    -0.323 NA
ATOM      9  H   LIG    1       25.897 -23.421   6.912  0.00  0.00    +0.119 HD
ATOM     10  H   LIG    1       27.357 -23.319   7.527  0.00  0.00    +0.119 HD
ENDBRANCH   3   8
BRANCH   1  11
ATOM     11  C   LIG    1       25.475 -19.575   4.413  0.00  0.00    +0.089 C 
BRANCH  11  12
ATOM     12  C   LIG    1       23.929 -19.738   4.043  0.00  0.00    +0.003 C 
BRANCH  12  13
ATOM     13  C   LIG    1       22.845 -18.877   4.739  0.00  0.00    +0.001 C 
ATOM     14  C   LIG    1       21.707 -18.189   4.034  0.00  0.00    +0.004 C 
ENDBRANCH  12  13
BRANCH  12  15
ATOM     15  C   LIG    1       23.421 -21.207   4.177  0.00  0.00    +0.005 C 
BRANCH  15  16
ATOM     16  C   LIG    1       22.287 -21.503   5.191  0.00  0.00    +0.000 C 
BRANCH  16  18
ATOM     17  C   LIG    1       22.767 -23.532   6.653  0.00  0.00    +0.004 C 
ATOM     18  C   LIG    1       22.732 -22.003   6.562  0.00  0.00    -0.003 C 
ENDBRANCH  16  18
ENDBRANCH  15  16
ENDBRANCH  12  15
ENDBRANCH  11  12
ENDBRANCH   1  11
BRANCH   6  19
ATOM     19  C   LIG    1       29.643 -19.561   6.814  0.00  0.00    +0.089 C 
BRANCH  19  20
ATOM     20  C   LIG    1       30.223 -19.324   8.291  0.00  0.00    +0.003 C 
BRANCH  20  21
ATOM     21  C   LIG    1       31.440 -20.178   8.712  0.00  0.00    +0.001 C 
ATOM     22  C   LIG    1       31.157 -21.603   9.064  0.00  0.00    +0.004 C 
ENDBRANCH  20  21
BRANCH  20  23
ATOM     23  C   LIG    1       30.675 -17.835   8.487  0.00  0.00    +0.005 C 
BRANCH  23  24
ATOM     24  C   LIG    1       31.568 -17.539   9.730  0.00  0.00    +0.000 C 
BRANCH  24  25
ATOM     25  C   LIG    1       30.789 -17.206  11.005  0.00  0.00    -0.003 C 
ATOM     26  C   LIG    1       31.598 -16.311  11.940  0.00  0.00    +0.004 C 
ENDBRANCH  24  25
ENDBRANCH  23  24
ENDBRANCH  20  23
ENDBRANCH  19  20
ENDBRANCH   6  19
TORSDOF 13
ENDMDL
MODEL 6
REMARK VINA RESULT:      -6.6      4.252      8.023
REMARK  Name = *****
REMARK                            x       y       z     vdW  Elec       q    Type
REMARK                         _______ _______ _______ _____ _____    ______ ____
ROOT
ATOM      1  N   LIG    1       26.431 -20.566   5.298  0.00  0.00    -0.287 NA
ATOM      2  C   LIG    1       25.536 -20.661   6.438  0.00  0.00    +0.108 C 
ATOM      3  C   LIG    1       26.287 -21.252   7.652  0.00  0.00    +0.039 C 
ATOM      4  C   LIG    1       25.335 -21.283   8.847  0.00  0.00    +0.030 C 
ATOM      5  C   LIG    1       27.486 -20.303   7.956  0.00  0.00    +0.108 C 
ATOM      6  N   LIG    1       28.440 -20.282   6.835  0.00  0.00    -0.287 NA
ATOM      7  C   LIG    1       27.727 -20.001   5.599  0.00  0.00    +0.171 C 
ENDROOT
BRANCH   3   8
ATOM      8  N   LIG    1       26.747 -22.625   7.299  0.00  0.00    -0.323 NA
ATOM      9  H   LIG    1       27.681 -22.759   7.716  0.00  0.00    +0.119 HD
ATOM     10  H   LIG    1       26.967 -22.582   6.310  0.00  0.00    +0.119 HD
ENDBRANCH   3   8
BRANCH   1  11
ATOM     11  C   LIG    1       25.845 -19.960   4.075  0.00  0.00    +0.089 C 
BRANCH  11  12
ATOM     12  C   LIG    1       24.858 -18.704   4.048  0.00  0.00    +0.003 C 
BRANCH  12  13
ATOM     13  C   LIG    1       23.365 -18.869   3.667  0.00  0.00    +0.001 C 
ATOM     14  C   LIG    1       22.205 -18.418   4.514  0.00  0.00    +0.004 C 
ENDBRANCH  12  13
BRANCH  12  15
ATOM     15  C   LIG    1       25.376 -17.540   3.148  0.00  0.00    +0.005 C 
BRANCH  15  16
ATOM     16  C   LIG    1       26.675 -16.807   3.570  0.00  0.00    +0.000 C 
BRANCH  16  18
ATOM     17  C   LIG    1       25.374 -14.631   3.804  0.00  0.00    +0.004 C 
ATOM     18  C   LIG    1       26.683 -15.295   3.366  0.00  0.00    -0.003 C 
ENDBRANCH  16  18
ENDBRANCH  15  16
ENDBRANCH  12  15
ENDBRANCH  11  12
ENDBRANCH   1  11
BRANCH   6  19
ATOM     19  C   LIG    1       29.548 -19.277   7.068  0.00  0.00    +0.089 C 
BRANCH  19  20
ATOM     20  C   LIG    1       30.404 -19.302   8.425  0.00  0.00    +0.003 C 
BRANCH  20  21
ATOM     21  C   LIG    1       31.459 -20.423   8.567  0.00  0.00    +0.001 C 
ATOM     22  C   LIG    1       30.966 -21.731   9.096  0.00  0.00    +0.004 C 
ENDBRANCH  20  21
BRANCH  20  23
ATOM     23  C   LIG    1       31.196 -17.963   8.618  0.00  0.00    +0.005 C 
BRANCH  23  24
ATOM     24  C   LIG    1       30.581 -16.930   9.610  0.00  0.00    +0.000 C 
BRANCH  24  25
ATOM     25  C   LIG    1       30.457 -17.431  11.051  0.00  0.00    -0.003 C 
ATOM     26  C   LIG    1       31.666 -17.033  11.892  0.00  0.00    +0.004 C 
ENDBRANCH  24  25
ENDBRANCH  23  24
ENDBRANCH  20  23
ENDBRANCH  19  20
ENDBRANCH   6  19
TORSDOF 13
ENDMDL
MODEL 7
REMARK VINA RESULT:      -6.5      1.365      8.190
REMARK  Name = *****
REMARK                            x       y       z     vdW  Elec       q    Type
REMARK                         _______ _______ _______ _____ _____    ______ ____
ROOT
ATOM      1  N   LIG    1       25.957 -22.468   6.656  0.00  0.00    -0.287 NA
ATOM      2  C   LIG    1       25.259 -22.110   5.434  0.00  0.00    +0.108 C 
ATOM      3  C   LIG    1       25.179 -20.573   5.302  0.00  0.00    +0.039 C 
ATOM      4  C   LIG    1       24.493 -20.232   3.980  0.00  0.00    +0.030 C 
ATOM      5  C   LIG    1       26.643 -20.036   5.291  0.00  0.00    +0.108 C 
ATOM      6  N   LIG    1       27.317 -20.318   6.570  0.00  0.00    -0.287 NA
ATOM      7  C   LIG    1       27.179 -21.731   6.887  0.00  0.00    +0.171 C 
ENDROOT
BRANCH   3   8
ATOM      8  N   LIG    1       24.405 -20.040   6.459  0.00  0.00    -0.323 NA
ATOM      9  H   LIG    1       23.420 -19.956   6.163  0.00  0.00    +0.119 HD
ATOM     10  H   LIG    1       24.682 -19.067   6.534  0.00  0.00    +0.119 HD
ENDBRANCH   3   8
BRANCH   1  11
ATOM     11  C   LIG    1       26.151 -23.924   6.878  0.00  0.00    +0.089 C 
BRANCH  11  12
ATOM     12  C   LIG    1       25.300 -25.085   6.184  0.00  0.00    +0.003 C 
BRANCH  12  13
ATOM     13  C   LIG    1       23.766 -25.177   6.381  0.00  0.00    +0.001 C 
ATOM     14  C   LIG    1       22.871 -24.017   6.724  0.00  0.00    +0.004 C 
ENDBRANCH  12  13
BRANCH  12  15
ATOM     15  C   LIG    1       25.834 -26.513   6.515  0.00  0.00    +0.005 C 
BRANCH  15  16
ATOM     16  C   LIG    1       25.692 -27.619   5.438  0.00  0.00    +0.000 C 
BRANCH  16  18
ATOM     17  C   LIG    1       25.100 -30.075   5.751  0.00  0.00    +0.004 C 
ATOM     18  C   LIG    1       24.580 -28.637   5.670  0.00  0.00    -0.003 C 
ENDBRANCH  16  18
ENDBRANCH  15  16
ENDBRANCH  12  15
ENDBRANCH  11  12
ENDBRANCH   1  11
BRANCH   6  19
ATOM     19  C   LIG    1       28.774 -19.906   6.531  0.00  0.00    +0.089 C 
BRANCH  19  20
ATOM     20  C   LIG    1       29.699 -20.046   7.834  0.00  0.00    +0.003 C 
BRANCH  20  21
ATOM     21  C   LIG    1       30.015 -21.480   8.319  0.00  0.00    +0.001 C 
ATOM     22  C   LIG    1       31.236 -21.636   9.166  0.00  0.00    +0.004 C 
ENDBRANCH  20  21
BRANCH  20  23
ATOM     23  C   LIG    1       31.096 -19.370   7.610  0.00  0.00    +0.005 C 
BRANCH  23  24
ATOM     24  C   LIG    1       31.452 -18.184   8.557  0.00  0.00    +0.000 C 
BRANCH  24  25
ATOM     25  C   LIG    1       30.246 -17.531   9.236  0.00  0.00    -0.003 C 
ATOM     26  C   LIG    1       30.414 -17.479  10.752  0.00  0.00    +0.004 C 
ENDBRANCH  24  25
ENDBRANCH  23  24
ENDBRANCH  20  23
ENDBRANCH  19  20
ENDBRANCH   6  19
TORSDOF 13
ENDMDL
MODEL 8
REMARK VINA RESULT:      -6.3      2.475      8.239
REMARK  Name = *****
REMARK                            x       y       z     vdW  Elec       q    Type
REMARK                         _______ _______ _______ _____ _____    ______ ____
ROOT
ATOM      1  N   LIG    1       25.753 -23.635   6.652  0.00  0.00    -0.287 NA
ATOM      2  C   LIG    1       25.807 -22.793   7.835  0.00  0.00    +0.108 C 
ATOM      3  C   LIG    1       26.201 -21.352   7.441  0.00  0.00    +0.039 C 
ATOM      4  C   LIG    1       26.190 -20.483   8.697  0.00  0.00    +0.030 C 
ATOM      5  C   LIG    1       25.124 -20.841   6.435  0.00  0.00    +0.108 C 
ATOM      6  N   LIG    1       25.138 -21.638   5.198  0.00  0.00    -0.287 NA
ATOM      7  C   LIG    1       25.050 -23.051   5.532  0.00  0.00    +0.171 C 
ENDROOT
BRANCH   3   8
ATOM      8  N   LIG    1       27.558 -21.386   6.826  0.00  0.00    -0.323 NA
ATOM      9  H   LIG    1       27.478 -21.873   5.920  0.00  0.00    +0.119 HD
ATOM     10  H   LIG    1       28.079 -22.060   7.377  0.00  0.00    +0.119 HD
ENDBRANCH   3   8
BRANCH   1  11
ATOM     11  C   LIG    1       25.332 -25.040   6.887  0.00  0.00    +0.089 C 
BRANCH  11  12
ATOM     12  C   LIG    1       26.232 -26.332   6.613  0.00  0.00    +0.003 C 
BRANCH  12  13
ATOM     13  C   LIG    1       26.353 -26.934   5.190  0.00  0.00    +0.001 C 
ATOM     14  C   LIG    1       25.526 -26.515   4.005  0.00  0.00    +0.004 C 
ENDBRANCH  12  13
BRANCH  12  15
ATOM     15  C   LIG    1       25.861 -27.538   7.529  0.00  0.00    +0.005 C 
BRANCH  15  16
ATOM     16  C   LIG    1       24.794 -28.544   7.025  0.00  0.00    +0.000 C 
BRANCH  16  18
ATOM     17  C   LIG    1       25.306 -30.829   6.026  0.00  0.00    +0.004 C 
ATOM     18  C   LIG    1       25.081 -30.016   7.304  0.00  0.00    -0.003 C 
ENDBRANCH  16  18
ENDBRANCH  15  16
ENDBRANCH  12  15
ENDBRANCH  11  12
ENDBRANCH   1  11
BRANCH   6  19
ATOM     19  C   LIG    1       24.021 -21.228   4.261  0.00  0.00    +0.089 C 
BRANCH  19  20
ATOM     20  C   LIG    1       24.084 -19.830   3.476  0.00  0.00    +0.003 C 
BRANCH  20  21
ATOM     21  C   LIG    1       23.068 -18.743   3.896  0.00  0.00    +0.001 C 
ATOM     22  C   LIG    1       22.224 -19.055   5.089  0.00  0.00    +0.004 C 
ENDBRANCH  20  21
BRANCH  20  23
ATOM     23  C   LIG    1       25.493 -19.159   3.630  0.00  0.00    +0.005 C 
BRANCH  23  24
ATOM     24  C   LIG    1       25.548 -17.611   3.456  0.00  0.00    +0.000 C 
BRANCH  24  25
ATOM     25  C   LIG    1       26.947 -17.006   3.602  0.00  0.00    -0.003 C 
ATOM     26  C   LIG    1       26.923 -15.489   3.438  0.00  0.00    +0.004 C 
ENDBRANCH  24  25
ENDBRANCH  23  24
ENDBRANCH  20  23
ENDBRANCH  19  20
ENDBRANCH   6  19
TORSDOF 13
ENDMDL
MODEL 9
REMARK VINA RESULT:      -6.3      3.365      8.914
REMARK  Name = *****
REMARK                            x       y       z     vdW  Elec       q    Type
REMARK                         _______ _______ _______ _____ _____    ______ ____
ROOT
ATOM      1  N   LIG    1       25.168 -29.215   8.115  0.00  0.00    -0.287 NA
ATOM      2  C   LIG    1       25.462 -30.222   7.111  0.00  0.00    +0.108 C 
ATOM      3  C   LIG    1       24.936 -29.764   5.732  0.00  0.00    +0.039 C 
ATOM      4  C   LIG    1       25.314 -30.817   4.691  0.00  0.00    +0.030 C 
ATOM      5  C   LIG    1       25.640 -28.414   5.398  0.00  0.00    +0.108 C 
ATOM      6  N   LIG    1       25.263 -27.369   6.364  0.00  0.00    -0.287 NA
ATOM      7  C   LIG    1       25.480 -27.861   7.716  0.00  0.00    +0.171 C 
ENDROOT
BRANCH   3   8
ATOM      8  N   LIG    1       23.456 -29.608   5.821  0.00  0.00    -0.323 NA
ATOM      9  H   LIG    1       23.169 -29.889   6.771  0.00  0.00    +0.119 HD
ATOM     10  H   LIG    1       23.078 -30.363   5.259  0.00  0.00    +0.119 HD
ENDBRANCH   3   8
BRANCH   1  11
ATOM     11  C   LIG    1       25.671 -29.508   9.481  0.00  0.00    +0.089 C 
BRANCH  11  12
ATOM     12  C   LIG    1       24.770 -29.975  10.716  0.00  0.00    +0.003 C 
BRANCH  12  13
ATOM     13  C   LIG    1       23.284 -30.366  10.518  0.00  0.00    +0.001 C 
ATOM     14  C   LIG    1       22.800 -31.496   9.649  0.00  0.00    +0.004 C 
ENDBRANCH  12  13
BRANCH  12  15
ATOM     15  C   LIG    1       24.761 -28.946  11.888  0.00  0.00    +0.005 C 
BRANCH  15  16
ATOM     16  C   LIG    1       23.408 -28.619  12.569  0.00  0.00    +0.000 C 
BRANCH  16  18
ATOM     17  C   LIG    1       22.378 -26.396  13.264  0.00  0.00    +0.004 C 
ATOM     18  C   LIG    1       23.427 -27.469  13.572  0.00  0.00    -0.003 C 
ENDBRANCH  16  18
ENDBRANCH  15  16
ENDBRANCH  12  15
ENDBRANCH  11  12
ENDBRANCH   1  11
BRANCH   6  19
ATOM     19  C   LIG    1       26.029 -26.085   6.120  0.00  0.00    +0.089 C 
BRANCH  19  20
ATOM     20  C   LIG    1       25.278 -24.668   6.143  0.00  0.00    +0.003 C 
BRANCH  20  21
ATOM     21  C   LIG    1       23.736 -24.692   6.247  0.00  0.00    +0.001 C 
ATOM     22  C   LIG    1       23.094 -23.481   6.842  0.00  0.00    +0.004 C 
ENDBRANCH  20  21
BRANCH  20  23
ATOM     23  C   LIG    1       25.759 -23.794   7.353  0.00  0.00    +0.005 C 
BRANCH  23  24
ATOM     24  C   LIG    1       26.726 -22.618   7.019  0.00  0.00    +0.000 C 
BRANCH  24  25
ATOM     25  C   LIG    1       26.104 -21.226   7.162  0.00  0.00    -0.003 C 
ATOM     26  C   LIG    1       25.777 -20.903   8.617  0.00  0.00    +0.004 C 
ENDBRANCH  24  25
ENDBRANCH  23  24
ENDBRANCH  20  23
ENDBRANCH  19  20
ENDBRANCH   6  19
TORSDOF 13
ENDMDL
