MODEL 1
REMARK VINA RESULT:      -7.5      0.000      0.000
REMARK  Name = *****
REMARK                            x       y       z     vdW  Elec       q    Type
REMARK                         _______ _______ _______ _____ _____    ______ ____
ROOT
ATOM      1  C   LIG    1       26.993 -20.465   6.542  0.00  0.00    +0.264 C 
ENDROOT
BRANCH   1   2
ATOM      2  O   LIG    1       26.001 -21.196   5.816  0.00  0.00    -0.486 OA
BRANCH   2   4
ATOM      3  C   LIG    1       23.602 -20.545   6.013  0.00  0.00    +0.162 A 
ATOM      4  C   LIG    1       24.879 -20.513   5.416  0.00  0.00    +0.162 A 
ATOM      5  C   LIG    1       25.061 -19.790   4.226  0.00  0.00    +0.049 A 
ATOM      6  C   LIG    1       24.017 -19.056   3.663  0.00  0.00    +0.004 A 
ATOM      7  C   LIG    1       22.767 -19.066   4.265  0.00  0.00    +0.004 A 
ATOM      8  C   LIG    1       22.556 -19.827   5.413  0.00  0.00    +0.049 A 
BRANCH   3  10
ATOM      9  C   LIG    1       22.986 -22.686   6.862  0.00  0.00    +0.277 C 
ATOM     10  O   LIG    1       23.374 -21.331   7.117  0.00  0.00    -0.491 OA
ENDBRANCH   3  10
ENDBRANCH   2   4
ENDBRANCH   1   2
BRANCH   1  11
ATOM     11  C   LIG    1       27.810 -21.409   7.431  0.00  0.00    +0.189 C 
BRANCH  11  12
ATOM     12  O   LIG    1       27.286 -21.454   8.770  0.00  0.00    -0.385 OA
ATOM     13  H   LIG    1       27.256 -22.388   9.059  0.00  0.00    +0.210 HD
ENDBRANCH  11  12
BRANCH  11  14
ATOM     14  C   LIG    1       29.300 -21.055   7.440  0.00  0.00    +0.268 C 
BRANCH  14  15
ATOM     15  O   LIG    1       29.826 -21.458   8.714  0.00  0.00    -0.448 OA
BRANCH  15  16
ATOM     16  C   LIG    1       31.165 -21.295   8.848  0.00  0.00    +0.398 C 
ATOM     17  O   LIG    1       31.895 -21.885   9.604  0.00  0.00    -0.227 OA
ATOM     18  N   LIG    1       31.573 -20.363   7.954  0.00  0.00    -0.295 N 
ATOM     19  H   LIG    1       32.520 -20.033   8.014  0.00  0.00    +0.148 HD
ATOM     20  H   LIG    1       30.889 -19.914   7.373  0.00  0.00    +0.148 HD
ENDBRANCH  15  16
ENDBRANCH  14  15
ENDBRANCH  11  14
ENDBRANCH   1  11
TORSDOF 8
ENDMDL
MODEL 2
REMARK VINA RESULT:      -7.4      1.704      3.141
REMARK  Name = *****
REMARK                            x       y       z     vdW  Elec       q    Type
REMARK                         _______ _______ _______ _____ _____    ______ ____
ROOT
ATOM      1  C   LIG    1       27.599 -21.580   7.363  0.00  0.00    +0.264 C 
ENDROOT
BRANCH   1   2
ATOM      2  O   LIG    1       26.206 -21.378   7.616  0.00  0.00    -0.486 OA
BRANCH   2   4
ATOM      3  C   LIG    1       23.949 -22.266   7.034  0.00  0.00    +0.162 A 
ATOM      4  C   LIG    1       25.341 -22.372   7.227  0.00  0.00    +0.162 A 
ATOM      5  C   LIG    1       25.956 -23.629   7.108  0.00  0.00    +0.049 A 
ATOM      6  C   LIG    1       25.221 -24.758   6.743  0.00  0.00    +0.004 A 
ATOM      7  C   LIG    1       23.855 -24.648   6.528  0.00  0.00    +0.004 A 
ATOM      8  C   LIG    1       23.222 -23.418   6.700  0.00  0.00    +0.049 A 
BRANCH   3  10
ATOM      9  C   LIG    1       22.946 -20.324   6.081  0.00  0.00    +0.277 C 
ATOM     10  O   LIG    1       23.310 -21.068   7.250  0.00  0.00    -0.491 OA
ENDBRANCH   3  10
ENDBRANCH   2   4
ENDBRANCH   1   2
BRANCH   1  11
ATOM     11  C   LIG    1       28.223 -20.313   6.768  0.00  0.00    +0.189 C 
BRANCH  11  12
ATOM     12  O   LIG    1       27.966 -20.215   5.356  0.00  0.00    -0.385 OA
ATOM     13  H   LIG    1       27.029 -20.450   5.195  0.00  0.00    +0.210 HD
ENDBRANCH  11  12
BRANCH  11  14
ATOM     14  C   LIG    1       29.724 -20.215   7.056  0.00  0.00    +0.268 C 
BRANCH  14  15
ATOM     15  O   LIG    1       29.921 -20.590   8.428  0.00  0.00    -0.448 OA
BRANCH  15  16
ATOM     16  C   LIG    1       31.219 -20.711   8.798  0.00  0.00    +0.398 C 
ATOM     17  O   LIG    1       31.927 -19.848   9.250  0.00  0.00    -0.227 OA
ATOM     18  N   LIG    1       31.600 -21.997   8.605  0.00  0.00    -0.295 N 
ATOM     19  H   LIG    1       32.574 -22.222   8.710  0.00  0.00    +0.148 HD
ATOM     20  H   LIG    1       30.944 -22.645   8.209  0.00  0.00    +0.148 HD
ENDBRANCH  15  16
ENDBRANCH  14  15
ENDBRANCH  11  14
ENDBRANCH   1  11
TORSDOF 8
ENDMDL
MODEL 3
REMARK VINA RESULT:      -7.3      2.337      3.019
REMARK  Name = *****
REMARK                            x       y       z     vdW  Elec       q    Type
REMARK                         _______ _______ _______ _____ _____    ______ ____
ROOT
ATOM      1  C   LIG    1       27.174 -20.358   7.393  0.00  0.00    +0.264 C 
ENDROOT
BRANCH   1   2
ATOM      2  O   LIG    1       26.906 -21.741   7.642  0.00  0.00    -0.486 OA
BRANCH   2   4
ATOM      3  C   LIG    1       25.256 -23.491   6.984  0.00  0.00    +0.162 A 
ATOM      4  C   LIG    1       25.635 -22.195   7.389  0.00  0.00    +0.162 A 
ATOM      5  C   LIG    1       24.658 -21.190   7.475  0.00  0.00    +0.049 A 
ATOM      6  C   LIG    1       23.314 -21.471   7.226  0.00  0.00    +0.004 A 
ATOM      7  C   LIG    1       22.937 -22.752   6.853  0.00  0.00    +0.004 A 
ATOM      8  C   LIG    1       23.904 -23.745   6.706  0.00  0.00    +0.049 A 
BRANCH   3  10
ATOM      9  C   LIG    1       25.726 -25.793   6.580  0.00  0.00    +0.277 C 
ATOM     10  O   LIG    1       26.209 -24.462   6.790  0.00  0.00    -0.491 OA
ENDBRANCH   3  10
ENDBRANCH   2   4
ENDBRANCH   1   2
BRANCH   1  11
ATOM     11  C   LIG    1       28.556 -20.188   6.752  0.00  0.00    +0.189 C 
BRANCH  11  12
ATOM     12  O   LIG    1       29.136 -21.459   6.411  0.00  0.00    -0.385 OA
ATOM     13  H   LIG    1       28.761 -22.140   7.005  0.00  0.00    +0.210 HD
ENDBRANCH  11  12
BRANCH  11  14
ATOM     14  C   LIG    1       29.508 -19.374   7.633  0.00  0.00    +0.268 C 
BRANCH  14  15
ATOM     15  O   LIG    1       29.890 -20.210   8.736  0.00  0.00    -0.448 OA
BRANCH  15  16
ATOM     16  C   LIG    1       31.226 -20.406   8.859  0.00  0.00    +0.398 C 
ATOM     17  O   LIG    1       32.041 -19.614   9.257  0.00  0.00    -0.227 OA
ATOM     18  N   LIG    1       31.506 -21.677   8.482  0.00  0.00    -0.295 N 
ATOM     19  H   LIG    1       32.472 -21.941   8.393  0.00  0.00    +0.148 HD
ATOM     20  H   LIG    1       30.762 -22.262   8.151  0.00  0.00    +0.148 HD
ENDBRANCH  15  16
ENDBRANCH  14  15
ENDBRANCH  11  14
ENDBRANCH   1  11
TORSDOF 8
ENDMDL
MODEL 4
REMARK VINA RESULT:      -7.3      2.334      3.357
REMARK  Name = *****
REMARK                            x       y       z     vdW  Elec       q    Type
REMARK                         _______ _______ _______ _____ _____    ______ ____
ROOT
ATOM      1  C   LIG    1       28.835 -20.191   6.402  0.00  0.00    +0.264 C 
ENDROOT
BRANCH   1   2
ATOM      2  O   LIG    1       27.692 -19.934   5.582  0.00  0.00    -0.486 OA
BRANCH   2   4
ATOM      3  C   LIG    1       25.258 -20.421   5.349  0.00  0.00    +0.162 A 
ATOM      4  C   LIG    1       26.466 -20.313   6.068  0.00  0.00    +0.162 A 
ATOM      5  C   LIG    1       26.457 -20.520   7.458  0.00  0.00    +0.049 A 
ATOM      6  C   LIG    1       25.288 -20.888   8.123  0.00  0.00    +0.004 A 
ATOM      7  C   LIG    1       24.104 -21.019   7.411  0.00  0.00    +0.004 A 
ATOM      8  C   LIG    1       24.086 -20.761   6.042  0.00  0.00    +0.049 A 
BRANCH   3  10
ATOM      9  C   LIG    1       24.186 -19.225   3.587  0.00  0.00    +0.277 C 
ATOM     10  O   LIG    1       25.222 -20.120   4.009  0.00  0.00    -0.491 OA
ENDBRANCH   3  10
ENDBRANCH   2   4
ENDBRANCH   1   2
BRANCH   1  11
ATOM     11  C   LIG    1       29.709 -18.937   6.511  0.00  0.00    +0.189 C 
BRANCH  11  12
ATOM     12  O   LIG    1       29.662 -18.159   5.303  0.00  0.00    -0.385 OA
ATOM     13  H   LIG    1       30.076 -18.677   4.584  0.00  0.00    +0.210 HD
ENDBRANCH  11  12
BRANCH  11  14
ATOM     14  C   LIG    1       31.156 -19.268   6.888  0.00  0.00    +0.268 C 
BRANCH  14  15
ATOM     15  O   LIG    1       31.577 -18.298   7.860  0.00  0.00    -0.448 OA
BRANCH  15  16
ATOM     16  C   LIG    1       31.768 -18.794   9.107  0.00  0.00    +0.398 C 
ATOM     17  O   LIG    1       31.914 -18.164  10.123  0.00  0.00    -0.227 OA
ATOM     18  N   LIG    1       31.738 -20.146   9.036  0.00  0.00    -0.295 N 
ATOM     19  H   LIG    1       31.992 -20.668   9.857  0.00  0.00    +0.148 HD
ATOM     20  H   LIG    1       31.624 -20.585   8.141  0.00  0.00    +0.148 HD
ENDBRANCH  15  16
ENDBRANCH  14  15
ENDBRANCH  11  14
ENDBRANCH   1  11
TORSDOF 8
ENDMDL
MODEL 5
REMARK VINA RESULT:      -7.1      1.126      1.306
REMARK  Name = *****
REMARK                            x       y       z     vdW  Elec       q    Type
REMARK                         _______ _______ _______ _____ _____    ______ ____
ROOT
ATOM      1  C   LIG    1       26.605 -20.653   7.052  0.00  0.00    +0.264 C 
ENDROOT
BRANCH   1   2
ATOM      2  O   LIG    1       25.955 -21.140   5.875  0.00  0.00    -0.486 OA
BRANCH   2   4
ATOM      3  C   LIG    1       23.545 -20.511   6.014  0.00  0.00    +0.162 A 
ATOM      4  C   LIG    1       24.835 -20.470   5.446  0.00  0.00    +0.162 A 
ATOM      5  C   LIG    1       25.039 -19.749   4.257  0.00  0.00    +0.049 A 
ATOM      6  C   LIG    1       24.001 -19.027   3.667  0.00  0.00    +0.004 A 
ATOM      7  C   LIG    1       22.738 -19.047   4.240  0.00  0.00    +0.004 A 
ATOM      8  C   LIG    1       22.507 -19.805   5.387  0.00  0.00    +0.049 A 
BRANCH   3  10
ATOM      9  C   LIG    1       23.045 -22.681   6.864  0.00  0.00    +0.277 C 
ATOM     10  O   LIG    1       23.299 -21.294   7.115  0.00  0.00    -0.491 OA
ENDBRANCH   3  10
ENDBRANCH   2   4
ENDBRANCH   1   2
BRANCH   1  11
ATOM     11  C   LIG    1       28.053 -20.261   6.740  0.00  0.00    +0.189 C 
BRANCH  11  12
ATOM     12  O   LIG    1       28.299 -20.246   5.323  0.00  0.00    -0.385 OA
ATOM     13  H   LIG    1       29.262 -20.342   5.176  0.00  0.00    +0.210 HD
ENDBRANCH  11  12
BRANCH  11  14
ATOM     14  C   LIG    1       29.065 -21.156   7.460  0.00  0.00    +0.268 C 
BRANCH  14  15
ATOM     15  O   LIG    1       29.705 -20.355   8.465  0.00  0.00    -0.448 OA
BRANCH  15  16
ATOM     16  C   LIG    1       31.059 -20.360   8.413  0.00  0.00    +0.398 C 
ATOM     17  O   LIG    1       31.783 -19.405   8.295  0.00  0.00    -0.227 OA
ATOM     18  N   LIG    1       31.487 -21.639   8.546  0.00  0.00    -0.295 N 
ATOM     19  H   LIG    1       32.463 -21.828   8.399  0.00  0.00    +0.148 HD
ATOM     20  H   LIG    1       30.808 -22.373   8.626  0.00  0.00    +0.148 HD
ENDBRANCH  15  16
ENDBRANCH  14  15
ENDBRANCH  11  14
ENDBRANCH   1  11
TORSDOF 8
ENDMDL
MODEL 6
REMARK VINA RESULT:      -6.9      1.486      2.675
REMARK  Name = *****
REMARK                            x       y       z     vdW  Elec       q    Type
REMARK                         _______ _______ _______ _____ _____    ______ ____
ROOT
ATOM      1  C   LIG    1       27.488 -20.846   7.807  0.00  0.00    +0.264 C 
ENDROOT
BRANCH   1   2
ATOM      2  O   LIG    1       26.858 -21.737   6.882  0.00  0.00    -0.486 OA
BRANCH   2   4
ATOM      3  C   LIG    1       25.072 -20.697   5.487  0.00  0.00    +0.162 A 
ATOM      4  C   LIG    1       25.549 -21.486   6.554  0.00  0.00    +0.162 A 
ATOM      5  C   LIG    1       24.632 -22.030   7.468  0.00  0.00    +0.049 A 
ATOM      6  C   LIG    1       23.258 -21.853   7.301  0.00  0.00    +0.004 A 
ATOM      7  C   LIG    1       22.787 -21.098   6.236  0.00  0.00    +0.004 A 
ATOM      8  C   LIG    1       23.688 -20.504   5.354  0.00  0.00    +0.049 A 
BRANCH   3  10
ATOM      9  C   LIG    1       25.383 -19.195   3.662  0.00  0.00    +0.277 C 
ATOM     10  O   LIG    1       25.955 -20.068   4.643  0.00  0.00    -0.491 OA
ENDBRANCH   3  10
ENDBRANCH   2   4
ENDBRANCH   1   2
BRANCH   1  11
ATOM     11  C   LIG    1       28.509 -19.959   7.085  0.00  0.00    +0.189 C 
BRANCH  11  12
ATOM     12  O   LIG    1       29.272 -20.711   6.126  0.00  0.00    -0.385 OA
ATOM     13  H   LIG    1       29.716 -21.447   6.593  0.00  0.00    +0.210 HD
ENDBRANCH  11  12
BRANCH  11  14
ATOM     14  C   LIG    1       29.433 -19.224   8.061  0.00  0.00    +0.268 C 
BRANCH  14  15
ATOM     15  O   LIG    1       30.073 -20.220   8.875  0.00  0.00    -0.448 OA
BRANCH  15  16
ATOM     16  C   LIG    1       31.421 -20.269   8.749  0.00  0.00    +0.398 C 
ATOM     17  O   LIG    1       32.183 -20.956   9.380  0.00  0.00    -0.227 OA
ATOM     18  N   LIG    1       31.788 -19.425   7.755  0.00  0.00    -0.295 N 
ATOM     19  H   LIG    1       32.769 -19.248   7.623  0.00  0.00    +0.148 HD
ATOM     20  H   LIG    1       31.082 -18.881   7.293  0.00  0.00    +0.148 HD
ENDBRANCH  15  16
ENDBRANCH  14  15
ENDBRANCH  11  14
ENDBRANCH   1  11
TORSDOF 8
ENDMDL
MODEL 7
REMARK VINA RESULT:      -6.9      3.215      6.369
REMARK  Name = *****
REMARK                            x       y       z     vdW  Elec       q    Type
REMARK                         _______ _______ _______ _____ _____    ______ ____
ROOT
ATOM      1  C   LIG    1       26.177 -20.975   7.987  0.00  0.00    +0.264 C 
ENDROOT
BRANCH   1   2
ATOM      2  O   LIG    1       27.292 -21.563   7.312  0.00  0.00    -0.486 OA
BRANCH   2   4
ATOM      3  C   LIG    1       29.594 -20.735   7.796  0.00  0.00    +0.162 A 
ATOM      4  C   LIG    1       28.383 -20.763   7.075  0.00  0.00    +0.162 A 
ATOM      5  C   LIG    1       28.176 -19.831   6.045  0.00  0.00    +0.049 A 
ATOM      6  C   LIG    1       29.173 -18.923   5.686  0.00  0.00    +0.004 A 
ATOM      7  C   LIG    1       30.375 -18.913   6.378  0.00  0.00    +0.004 A 
ATOM      8  C   LIG    1       30.571 -19.793   7.441  0.00  0.00    +0.049 A 
BRANCH   3  10
ATOM      9  C   LIG    1       31.128 -21.936   9.171  0.00  0.00    +0.277 C 
ATOM     10  O   LIG    1       29.776 -21.566   8.875  0.00  0.00    -0.491 OA
ENDBRANCH   3  10
ENDBRANCH   2   4
ENDBRANCH   1   2
BRANCH   1  11
ATOM     11  C   LIG    1       24.907 -21.110   7.140  0.00  0.00    +0.189 C 
BRANCH  11  12
ATOM     12  O   LIG    1       23.724 -21.052   7.955  0.00  0.00    -0.385 OA
ATOM     13  H   LIG    1       23.834 -20.332   8.609  0.00  0.00    +0.210 HD
ENDBRANCH  11  12
BRANCH  11  14
ATOM     14  C   LIG    1       24.914 -22.376   6.279  0.00  0.00    +0.268 C 
BRANCH  14  15
ATOM     15  O   LIG    1       24.534 -23.471   7.128  0.00  0.00    -0.448 OA
BRANCH  15  16
ATOM     16  C   LIG    1       23.557 -24.263   6.623  0.00  0.00    +0.398 C 
ATOM     17  O   LIG    1       23.644 -25.431   6.341  0.00  0.00    -0.227 OA
ATOM     18  N   LIG    1       22.426 -23.526   6.511  0.00  0.00    -0.295 N 
ATOM     19  H   LIG    1       21.643 -23.933   6.031  0.00  0.00    +0.148 HD
ATOM     20  H   LIG    1       22.452 -22.554   6.759  0.00  0.00    +0.148 HD
ENDBRANCH  15  16
ENDBRANCH  14  15
ENDBRANCH  11  14
ENDBRANCH   1  11
TORSDOF 8
ENDMDL
MODEL 8
REMARK VINA RESULT:      -6.6      2.576      4.036
REMARK  Name = *****
REMARK                            x       y       z     vdW  Elec       q    Type
REMARK                         _______ _______ _______ _____ _____    ______ ____
ROOT
ATOM      1  C   LIG    1       30.087 -21.078   8.387  0.00  0.00    +0.264 C 
ENDROOT
BRANCH   1   2
ATOM      2  O   LIG    1       29.095 -20.050   8.439  0.00  0.00    -0.486 OA
BRANCH   2   4
ATOM      3  C   LIG    1       26.788 -20.559   7.639  0.00  0.00    +0.162 A 
ATOM      4  C   LIG    1       28.105 -20.077   7.488  0.00  0.00    +0.162 A 
ATOM      5  C   LIG    1       28.536 -19.644   6.223  0.00  0.00    +0.049 A 
ATOM      6  C   LIG    1       27.665 -19.627   5.133  0.00  0.00    +0.004 A 
ATOM      7  C   LIG    1       26.362 -20.078   5.288  0.00  0.00    +0.004 A 
ATOM      8  C   LIG    1       25.938 -20.565   6.523  0.00  0.00    +0.049 A 
BRANCH   3  10
ATOM      9  C   LIG    1       25.584 -22.276   8.773  0.00  0.00    +0.277 C 
ATOM     10  O   LIG    1       26.379 -21.086   8.840  0.00  0.00    -0.491 OA
ENDBRANCH   3  10
ENDBRANCH   2   4
ENDBRANCH   1   2
BRANCH   1  11
ATOM     11  C   LIG    1       31.492 -20.467   8.407  0.00  0.00    +0.189 C 
BRANCH  11  12
ATOM     12  O   LIG    1       32.321 -21.090   9.404  0.00  0.00    -0.385 OA
ATOM     13  H   LIG    1       32.142 -22.053   9.397  0.00  0.00    +0.210 HD
ENDBRANCH  11  12
BRANCH  11  14
ATOM     14  C   LIG    1       31.463 -18.948   8.596  0.00  0.00    +0.268 C 
BRANCH  14  15
ATOM     15  O   LIG    1       31.999 -18.669   9.899  0.00  0.00    -0.448 OA
BRANCH  15  16
ATOM     16  C   LIG    1       31.736 -17.422  10.362  0.00  0.00    +0.398 C 
ATOM     17  O   LIG    1       31.745 -16.398   9.728  0.00  0.00    -0.227 OA
ATOM     18  N   LIG    1       31.422 -17.513  11.676  0.00  0.00    -0.295 N 
ATOM     19  H   LIG    1       31.326 -16.660  12.199  0.00  0.00    +0.148 HD
ATOM     20  H   LIG    1       31.454 -18.410  12.124  0.00  0.00    +0.148 HD
ENDBRANCH  15  16
ENDBRANCH  14  15
ENDBRANCH  11  14
ENDBRANCH   1  11
TORSDOF 8
ENDMDL
MODEL 9
REMARK VINA RESULT:      -6.6      3.294      4.908
REMARK  Name = *****
REMARK                            x       y       z     vdW  Elec       q    Type
REMARK                         _______ _______ _______ _____ _____    ______ ____
ROOT
ATOM      1  C   LIG    1       23.607 -22.956   6.834  0.00  0.00    +0.264 C 
ENDROOT
BRANCH   1   2
ATOM      2  O   LIG    1       23.966 -21.585   7.023  0.00  0.00    -0.486 OA
BRANCH   2   4
ATOM      3  C   LIG    1       25.066 -20.465   5.085  0.00  0.00    +0.162 A 
ATOM      4  C   LIG    1       23.969 -20.773   5.916  0.00  0.00    +0.162 A 
ATOM      5  C   LIG    1       22.736 -20.139   5.687  0.00  0.00    +0.049 A 
ATOM      6  C   LIG    1       22.566 -19.261   4.617  0.00  0.00    +0.004 A 
ATOM      7  C   LIG    1       23.639 -18.977   3.784  0.00  0.00    +0.004 A 
ATOM      8  C   LIG    1       24.883 -19.553   4.034  0.00  0.00    +0.049 A 
BRANCH   3  10
ATOM      9  C   LIG    1       27.288 -20.075   5.854  0.00  0.00    +0.277 C 
ATOM     10  O   LIG    1       26.306 -20.990   5.355  0.00  0.00    -0.491 OA
ENDBRANCH   3  10
ENDBRANCH   2   4
ENDBRANCH   1   2
BRANCH   1  11
ATOM     11  C   LIG    1       24.851 -23.849   6.897  0.00  0.00    +0.189 C 
BRANCH  11  12
ATOM     12  O   LIG    1       25.989 -23.127   7.398  0.00  0.00    -0.385 OA
ATOM     13  H   LIG    1       26.731 -23.756   7.506  0.00  0.00    +0.210 HD
ENDBRANCH  11  12
BRANCH  11  14
ATOM     14  C   LIG    1       25.169 -24.499   5.548  0.00  0.00    +0.268 C 
BRANCH  14  15
ATOM     15  O   LIG    1       24.905 -25.905   5.678  0.00  0.00    -0.448 OA
BRANCH  15  16
ATOM     16  C   LIG    1       26.010 -26.689   5.678  0.00  0.00    +0.398 C 
ATOM     17  O   LIG    1       26.738 -26.914   4.745  0.00  0.00    -0.227 OA
ATOM     18  N   LIG    1       26.194 -27.168   6.931  0.00  0.00    -0.295 N 
ATOM     19  H   LIG    1       26.899 -27.871   7.070  0.00  0.00    +0.148 HD
ATOM     20  H   LIG    1       25.526 -26.936   7.644  0.00  0.00    +0.148 HD
ENDBRANCH  15  16
ENDBRANCH  14  15
ENDBRANCH  11  14
ENDBRANCH   1  11
TORSDOF 8
ENDMDL
