MODEL 1
REMARK VINA RESULT:      -2.0      0.000      0.000
REMARK  Name = *****
REMARK                            x       y       z     vdW  Elec       q    Type
REMARK                         _______ _______ _______ _____ _____    ______ ____
ROOT
ATOM      1  N   LIG    1       22.942 -17.819   4.590  0.00  0.00    -0.298 NA
ATOM      2  C   LIG    1       22.187 -16.566   4.353  0.00  0.00    +0.103 C 
ATOM      3  C   LIG    1       23.056 -15.293   4.418  0.00  0.00    +0.120 C 
ATOM      4  N   LIG    1       24.174 -15.381   3.452  0.00  0.00    -0.327 N 
ATOM      5  C   LIG    1       24.977 -16.604   3.673  0.00  0.00    +0.120 C 
ATOM      6  C   LIG    1       24.093 -17.870   3.657  0.00  0.00    +0.103 C 
ENDROOT
BRANCH   4   7
ATOM      7  C   LIG    1       24.859 -14.177   3.224  0.00  0.00    +0.030 A 
ATOM      8  C   LIG    1       26.169 -13.994   3.704  0.00  0.00    +0.035 A 
ATOM      9  C   LIG    1       26.890 -12.802   3.492  0.00  0.00    +0.057 A 
ATOM     10  C   LIG    1       26.276 -11.753   2.804  0.00  0.00    +0.012 A 
ATOM     11  C   LIG    1       24.971 -11.891   2.349  0.00  0.00    +0.002 A 
ATOM     12  C   LIG    1       24.276 -13.085   2.564  0.00  0.00    +0.023 A 
BRANCH   9  13
ATOM     13  C   LIG    1       28.302 -12.680   4.004  0.00  0.00    +0.417 C 
ATOM     14  F   LIG    1       29.080 -13.740   3.645  0.00  0.00    -0.166 F 
ATOM     15  F   LIG    1       28.367 -12.615   5.363  0.00  0.00    -0.166 F 
ATOM     16  F   LIG    1       28.953 -11.573   3.547  0.00  0.00    -0.166 F 
ENDBRANCH   9  13
ENDBRANCH   4   7
BRANCH   1  17
ATOM     17  C   LIG    1       22.090 -19.011   4.383  0.00  0.00    +0.106 C 
BRANCH  17  18
ATOM     18  C   LIG    1       22.879 -20.300   4.088  0.00  0.00    +0.142 C 
BRANCH  18  21
ATOM     19  O   LIG    1       22.389 -21.572   6.747  0.00  0.00    -0.246 OA
ATOM     20  C   LIG    1       23.496 -21.230   6.353  0.00  0.00    +0.328 C 
ATOM     21  N   LIG    1       23.823 -20.624   5.126  0.00  0.00    -0.291 N 
ATOM     22  C   LIG    1       25.205 -20.409   5.081  0.00  0.00    +0.070 A 
ATOM     23  C   LIG    1       25.738 -20.873   6.284  0.00  0.00    +0.067 A 
ATOM     24  C   LIG    1       27.081 -20.806   6.571  0.00  0.00    +0.028 A 
ATOM     25  C   LIG    1       27.905 -20.243   5.591  0.00  0.00    +0.002 A 
ATOM     26  C   LIG    1       27.370 -19.768   4.373  0.00  0.00    +0.002 A 
ATOM     27  C   LIG    1       25.999 -19.849   4.106  0.00  0.00    +0.028 A 
ATOM     28  N   LIG    1       24.697 -21.372   7.061  0.00  0.00    -0.306 N 
ATOM     29  H   LIG    1       24.759 -21.767   7.984  0.00  0.00    +0.170 HD
ENDBRANCH  18  21
ENDBRANCH  17  18
ENDBRANCH   1  17
TORSDOF 5
ENDMDL
MODEL 2
REMARK VINA RESULT:      -0.7      1.273      1.838
REMARK  Name = *****
REMARK                            x       y       z     vdW  Elec       q    Type
REMARK                         _______ _______ _______ _____ _____    ______ ____
ROOT
ATOM      1  N   LIG    1       22.676 -18.142   4.825  0.00  0.00    -0.298 NA
ATOM      2  C   LIG    1       21.930 -16.862   4.812  0.00  0.00    +0.103 C 
ATOM      3  C   LIG    1       22.835 -15.613   4.842  0.00  0.00    +0.120 C 
ATOM      4  N   LIG    1       23.784 -15.637   3.706  0.00  0.00    -0.327 N 
ATOM      5  C   LIG    1       24.577 -16.887   3.697  0.00  0.00    +0.120 C 
ATOM      6  C   LIG    1       23.664 -18.133   3.720  0.00  0.00    +0.103 C 
ENDROOT
BRANCH   4   7
ATOM      7  C   LIG    1       24.460 -14.429   3.470  0.00  0.00    +0.030 A 
ATOM      8  C   LIG    1       25.806 -14.273   3.849  0.00  0.00    +0.035 A 
ATOM      9  C   LIG    1       26.519 -13.078   3.625  0.00  0.00    +0.057 A 
ATOM     10  C   LIG    1       25.861 -11.999   3.031  0.00  0.00    +0.012 A 
ATOM     11  C   LIG    1       24.522 -12.111   2.679  0.00  0.00    +0.002 A 
ATOM     12  C   LIG    1       23.836 -13.308   2.902  0.00  0.00    +0.023 A 
BRANCH   9  13
ATOM     13  C   LIG    1       27.968 -12.985   4.024  0.00  0.00    +0.417 C 
ATOM     14  F   LIG    1       28.675 -12.134   3.228  0.00  0.00    -0.166 F 
ATOM     15  F   LIG    1       28.614 -14.183   3.953  0.00  0.00    -0.166 F 
ATOM     16  F   LIG    1       28.155 -12.538   5.299  0.00  0.00    -0.166 F 
ENDBRANCH   9  13
ENDBRANCH   4   7
BRANCH   1  17
ATOM     17  C   LIG    1       21.767 -19.299   4.660  0.00  0.00    +0.106 C 
BRANCH  17  18
ATOM     18  C   LIG    1       22.462 -20.665   4.810  0.00  0.00    +0.142 C 
BRANCH  18  21
ATOM     19  O   LIG    1       23.535 -20.832   2.027  0.00  0.00    -0.246 OA
ATOM     20  C   LIG    1       24.242 -20.727   3.020  0.00  0.00    +0.328 C 
ATOM     21  N   LIG    1       23.830 -20.646   4.363  0.00  0.00    -0.291 N 
ATOM     22  C   LIG    1       24.963 -20.527   5.177  0.00  0.00    +0.070 A 
ATOM     23  C   LIG    1       26.080 -20.544   4.342  0.00  0.00    +0.067 A 
ATOM     24  C   LIG    1       27.365 -20.451   4.824  0.00  0.00    +0.028 A 
ATOM     25  C   LIG    1       27.507 -20.338   6.211  0.00  0.00    +0.002 A 
ATOM     26  C   LIG    1       26.380 -20.325   7.062  0.00  0.00    +0.002 A 
ATOM     27  C   LIG    1       25.083 -20.420   6.545  0.00  0.00    +0.028 A 
ATOM     28  N   LIG    1       25.642 -20.667   3.027  0.00  0.00    -0.306 N 
ATOM     29  H   LIG    1       26.208 -20.718   2.197  0.00  0.00    +0.170 HD
ENDBRANCH  18  21
ENDBRANCH  17  18
ENDBRANCH   1  17
TORSDOF 5
ENDMDL
