MODEL 1
REMARK VINA RESULT:      -9.5      0.000      0.000
REMARK  Name = *****
REMARK                            x       y       z     vdW  Elec       q    Type
REMARK                         _______ _______ _______ _____ _____    ______ ____
ROOT
ATOM      1  C   LIG    1       30.682 -19.743   8.154  0.00  0.00    +0.060 C 
ATOM      2  C   LIG    1       29.717 -19.327   7.153  0.00  0.00    -0.013 C 
ATOM      3  C   LIG    1       29.668 -18.023   6.427  0.00  0.00    +0.046 C 
ATOM      4  C   LIG    1       28.851 -20.392   6.933  0.00  0.00    +0.044 C 
ATOM      5  N   LIG    1       29.299 -21.431   7.698  0.00  0.00    -0.358 NA
ATOM      6  H   LIG    1       28.924 -22.372   7.672  0.00  0.00    +0.166 HD
ATOM      7  C   LIG    1       30.412 -21.085   8.413  0.00  0.00    +0.026 C 
ATOM      8  C   LIG    1       31.060 -22.131   9.249  0.00  0.00    +0.064 C 
ENDROOT
BRANCH   4   9
ATOM      9  C   LIG    1       27.668 -20.536   6.155  0.00  0.00    +0.039 C 
ATOM     10  C   LIG    1       26.405 -20.607   6.608  0.00  0.00    +0.048 C 
ATOM     11  C   LIG    1       25.215 -20.693   5.744  0.00  0.00    +0.011 C 
ATOM     12  C   LIG    1       24.108 -20.761   6.601  0.00  0.00    +0.042 C 
ATOM     13  C   LIG    1       22.807 -20.825   6.145  0.00  0.00    +0.027 C 
ATOM     14  C   LIG    1       22.617 -20.821   4.764  0.00  0.00    +0.040 C 
ATOM     15  C   LIG    1       23.721 -20.752   3.898  0.00  0.00    +0.124 C 
ATOM     16  F   LIG    1       23.505 -20.745   2.576  0.00  0.00    -0.205 F 
ATOM     17  N   LIG    1       24.515 -20.731   7.927  0.00  0.00    -0.281 N 
ATOM     18  H   LIG    1       23.911 -20.747   8.734  0.00  0.00    +0.155 HD
ATOM     19  C   LIG    1       25.031 -20.686   4.373  0.00  0.00    +0.049 C 
ATOM     20  C   LIG    1       25.890 -20.617   8.037  0.00  0.00    +0.249 C 
ATOM     21  O   LIG    1       26.504 -20.501   9.069  0.00  0.00    -0.270 OA
ENDBRANCH   4   9
BRANCH   1  24
ATOM     22  N   LIG    1       31.656 -17.590   8.516  0.00  0.00    -0.310 N 
ATOM     23  H   LIG    1       30.808 -17.244   8.091  0.00  0.00    +0.149 HD
ATOM     24  C   LIG    1       31.748 -18.939   8.771  0.00  0.00    +0.246 C 
ATOM     25  O   LIG    1       32.631 -19.426   9.468  0.00  0.00    -0.270 OA
BRANCH  22  26
ATOM     26  C   LIG    1       32.606 -16.623   9.016  0.00  0.00    +0.120 C 
BRANCH  26  27
ATOM     27  C   LIG    1       33.025 -16.890  10.486  0.00  0.00    +0.103 C 
BRANCH  27  28
ATOM     28  N   LIG    1       32.167 -16.281  11.540  0.00  0.00    -0.301 NA
BRANCH  28  30
ATOM     29  C   LIG    1       29.971 -17.466  11.038  0.00  0.00    +0.020 C 
ATOM     30  C   LIG    1       31.127 -17.226  12.012  0.00  0.00    +0.081 C 
ENDBRANCH  28  30
BRANCH  28  31
ATOM     31  C   LIG    1       33.012 -15.827  12.670  0.00  0.00    +0.081 C 
ATOM     32  C   LIG    1       32.348 -15.880  14.040  0.00  0.00    +0.020 C 
ENDBRANCH  28  31
ENDBRANCH  27  28
ENDBRANCH  26  27
ENDBRANCH  22  26
ENDBRANCH   1  24
TORSDOF 7
ENDMDL
MODEL 2
REMARK VINA RESULT:      -9.4      4.418      9.620
REMARK  Name = *****
REMARK                            x       y       z     vdW  Elec       q    Type
REMARK                         _______ _______ _______ _____ _____    ______ ____
ROOT
ATOM      1  C   LIG    1       25.132 -21.719   6.596  0.00  0.00    +0.060 C 
ATOM      2  C   LIG    1       26.001 -21.518   7.740  0.00  0.00    -0.013 C 
ATOM      3  C   LIG    1       26.085 -22.355   8.974  0.00  0.00    +0.046 C 
ATOM      4  C   LIG    1       26.807 -20.417   7.471  0.00  0.00    +0.044 C 
ATOM      5  N   LIG    1       26.505 -20.008   6.203  0.00  0.00    -0.358 NA
ATOM      6  H   LIG    1       27.001 -19.283   5.696  0.00  0.00    +0.166 HD
ATOM      7  C   LIG    1       25.532 -20.787   5.641  0.00  0.00    +0.026 C 
ATOM      8  C   LIG    1       25.138 -20.508   4.234  0.00  0.00    +0.064 C 
ENDROOT
BRANCH   4   9
ATOM      9  C   LIG    1       27.758 -19.698   8.247  0.00  0.00    +0.039 C 
ATOM     10  C   LIG    1       29.027 -19.413   7.910  0.00  0.00    +0.048 C 
ATOM     11  C   LIG    1       29.946 -18.608   8.735  0.00  0.00    +0.011 C 
ATOM     12  C   LIG    1       31.161 -18.557   8.039  0.00  0.00    +0.042 C 
ATOM     13  C   LIG    1       32.262 -17.862   8.497  0.00  0.00    +0.027 C 
ATOM     14  C   LIG    1       32.128 -17.190   9.711  0.00  0.00    +0.040 C 
ATOM     15  C   LIG    1       30.913 -17.234  10.415  0.00  0.00    +0.124 C 
ATOM     16  F   LIG    1       30.815 -16.573  11.576  0.00  0.00    -0.205 F 
ATOM     17  N   LIG    1       31.073 -19.271   6.852  0.00  0.00    -0.281 N 
ATOM     18  H   LIG    1       31.804 -19.372   6.164  0.00  0.00    +0.155 HD
ATOM     19  C   LIG    1       29.808 -17.940   9.938  0.00  0.00    +0.049 C 
ATOM     20  C   LIG    1       29.812 -19.810   6.672  0.00  0.00    +0.249 C 
ATOM     21  O   LIG    1       29.441 -20.418   5.697  0.00  0.00    -0.270 OA
ENDBRANCH   4   9
BRANCH   1  24
ATOM     22  N   LIG    1       24.493 -24.012   6.368  0.00  0.00    -0.310 N 
ATOM     23  H   LIG    1       25.460 -24.201   6.589  0.00  0.00    +0.149 HD
ATOM     24  C   LIG    1       24.056 -22.709   6.442  0.00  0.00    +0.246 C 
ATOM     25  O   LIG    1       22.869 -22.403   6.402  0.00  0.00    -0.270 OA
BRANCH  22  26
ATOM     26  C   LIG    1       23.603 -25.139   6.204  0.00  0.00    +0.120 C 
BRANCH  26  27
ATOM     27  C   LIG    1       24.302 -26.502   6.446  0.00  0.00    +0.103 C 
BRANCH  27  28
ATOM     28  N   LIG    1       24.561 -27.337   5.240  0.00  0.00    -0.301 NA
BRANCH  28  30
ATOM     29  C   LIG    1       26.963 -26.659   5.744  0.00  0.00    +0.020 C 
ATOM     30  C   LIG    1       25.932 -27.130   4.715  0.00  0.00    +0.081 C 
ENDBRANCH  28  30
BRANCH  28  31
ATOM     31  C   LIG    1       24.336 -28.765   5.565  0.00  0.00    +0.081 C 
ATOM     32  C   LIG    1       24.429 -29.118   7.044  0.00  0.00    +0.020 C 
ENDBRANCH  28  31
ENDBRANCH  27  28
ENDBRANCH  26  27
ENDBRANCH  22  26
ENDBRANCH   1  24
TORSDOF 7
ENDMDL
MODEL 3
REMARK VINA RESULT:      -8.8      8.175     11.714
REMARK  Name = *****
REMARK                            x       y       z     vdW  Elec       q    Type
REMARK                         _______ _______ _______ _____ _____    ______ ____
ROOT
ATOM      1  C   LIG    1       25.104 -28.962   6.987  0.00  0.00    +0.060 C 
ATOM      2  C   LIG    1       25.814 -27.882   7.646  0.00  0.00    -0.013 C 
ATOM      3  C   LIG    1       26.531 -27.931   8.954  0.00  0.00    +0.046 C 
ATOM      4  C   LIG    1       25.763 -26.771   6.809  0.00  0.00    +0.044 C 
ATOM      5  N   LIG    1       25.124 -27.166   5.668  0.00  0.00    -0.358 NA
ATOM      6  H   LIG    1       25.023 -26.596   4.837  0.00  0.00    +0.166 HD
ATOM      7  C   LIG    1       24.748 -28.478   5.731  0.00  0.00    +0.026 C 
ATOM      8  C   LIG    1       24.095 -29.077   4.535  0.00  0.00    +0.064 C 
ENDROOT
BRANCH   4   9
ATOM      9  C   LIG    1       26.185 -25.421   6.963  0.00  0.00    +0.039 C 
ATOM     10  C   LIG    1       25.410 -24.324   6.938  0.00  0.00    +0.048 C 
ATOM     11  C   LIG    1       25.902 -22.953   7.165  0.00  0.00    +0.011 C 
ATOM     12  C   LIG    1       24.791 -22.109   7.043  0.00  0.00    +0.042 C 
ATOM     13  C   LIG    1       24.862 -20.742   7.219  0.00  0.00    +0.027 C 
ATOM     14  C   LIG    1       26.110 -20.206   7.532  0.00  0.00    +0.040 C 
ATOM     15  C   LIG    1       27.229 -21.045   7.658  0.00  0.00    +0.124 C 
ATOM     16  F   LIG    1       28.414 -20.501   7.966  0.00  0.00    -0.205 F 
ATOM     17  N   LIG    1       23.650 -22.843   6.750  0.00  0.00    -0.281 N 
ATOM     18  H   LIG    1       22.719 -22.473   6.632  0.00  0.00    +0.155 HD
ATOM     19  C   LIG    1       27.142 -22.426   7.480  0.00  0.00    +0.049 C 
ATOM     20  C   LIG    1       23.917 -24.199   6.686  0.00  0.00    +0.249 C 
ATOM     21  O   LIG    1       23.099 -25.069   6.516  0.00  0.00    -0.270 OA
ENDBRANCH   4   9
BRANCH   1  24
ATOM     22  N   LIG    1       25.923 -31.129   7.579  0.00  0.00    -0.310 N 
ATOM     23  H   LIG    1       26.833 -30.716   7.438  0.00  0.00    +0.149 HD
ATOM     24  C   LIG    1       24.822 -30.308   7.510  0.00  0.00    +0.246 C 
ATOM     25  O   LIG    1       23.705 -30.662   7.872  0.00  0.00    -0.270 OA
BRANCH  22  26
ATOM     26  C   LIG    1       25.866 -32.494   8.051  0.00  0.00    +0.120 C 
BRANCH  26  27
ATOM     27  C   LIG    1       25.882 -33.534   6.900  0.00  0.00    +0.103 C 
BRANCH  27  28
ATOM     28  N   LIG    1       26.350 -33.046   5.574  0.00  0.00    -0.301 NA
BRANCH  28  30
ATOM     29  C   LIG    1       28.775 -33.727   5.942  0.00  0.00    +0.020 C 
ATOM     30  C   LIG    1       27.512 -33.824   5.083  0.00  0.00    +0.081 C 
ENDBRANCH  28  30
BRANCH  28  31
ATOM     31  C   LIG    1       25.234 -33.103   4.600  0.00  0.00    +0.081 C 
ATOM     32  C   LIG    1       25.643 -32.991   3.136  0.00  0.00    +0.020 C 
ENDBRANCH  28  31
ENDBRANCH  27  28
ENDBRANCH  26  27
ENDBRANCH  22  26
ENDBRANCH   1  24
TORSDOF 7
ENDMDL
MODEL 4
REMARK VINA RESULT:      -8.6      8.122     11.441
REMARK  Name = *****
REMARK                            x       y       z     vdW  Elec       q    Type
REMARK                         _______ _______ _______ _____ _____    ______ ____
ROOT
ATOM      1  C   LIG    1       25.138 -29.056   6.527  0.00  0.00    +0.060 C 
ATOM      2  C   LIG    1       25.339 -27.743   5.943  0.00  0.00    -0.013 C 
ATOM      3  C   LIG    1       25.084 -27.328   4.532  0.00  0.00    +0.046 C 
ATOM      4  C   LIG    1       25.771 -26.892   6.955  0.00  0.00    +0.044 C 
ATOM      5  N   LIG    1       25.764 -27.619   8.112  0.00  0.00    -0.358 NA
ATOM      6  H   LIG    1       25.941 -27.239   9.034  0.00  0.00    +0.166 HD
ATOM      7  C   LIG    1       25.359 -28.906   7.894  0.00  0.00    +0.026 C 
ATOM      8  C   LIG    1       25.236 -29.810   9.070  0.00  0.00    +0.064 C 
ENDROOT
BRANCH   4   9
ATOM      9  C   LIG    1       26.217 -25.541   6.963  0.00  0.00    +0.039 C 
ATOM     10  C   LIG    1       25.460 -24.438   6.841  0.00  0.00    +0.048 C 
ATOM     11  C   LIG    1       25.978 -23.060   6.919  0.00  0.00    +0.011 C 
ATOM     12  C   LIG    1       24.878 -22.213   6.733  0.00  0.00    +0.042 C 
ATOM     13  C   LIG    1       24.974 -20.836   6.768  0.00  0.00    +0.027 C 
ATOM     14  C   LIG    1       26.237 -20.295   7.001  0.00  0.00    +0.040 C 
ATOM     15  C   LIG    1       27.345 -21.137   7.190  0.00  0.00    +0.124 C 
ATOM     16  F   LIG    1       28.545 -20.585   7.417  0.00  0.00    -0.205 F 
ATOM     17  N   LIG    1       23.720 -22.953   6.539  0.00  0.00    -0.281 N 
ATOM     18  H   LIG    1       22.793 -22.580   6.401  0.00  0.00    +0.155 HD
ATOM     19  C   LIG    1       27.232 -22.527   7.154  0.00  0.00    +0.049 C 
ATOM     20  C   LIG    1       23.964 -24.313   6.608  0.00  0.00    +0.249 C 
ATOM     21  O   LIG    1       23.128 -25.181   6.542  0.00  0.00    -0.270 OA
ENDBRANCH   4   9
BRANCH   1  24
ATOM     22  N   LIG    1       25.778 -30.878   5.118  0.00  0.00    -0.310 N 
ATOM     23  H   LIG    1       26.713 -30.519   5.245  0.00  0.00    +0.149 HD
ATOM     24  C   LIG    1       24.760 -30.301   5.841  0.00  0.00    +0.246 C 
ATOM     25  O   LIG    1       23.640 -30.793   5.922  0.00  0.00    -0.270 OA
BRANCH  22  26
ATOM     26  C   LIG    1       25.619 -32.099   4.360  0.00  0.00    +0.120 C 
BRANCH  26  27
ATOM     27  C   LIG    1       26.142 -33.351   5.112  0.00  0.00    +0.103 C 
BRANCH  27  28
ATOM     28  N   LIG    1       27.274 -33.133   6.053  0.00  0.00    -0.301 NA
BRANCH  28  30
ATOM     29  C   LIG    1       27.090 -32.575   8.530  0.00  0.00    +0.020 C 
ATOM     30  C   LIG    1       26.954 -33.617   7.418  0.00  0.00    +0.081 C 
ENDBRANCH  28  30
BRANCH  28  31
ATOM     31  C   LIG    1       28.490 -33.803   5.534  0.00  0.00    +0.081 C 
ATOM     32  C   LIG    1       29.678 -33.825   6.488  0.00  0.00    +0.020 C 
ENDBRANCH  28  31
ENDBRANCH  27  28
ENDBRANCH  26  27
ENDBRANCH  22  26
ENDBRANCH   1  24
TORSDOF 7
ENDMDL
MODEL 5
REMARK VINA RESULT:      -8.5      7.527     10.760
REMARK  Name = *****
REMARK                            x       y       z     vdW  Elec       q    Type
REMARK                         _______ _______ _______ _____ _____    ______ ____
ROOT
ATOM      1  C   LIG    1       25.075 -29.018   7.123  0.00  0.00    +0.060 C 
ATOM      2  C   LIG    1       25.801 -27.920   7.733  0.00  0.00    -0.013 C 
ATOM      3  C   LIG    1       26.532 -27.926   9.035  0.00  0.00    +0.046 C 
ATOM      4  C   LIG    1       25.750 -26.841   6.856  0.00  0.00    +0.044 C 
ATOM      5  N   LIG    1       25.096 -27.273   5.737  0.00  0.00    -0.358 NA
ATOM      6  H   LIG    1       24.991 -26.734   4.886  0.00  0.00    +0.166 HD
ATOM      7  C   LIG    1       24.710 -28.579   5.853  0.00  0.00    +0.026 C 
ATOM      8  C   LIG    1       24.039 -29.217   4.688  0.00  0.00    +0.064 C 
ENDROOT
BRANCH   4   9
ATOM      9  C   LIG    1       26.185 -25.490   6.954  0.00  0.00    +0.039 C 
ATOM     10  C   LIG    1       25.420 -24.388   6.890  0.00  0.00    +0.048 C 
ATOM     11  C   LIG    1       25.925 -23.014   7.061  0.00  0.00    +0.011 C 
ATOM     12  C   LIG    1       24.820 -22.164   6.912  0.00  0.00    +0.042 C 
ATOM     13  C   LIG    1       24.904 -20.792   7.033  0.00  0.00    +0.027 C 
ATOM     14  C   LIG    1       26.159 -20.256   7.319  0.00  0.00    +0.040 C 
ATOM     15  C   LIG    1       27.271 -21.100   7.472  0.00  0.00    +0.124 C 
ATOM     16  F   LIG    1       28.462 -20.554   7.751  0.00  0.00    -0.205 F 
ATOM     17  N   LIG    1       23.672 -22.899   6.654  0.00  0.00    -0.281 N 
ATOM     18  H   LIG    1       22.744 -22.526   6.526  0.00  0.00    +0.155 HD
ATOM     19  C   LIG    1       27.171 -22.486   7.348  0.00  0.00    +0.049 C 
ATOM     20  C   LIG    1       23.927 -24.259   6.642  0.00  0.00    +0.249 C 
ATOM     21  O   LIG    1       23.099 -25.128   6.510  0.00  0.00    -0.270 OA
ENDBRANCH   4   9
BRANCH   1  24
ATOM     22  N   LIG    1       23.825 -30.330   8.682  0.00  0.00    -0.310 N 
ATOM     23  H   LIG    1       23.286 -29.486   8.811  0.00  0.00    +0.149 HD
ATOM     24  C   LIG    1       24.787 -30.341   7.699  0.00  0.00    +0.246 C 
ATOM     25  O   LIG    1       25.342 -31.367   7.322  0.00  0.00    -0.270 OA
BRANCH  22  26
ATOM     26  C   LIG    1       23.399 -31.518   9.387  0.00  0.00    +0.120 C 
BRANCH  26  27
ATOM     27  C   LIG    1       22.390 -31.217  10.526  0.00  0.00    +0.103 C 
BRANCH  27  28
ATOM     28  N   LIG    1       22.619 -29.966  11.300  0.00  0.00    -0.301 NA
BRANCH  28  30
ATOM     29  C   LIG    1       21.507 -28.187  12.741  0.00  0.00    +0.020 C 
ATOM     30  C   LIG    1       21.383 -29.509  11.980  0.00  0.00    +0.081 C 
ENDBRANCH  28  30
BRANCH  28  31
ATOM     31  C   LIG    1       23.708 -30.180  12.283  0.00  0.00    +0.081 C 
ATOM     32  C   LIG    1       24.974 -29.370  12.036  0.00  0.00    +0.020 C 
ENDBRANCH  28  31
ENDBRANCH  27  28
ENDBRANCH  26  27
ENDBRANCH  22  26
ENDBRANCH   1  24
TORSDOF 7
ENDMDL
MODEL 6
REMARK VINA RESULT:      -8.4      6.785      8.555
REMARK  Name = *****
REMARK                            x       y       z     vdW  Elec       q    Type
REMARK                         _______ _______ _______ _____ _____    ______ ____
ROOT
ATOM      1  C   LIG    1       24.971 -24.044   6.281  0.00  0.00    +0.060 C 
ATOM      2  C   LIG    1       25.525 -25.376   6.125  0.00  0.00    -0.013 C 
ATOM      3  C   LIG    1       26.960 -25.747   5.940  0.00  0.00    +0.046 C 
ATOM      4  C   LIG    1       24.477 -26.285   6.233  0.00  0.00    +0.044 C 
ATOM      5  N   LIG    1       23.354 -25.560   6.514  0.00  0.00    -0.358 NA
ATOM      6  H   LIG    1       22.451 -25.959   6.742  0.00  0.00    +0.166 HD
ATOM      7  C   LIG    1       23.623 -24.222   6.582  0.00  0.00    +0.026 C 
ATOM      8  C   LIG    1       22.511 -23.302   6.945  0.00  0.00    +0.064 C 
ENDROOT
BRANCH   4   9
ATOM      9  C   LIG    1       24.395 -27.695   6.065  0.00  0.00    +0.039 C 
ATOM     10  C   LIG    1       24.951 -28.636   6.846  0.00  0.00    +0.048 C 
ATOM     11  C   LIG    1       24.777 -30.087   6.653  0.00  0.00    +0.011 C 
ATOM     12  C   LIG    1       25.522 -30.713   7.661  0.00  0.00    +0.042 C 
ATOM     13  C   LIG    1       25.577 -32.083   7.815  0.00  0.00    +0.027 C 
ATOM     14  C   LIG    1       24.847 -32.853   6.911  0.00  0.00    +0.040 C 
ATOM     15  C   LIG    1       24.097 -32.234   5.898  0.00  0.00    +0.124 C 
ATOM     16  F   LIG    1       23.402 -33.002   5.048  0.00  0.00    -0.205 F 
ATOM     17  N   LIG    1       26.151 -29.769   8.460  0.00  0.00    -0.281 N 
ATOM     18  H   LIG    1       26.729 -29.961   9.264  0.00  0.00    +0.155 HD
ATOM     19  C   LIG    1       24.049 -30.847   5.756  0.00  0.00    +0.049 C 
ATOM     20  C   LIG    1       25.850 -28.479   8.061  0.00  0.00    +0.249 C 
ATOM     21  O   LIG    1       26.207 -27.469   8.618  0.00  0.00    -0.270 OA
ENDBRANCH   4   9
BRANCH   1  24
ATOM     22  N   LIG    1       26.587 -22.521   7.167  0.00  0.00    -0.310 N 
ATOM     23  H   LIG    1       26.827 -23.286   7.780  0.00  0.00    +0.149 HD
ATOM     24  C   LIG    1       25.671 -22.756   6.167  0.00  0.00    +0.246 C 
ATOM     25  O   LIG    1       25.472 -21.967   5.250  0.00  0.00    -0.270 OA
BRANCH  22  26
ATOM     26  C   LIG    1       27.375 -21.312   7.252  0.00  0.00    +0.120 C 
BRANCH  26  27
ATOM     27  C   LIG    1       28.840 -21.575   7.690  0.00  0.00    +0.103 C 
BRANCH  27  28
ATOM     28  N   LIG    1       29.534 -20.456   8.385  0.00  0.00    -0.301 NA
BRANCH  28  30
ATOM     29  C   LIG    1       31.236 -22.156   9.218  0.00  0.00    +0.020 C 
ATOM     30  C   LIG    1       30.962 -20.768   8.633  0.00  0.00    +0.081 C 
ENDBRANCH  28  30
BRANCH  28  31
ATOM     31  C   LIG    1       29.402 -19.215   7.586  0.00  0.00    +0.081 C 
ATOM     32  C   LIG    1       30.396 -19.071   6.440  0.00  0.00    +0.020 C 
ENDBRANCH  28  31
ENDBRANCH  27  28
ENDBRANCH  26  27
ENDBRANCH  22  26
ENDBRANCH   1  24
TORSDOF 7
ENDMDL
MODEL 7
REMARK VINA RESULT:      -8.4      8.105     11.307
REMARK  Name = *****
REMARK                            x       y       z     vdW  Elec       q    Type
REMARK                         _______ _______ _______ _____ _____    ______ ____
ROOT
ATOM      1  C   LIG    1       25.090 -28.994   6.961  0.00  0.00    +0.060 C 
ATOM      2  C   LIG    1       25.798 -27.914   7.623  0.00  0.00    -0.013 C 
ATOM      3  C   LIG    1       26.513 -27.966   8.933  0.00  0.00    +0.046 C 
ATOM      4  C   LIG    1       25.748 -26.802   6.789  0.00  0.00    +0.044 C 
ATOM      5  N   LIG    1       25.111 -27.194   5.646  0.00  0.00    -0.358 NA
ATOM      6  H   LIG    1       25.011 -26.623   4.815  0.00  0.00    +0.166 HD
ATOM      7  C   LIG    1       24.736 -28.508   5.705  0.00  0.00    +0.026 C 
ATOM      8  C   LIG    1       24.086 -29.104   4.507  0.00  0.00    +0.064 C 
ENDROOT
BRANCH   4   9
ATOM      9  C   LIG    1       26.169 -25.452   6.946  0.00  0.00    +0.039 C 
ATOM     10  C   LIG    1       25.393 -24.356   6.927  0.00  0.00    +0.048 C 
ATOM     11  C   LIG    1       25.884 -22.985   7.159  0.00  0.00    +0.011 C 
ATOM     12  C   LIG    1       24.771 -22.142   7.043  0.00  0.00    +0.042 C 
ATOM     13  C   LIG    1       24.841 -20.775   7.223  0.00  0.00    +0.027 C 
ATOM     14  C   LIG    1       26.089 -20.239   7.535  0.00  0.00    +0.040 C 
ATOM     15  C   LIG    1       27.210 -21.078   7.654  0.00  0.00    +0.124 C 
ATOM     16  F   LIG    1       28.395 -20.533   7.960  0.00  0.00    -0.205 F 
ATOM     17  N   LIG    1       23.630 -22.876   6.751  0.00  0.00    -0.281 N 
ATOM     18  H   LIG    1       22.699 -22.507   6.636  0.00  0.00    +0.155 HD
ATOM     19  C   LIG    1       27.123 -22.458   7.471  0.00  0.00    +0.049 C 
ATOM     20  C   LIG    1       23.899 -24.232   6.681  0.00  0.00    +0.249 C 
ATOM     21  O   LIG    1       23.081 -25.102   6.510  0.00  0.00    -0.270 OA
ENDBRANCH   4   9
BRANCH   1  24
ATOM     22  N   LIG    1       25.893 -31.186   7.477  0.00  0.00    -0.310 N 
ATOM     23  H   LIG    1       26.803 -30.790   7.292  0.00  0.00    +0.149 HD
ATOM     24  C   LIG    1       24.807 -30.341   7.480  0.00  0.00    +0.246 C 
ATOM     25  O   LIG    1       23.705 -30.676   7.898  0.00  0.00    -0.270 OA
BRANCH  22  26
ATOM     26  C   LIG    1       25.832 -32.556   7.934  0.00  0.00    +0.120 C 
BRANCH  26  27
ATOM     27  C   LIG    1       26.235 -32.716   9.423  0.00  0.00    +0.103 C 
BRANCH  27  28
ATOM     28  N   LIG    1       25.152 -33.114  10.363  0.00  0.00    -0.301 NA
BRANCH  28  30
ATOM     29  C   LIG    1       25.543 -30.749  11.218  0.00  0.00    +0.020 C 
ATOM     30  C   LIG    1       24.597 -31.945  11.087  0.00  0.00    +0.081 C 
ENDBRANCH  28  30
BRANCH  28  31
ATOM     31  C   LIG    1       24.083 -33.824   9.622  0.00  0.00    +0.081 C 
ATOM     32  C   LIG    1       22.665 -33.348   9.911  0.00  0.00    +0.020 C 
ENDBRANCH  28  31
ENDBRANCH  27  28
ENDBRANCH  26  27
ENDBRANCH  22  26
ENDBRANCH   1  24
TORSDOF 7
ENDMDL
MODEL 8
REMARK VINA RESULT:      -8.3      5.611      7.343
REMARK  Name = *****
REMARK                            x       y       z     vdW  Elec       q    Type
REMARK                         _______ _______ _______ _____ _____    ______ ____
ROOT
ATOM      1  C   LIG    1       25.546 -22.147   6.293  0.00  0.00    +0.060 C 
ATOM      2  C   LIG    1       25.568 -23.308   7.163  0.00  0.00    -0.013 C 
ATOM      3  C   LIG    1       26.194 -23.419   8.514  0.00  0.00    +0.046 C 
ATOM      4  C   LIG    1       24.842 -24.318   6.539  0.00  0.00    +0.044 C 
ATOM      5  N   LIG    1       24.338 -23.786   5.386  0.00  0.00    -0.358 NA
ATOM      6  H   LIG    1       23.688 -24.258   4.768  0.00  0.00    +0.166 HD
ATOM      7  C   LIG    1       24.713 -22.481   5.228  0.00  0.00    +0.026 C 
ATOM      8  C   LIG    1       24.189 -21.740   4.048  0.00  0.00    +0.064 C 
ENDROOT
BRANCH   4   9
ATOM      9  C   LIG    1       24.610 -25.685   6.858  0.00  0.00    +0.039 C 
ATOM     10  C   LIG    1       24.937 -26.755   6.115  0.00  0.00    +0.048 C 
ATOM     11  C   LIG    1       24.724 -28.153   6.531  0.00  0.00    +0.011 C 
ATOM     12  C   LIG    1       25.185 -28.954   5.478  0.00  0.00    +0.042 C 
ATOM     13  C   LIG    1       25.170 -30.334   5.520  0.00  0.00    +0.027 C 
ATOM     14  C   LIG    1       24.668 -30.928   6.676  0.00  0.00    +0.040 C 
ATOM     15  C   LIG    1       24.204 -30.133   7.737  0.00  0.00    +0.124 C 
ATOM     16  F   LIG    1       23.733 -30.734   8.837  0.00  0.00    -0.205 F 
ATOM     17  N   LIG    1       25.660 -28.167   4.438  0.00  0.00    -0.281 N 
ATOM     18  H   LIG    1       26.063 -28.502   3.576  0.00  0.00    +0.155 HD
ATOM     19  C   LIG    1       24.228 -28.739   7.682  0.00  0.00    +0.049 C 
ATOM     20  C   LIG    1       25.573 -26.819   4.736  0.00  0.00    +0.249 C 
ATOM     21  O   LIG    1       25.976 -25.918   4.041  0.00  0.00    -0.270 OA
ENDBRANCH   4   9
BRANCH   1  24
ATOM     22  N   LIG    1       27.223 -20.610   5.559  0.00  0.00    -0.310 N 
ATOM     23  H   LIG    1       27.284 -21.214   4.752  0.00  0.00    +0.149 HD
ATOM     24  C   LIG    1       26.236 -20.863   6.484  0.00  0.00    +0.246 C 
ATOM     25  O   LIG    1       25.945 -20.075   7.377  0.00  0.00    -0.270 OA
BRANCH  22  26
ATOM     26  C   LIG    1       28.032 -19.412   5.570  0.00  0.00    +0.120 C 
BRANCH  26  27
ATOM     27  C   LIG    1       29.429 -19.631   6.209  0.00  0.00    +0.103 C 
BRANCH  27  28
ATOM     28  N   LIG    1       29.464 -19.778   7.690  0.00  0.00    -0.301 NA
BRANCH  28  30
ATOM     29  C   LIG    1       30.919 -21.502   8.869  0.00  0.00    +0.020 C 
ATOM     30  C   LIG    1       29.634 -21.194   8.096  0.00  0.00    +0.081 C 
ENDBRANCH  28  30
BRANCH  28  31
ATOM     31  C   LIG    1       30.551 -18.940   8.249  0.00  0.00    +0.081 C 
ATOM     32  C   LIG    1       30.104 -17.871   9.239  0.00  0.00    +0.020 C 
ENDBRANCH  28  31
ENDBRANCH  27  28
ENDBRANCH  26  27
ENDBRANCH  22  26
ENDBRANCH   1  24
TORSDOF 7
ENDMDL
MODEL 9
REMARK VINA RESULT:      -8.3      8.121     11.819
REMARK  Name = *****
REMARK                            x       y       z     vdW  Elec       q    Type
REMARK                         _______ _______ _______ _____ _____    ______ ____
ROOT
ATOM      1  C   LIG    1       25.092 -29.012   7.091  0.00  0.00    +0.060 C 
ATOM      2  C   LIG    1       25.813 -27.917   7.713  0.00  0.00    -0.013 C 
ATOM      3  C   LIG    1       26.535 -27.932   9.020  0.00  0.00    +0.046 C 
ATOM      4  C   LIG    1       25.768 -26.832   6.843  0.00  0.00    +0.044 C 
ATOM      5  N   LIG    1       25.121 -27.257   5.717  0.00  0.00    -0.358 NA
ATOM      6  H   LIG    1       25.021 -26.712   4.868  0.00  0.00    +0.166 HD
ATOM      7  C   LIG    1       24.735 -28.564   5.821  0.00  0.00    +0.026 C 
ATOM      8  C   LIG    1       24.073 -29.194   4.647  0.00  0.00    +0.064 C 
ENDROOT
BRANCH   4   9
ATOM      9  C   LIG    1       26.201 -25.482   6.953  0.00  0.00    +0.039 C 
ATOM     10  C   LIG    1       25.435 -24.380   6.897  0.00  0.00    +0.048 C 
ATOM     11  C   LIG    1       25.938 -23.007   7.081  0.00  0.00    +0.011 C 
ATOM     12  C   LIG    1       24.832 -22.157   6.937  0.00  0.00    +0.042 C 
ATOM     13  C   LIG    1       24.915 -20.786   7.071  0.00  0.00    +0.027 C 
ATOM     14  C   LIG    1       26.169 -20.251   7.363  0.00  0.00    +0.040 C 
ATOM     15  C   LIG    1       27.282 -21.095   7.509  0.00  0.00    +0.124 C 
ATOM     16  F   LIG    1       28.472 -20.551   7.795  0.00  0.00    -0.205 F 
ATOM     17  N   LIG    1       23.685 -22.891   6.672  0.00  0.00    -0.281 N 
ATOM     18  H   LIG    1       22.757 -22.518   6.547  0.00  0.00    +0.155 HD
ATOM     19  C   LIG    1       27.183 -22.480   7.374  0.00  0.00    +0.049 C 
ATOM     20  C   LIG    1       23.941 -24.251   6.649  0.00  0.00    +0.249 C 
ATOM     21  O   LIG    1       23.115 -25.119   6.508  0.00  0.00    -0.270 OA
ENDBRANCH   4   9
BRANCH   1  24
ATOM     22  N   LIG    1       23.782 -30.346   8.580  0.00  0.00    -0.310 N 
ATOM     23  H   LIG    1       23.218 -29.514   8.673  0.00  0.00    +0.149 HD
ATOM     24  C   LIG    1       24.801 -30.338   7.655  0.00  0.00    +0.246 C 
ATOM     25  O   LIG    1       25.400 -31.353   7.317  0.00  0.00    -0.270 OA
BRANCH  22  26
ATOM     26  C   LIG    1       23.343 -31.541   9.266  0.00  0.00    +0.120 C 
BRANCH  26  27
ATOM     27  C   LIG    1       22.201 -31.271  10.280  0.00  0.00    +0.103 C 
BRANCH  27  28
ATOM     28  N   LIG    1       20.875 -31.866   9.959  0.00  0.00    -0.301 NA
BRANCH  28  30
ATOM     29  C   LIG    1       20.910 -33.364  12.017  0.00  0.00    +0.020 C 
ATOM     30  C   LIG    1       20.746 -33.240  10.501  0.00  0.00    +0.081 C 
ENDBRANCH  28  30
BRANCH  28  31
ATOM     31  C   LIG    1       19.797 -30.995  10.483  0.00  0.00    +0.081 C 
ATOM     32  C   LIG    1       18.400 -31.305   9.961  0.00  0.00    +0.020 C 
ENDBRANCH  28  31
ENDBRANCH  27  28
ENDBRANCH  26  27
ENDBRANCH  22  26
ENDBRANCH   1  24
TORSDOF 7
ENDMDL
