MODEL 1
REMARK VINA RESULT:      12.9      0.000      0.000
REMARK  Name = *****
REMARK                            x       y       z     vdW  Elec       q    Type
REMARK                         _______ _______ _______ _____ _____    ______ ____
ROOT
ATOM      1  C   LIG    1       21.235 -16.725   3.209  0.00  0.00    +0.013 C 
ATOM      2  C   LIG    1       22.374 -17.224   4.126  0.00  0.00    +0.027 C 
ATOM      3  C   LIG    1       23.680 -16.457   3.776  0.00  0.00    +0.062 C 
ATOM      4  C   LIG    1       24.896 -17.296   3.519  0.00  0.00    +0.046 C 
ATOM      5  C   LIG    1       26.147 -16.818   3.680  0.00  0.00    +0.141 C 
ATOM      6  C   LIG    1       26.441 -15.427   4.187  0.00  0.00    +0.192 C 
ATOM      7  C   LIG    1       25.206 -14.517   4.361  0.00  0.00    +0.090 C 
ATOM      8  C   LIG    1       25.627 -13.293   5.240  0.00  0.00    +0.132 C 
ATOM      9  C   LIG    1       26.942 -12.671   4.704  0.00  0.00    +0.127 C 
ATOM     10  C   LIG    1       27.728 -13.256   3.768  0.00  0.00    +0.120 C 
ATOM     11  C   LIG    1       27.334 -14.597   3.241  0.00  0.00    +0.211 C 
ATOM     12  O   LIG    1       27.620 -14.925   2.092  0.00  0.00    -0.288 OA
ATOM     13  C   LIG    1       24.742 -18.709   3.079  0.00  0.00    +0.197 C 
ATOM     14  O   LIG    1       25.624 -19.218   2.402  0.00  0.00    -0.287 OA
ATOM     15  C   LIG    1       23.539 -19.443   3.546  0.00  0.00    +0.067 A 
ATOM     16  C   LIG    1       23.503 -20.852   3.509  0.00  0.00    +0.128 A 
ATOM     17  C   LIG    1       22.388 -21.557   3.965  0.00  0.00    +0.046 A 
ATOM     18  C   LIG    1       21.301 -20.865   4.482  0.00  0.00    +0.004 A 
ATOM     19  C   LIG    1       21.332 -19.473   4.539  0.00  0.00    +0.005 A 
ATOM     20  C   LIG    1       23.989 -15.338   4.828  0.00  0.00    +0.131 C 
ATOM     21  C   LIG    1       22.439 -18.740   4.062  0.00  0.00    -0.030 A 
ENDROOT
BRANCH   8  22
ATOM     22  N   LIG    1       24.486 -12.358   5.451  0.00  0.00    -0.298 NA
ATOM     23  C   LIG    1       24.114 -11.577   4.268  0.00  0.00    +0.105 C 
ATOM     24  C   LIG    1       24.711 -11.449   6.586  0.00  0.00    +0.105 C 
ENDBRANCH   8  22
BRANCH  10  25
ATOM     25  C   LIG    1       28.947 -12.576   3.313  0.00  0.00    +0.219 C 
ATOM     26  N   LIG    1       29.469 -12.679   2.141  0.00  0.00    -0.267 NA
ATOM     27  H   LIG    1       30.321 -12.118   2.069  0.00  0.00    +0.190 HD
BRANCH  25  28
ATOM     28  O   LIG    1       29.474 -11.751   4.219  0.00  0.00    -0.492 OA
ATOM     29  H   LIG    1       29.707 -12.194   5.045  0.00  0.00    +0.294 HD
ENDBRANCH  25  28
ENDBRANCH  10  25
BRANCH   5  30
ATOM     30  O   LIG    1       27.285 -17.604   3.530  0.00  0.00    -0.507 OA
ATOM     31  H   LIG    1       27.422 -17.752   2.563  0.00  0.00    +0.292 HD
ENDBRANCH   5  30
BRANCH   6  32
ATOM     32  O   LIG    1       27.103 -15.635   5.441  0.00  0.00    -0.373 OA
ATOM     33  H   LIG    1       26.397 -15.932   6.055  0.00  0.00    +0.211 HD
ENDBRANCH   6  32
BRANCH   9  34
ATOM     34  O   LIG    1       27.285 -11.447   5.278  0.00  0.00    -0.509 OA
ATOM     35  H   LIG    1       27.688 -11.616   6.161  0.00  0.00    +0.292 HD
ENDBRANCH   9  34
BRANCH  16  36
ATOM     36  O   LIG    1       24.576 -21.572   3.059  0.00  0.00    -0.506 OA
ATOM     37  H   LIG    1       24.352 -22.027   2.233  0.00  0.00    +0.292 HD
ENDBRANCH  16  36
BRANCH  20  38
ATOM     38  O   LIG    1       22.830 -14.509   4.943  0.00  0.00    -0.391 OA
ATOM     39  H   LIG    1       22.265 -14.908   5.642  0.00  0.00    +0.210 HD
ENDBRANCH  20  38
TORSDOF 8
ENDMDL
