MODEL 1
REMARK VINA RESULT:      -9.3      0.000      0.000
REMARK  Name = *****
REMARK                            x       y       z     vdW  Elec       q    Type
REMARK                         _______ _______ _______ _____ _____    ______ ____
ROOT
ATOM      1  C   LIG    1       25.398 -22.351   6.464  0.00  0.00    +0.034 A 
ATOM      2  C   LIG    1       25.770 -23.698   6.474  0.00  0.00    +0.031 A 
ATOM      3  C   LIG    1       24.810 -24.712   6.586  0.00  0.00    -0.023 A 
ATOM      4  C   LIG    1       23.461 -24.383   6.728  0.00  0.00    +0.008 A 
ATOM      5  C   LIG    1       23.076 -23.050   6.721  0.00  0.00    +0.002 A 
ATOM      6  C   LIG    1       24.040 -22.039   6.591  0.00  0.00    +0.023 A 
ENDROOT
BRANCH   1   8
ATOM      7  C   LIG    1       27.036 -20.636   7.306  0.00  0.00    +0.218 C 
ATOM      8  N   LIG    1       26.453 -21.401   6.341  0.00  0.00    -0.285 N 
ATOM      9  H   LIG    1       26.792 -21.274   5.381  0.00  0.00    +0.155 HD
ATOM     10  O   LIG    1       26.640 -20.576   8.482  0.00  0.00    -0.275 OA
BRANCH   7  11
ATOM     11  C   LIG    1       28.256 -19.765   6.887  0.00  0.00    +0.114 C 
BRANCH  11  12
ATOM     12  C   LIG    1       29.592 -19.898   7.698  0.00  0.00    +0.075 C 
BRANCH  12  14
ATOM     13  C   LIG    1       30.115 -17.659   9.045  0.00  0.00    +0.005 C 
ATOM     14  C   LIG    1       29.581 -19.093   9.050  0.00  0.00    +0.015 C 
ENDBRANCH  12  14
BRANCH  12  15
ATOM     15  C   LIG    1       30.759 -19.347   6.854  0.00  0.00    +0.311 C 
ATOM     16  O   LIG    1       31.924 -19.608   7.062  0.00  0.00    -0.250 OA
BRANCH  15  17
ATOM     17  O   LIG    1       30.408 -18.549   5.821  0.00  0.00    -0.480 OA
ATOM     18  H   LIG    1       29.503 -18.197   5.822  0.00  0.00    +0.295 HD
ENDBRANCH  15  17
ENDBRANCH  12  15
BRANCH  12  19
ATOM     19  C   LIG    1       29.830 -21.409   7.998  0.00  0.00    +0.015 C 
ATOM     20  C   LIG    1       30.749 -21.726   9.179  0.00  0.00    +0.005 C 
ENDBRANCH  12  19
ENDBRANCH  11  12
ENDBRANCH   7  11
ENDBRANCH   1   8
BRANCH   3  21
ATOM     21  C   LIG    1       25.158 -26.125   6.599  0.00  0.00    +0.010 C 
ATOM     22  C   LIG    1       24.360 -27.112   6.168  0.00  0.00    +0.035 C 
BRANCH  22  23
ATOM     23  C   LIG    1       24.756 -28.472   6.274  0.00  0.00    +0.101 A 
ATOM     24  S   LIG    1       24.937 -29.237   7.825  0.00  0.00    -0.076 S 
ATOM     25  C   LIG    1       25.438 -30.671   7.063  0.00  0.00    +0.070 A 
ATOM     26  C   LIG    1       25.399 -30.508   5.699  0.00  0.00    +0.052 A 
ATOM     27  N   LIG    1       24.977 -29.273   5.253  0.00  0.00    -0.244 NA
BRANCH  26  28
ATOM     28  C   LIG    1       25.795 -31.618   4.746  0.00  0.00    +0.038 C 
ATOM     29  C   LIG    1       26.813 -32.622   5.360  0.00  0.00    +0.010 C 
ATOM     30  C   LIG    1       26.036 -33.745   4.653  0.00  0.00    +0.001 C 
ATOM     31  C   LIG    1       24.809 -32.818   4.691  0.00  0.00    +0.010 C 
ENDBRANCH  26  28
ENDBRANCH  22  23
ENDBRANCH   3  21
TORSDOF 10
ENDMDL
MODEL 2
REMARK VINA RESULT:      -9.3      3.874     10.557
REMARK  Name = *****
REMARK                            x       y       z     vdW  Elec       q    Type
REMARK                         _______ _______ _______ _____ _____    ______ ____
ROOT
ATOM      1  C   LIG    1       24.485 -25.119   6.324  0.00  0.00    +0.034 A 
ATOM      2  C   LIG    1       25.648 -24.360   6.481  0.00  0.00    +0.031 A 
ATOM      3  C   LIG    1       25.588 -23.027   6.908  0.00  0.00    -0.023 A 
ATOM      4  C   LIG    1       24.352 -22.425   7.147  0.00  0.00    +0.008 A 
ATOM      5  C   LIG    1       23.188 -23.165   6.995  0.00  0.00    +0.002 A 
ATOM      6  C   LIG    1       23.254 -24.505   6.584  0.00  0.00    +0.023 A 
ENDROOT
BRANCH   1   8
ATOM      7  C   LIG    1       25.812 -27.147   5.647  0.00  0.00    +0.218 C 
ATOM      8  N   LIG    1       24.658 -26.465   5.891  0.00  0.00    -0.285 N 
ATOM      9  H   LIG    1       23.779 -26.968   5.724  0.00  0.00    +0.155 HD
ATOM     10  O   LIG    1       26.943 -26.633   5.669  0.00  0.00    -0.275 OA
BRANCH   7  11
ATOM     11  C   LIG    1       25.689 -28.657   5.291  0.00  0.00    +0.114 C 
BRANCH  11  12
ATOM     12  C   LIG    1       25.261 -29.664   6.415  0.00  0.00    +0.075 C 
BRANCH  12  14
ATOM     13  C   LIG    1       26.309 -31.790   5.198  0.00  0.00    +0.005 C 
ATOM     14  C   LIG    1       26.162 -30.953   6.470  0.00  0.00    +0.015 C 
ENDBRANCH  12  14
BRANCH  12  15
ATOM     15  C   LIG    1       23.816 -30.135   6.155  0.00  0.00    +0.311 C 
ATOM     16  O   LIG    1       23.332 -31.132   6.645  0.00  0.00    -0.250 OA
BRANCH  15  17
ATOM     17  O   LIG    1       23.079 -29.343   5.345  0.00  0.00    -0.480 OA
ATOM     18  H   LIG    1       23.542 -28.615   4.898  0.00  0.00    +0.295 HD
ENDBRANCH  15  17
ENDBRANCH  12  15
BRANCH  12  19
ATOM     19  C   LIG    1       25.332 -28.924   7.785  0.00  0.00    +0.015 C 
ATOM     20  C   LIG    1       25.566 -29.803   9.015  0.00  0.00    +0.005 C 
ENDBRANCH  12  19
ENDBRANCH  11  12
ENDBRANCH   7  11
ENDBRANCH   1   8
BRANCH   3  21
ATOM     21  C   LIG    1       26.777 -22.204   7.083  0.00  0.00    +0.010 C 
ATOM     22  C   LIG    1       26.778 -20.865   7.131  0.00  0.00    +0.035 C 
BRANCH  22  23
ATOM     23  C   LIG    1       27.992 -20.138   7.244  0.00  0.00    +0.101 A 
ATOM     24  S   LIG    1       28.818 -19.542   5.834  0.00  0.00    -0.076 S 
ATOM     25  C   LIG    1       30.059 -18.925   6.817  0.00  0.00    +0.070 A 
ATOM     26  C   LIG    1       29.764 -19.162   8.138  0.00  0.00    +0.052 A 
ATOM     27  N   LIG    1       28.575 -19.817   8.381  0.00  0.00    -0.244 NA
BRANCH  26  28
ATOM     28  C   LIG    1       30.689 -18.729   9.258  0.00  0.00    +0.038 C 
ATOM     29  C   LIG    1       31.810 -17.757   8.788  0.00  0.00    +0.010 C 
ATOM     30  C   LIG    1       31.602 -16.984  10.101  0.00  0.00    +0.001 C 
ATOM     31  C   LIG    1       30.168 -17.543  10.116  0.00  0.00    +0.010 C 
ENDBRANCH  26  28
ENDBRANCH  22  23
ENDBRANCH   3  21
TORSDOF 10
ENDMDL
MODEL 3
REMARK VINA RESULT:      -9.2      3.849     10.262
REMARK  Name = *****
REMARK                            x       y       z     vdW  Elec       q    Type
REMARK                         _______ _______ _______ _____ _____    ______ ____
ROOT
ATOM      1  C   LIG    1       25.040 -22.922   5.476  0.00  0.00    +0.034 A 
ATOM      2  C   LIG    1       26.066 -22.385   6.260  0.00  0.00    +0.031 A 
ATOM      3  C   LIG    1       26.242 -20.999   6.368  0.00  0.00    -0.023 A 
ATOM      4  C   LIG    1       25.412 -20.132   5.657  0.00  0.00    +0.008 A 
ATOM      5  C   LIG    1       24.391 -20.649   4.873  0.00  0.00    +0.002 A 
ATOM      6  C   LIG    1       24.206 -22.038   4.782  0.00  0.00    +0.023 A 
ENDROOT
BRANCH   1   8
ATOM      7  C   LIG    1       24.022 -25.158   6.021  0.00  0.00    +0.218 C 
ATOM      8  N   LIG    1       24.946 -24.343   5.439  0.00  0.00    -0.285 N 
ATOM      9  H   LIG    1       25.700 -24.799   4.913  0.00  0.00    +0.155 HD
ATOM     10  O   LIG    1       23.138 -24.764   6.800  0.00  0.00    -0.275 OA
BRANCH   7  11
ATOM     11  C   LIG    1       24.111 -26.679   5.707  0.00  0.00    +0.114 C 
BRANCH  11  12
ATOM     12  C   LIG    1       25.455 -27.433   6.000  0.00  0.00    +0.075 C 
BRANCH  12  14
ATOM     13  C   LIG    1       26.254 -28.276   8.398  0.00  0.00    +0.005 C 
ATOM     14  C   LIG    1       26.048 -27.115   7.423  0.00  0.00    +0.015 C 
ENDBRANCH  12  14
BRANCH  12  15
ATOM     15  C   LIG    1       26.516 -27.009   4.964  0.00  0.00    +0.311 C 
ATOM     16  O   LIG    1       26.260 -26.724   3.815  0.00  0.00    -0.250 OA
BRANCH  15  17
ATOM     17  O   LIG    1       27.786 -26.947   5.420  0.00  0.00    -0.480 OA
ATOM     18  H   LIG    1       27.908 -26.758   6.365  0.00  0.00    +0.295 HD
ENDBRANCH  15  17
ENDBRANCH  12  15
BRANCH  12  19
ATOM     19  C   LIG    1       25.190 -28.965   5.881  0.00  0.00    +0.015 C 
ATOM     20  C   LIG    1       23.725 -29.402   5.929  0.00  0.00    +0.005 C 
ENDBRANCH  12  19
ENDBRANCH  11  12
ENDBRANCH   7  11
ENDBRANCH   1   8
BRANCH   3  21
ATOM     21  C   LIG    1       27.298 -20.403   7.175  0.00  0.00    +0.010 C 
ATOM     22  C   LIG    1       28.563 -20.229   6.768  0.00  0.00    +0.035 C 
BRANCH  22  23
ATOM     23  C   LIG    1       29.545 -19.694   7.643  0.00  0.00    +0.101 A 
ATOM     24  S   LIG    1       30.794 -20.700   8.316  0.00  0.00    -0.076 S 
ATOM     25  C   LIG    1       31.399 -19.372   9.187  0.00  0.00    +0.070 A 
ATOM     26  C   LIG    1       30.662 -18.250   8.892  0.00  0.00    +0.052 A 
ATOM     27  N   LIG    1       29.635 -18.426   7.989  0.00  0.00    -0.244 NA
BRANCH  26  28
ATOM     28  C   LIG    1       30.962 -16.904   9.520  0.00  0.00    +0.038 C 
ATOM     29  C   LIG    1       30.975 -16.941  11.076  0.00  0.00    +0.010 C 
ATOM     30  C   LIG    1       32.180 -15.988  11.025  0.00  0.00    +0.001 C 
ATOM     31  C   LIG    1       32.471 -16.550   9.623  0.00  0.00    +0.010 C 
ENDBRANCH  26  28
ENDBRANCH  22  23
ENDBRANCH   3  21
TORSDOF 10
ENDMDL
MODEL 4
REMARK VINA RESULT:      -9.2      3.954     10.329
REMARK  Name = *****
REMARK                            x       y       z     vdW  Elec       q    Type
REMARK                         _______ _______ _______ _____ _____    ______ ____
ROOT
ATOM      1  C   LIG    1       24.041 -23.372   6.908  0.00  0.00    +0.034 A 
ATOM      2  C   LIG    1       25.353 -22.977   7.182  0.00  0.00    +0.031 A 
ATOM      3  C   LIG    1       25.655 -21.648   7.509  0.00  0.00    -0.023 A 
ATOM      4  C   LIG    1       24.643 -20.687   7.526  0.00  0.00    +0.008 A 
ATOM      5  C   LIG    1       23.336 -21.063   7.254  0.00  0.00    +0.002 A 
ATOM      6  C   LIG    1       23.036 -22.398   6.946  0.00  0.00    +0.023 A 
ENDROOT
BRANCH   1   8
ATOM      7  C   LIG    1       24.304 -25.458   5.526  0.00  0.00    +0.218 C 
ATOM      8  N   LIG    1       23.843 -24.747   6.593  0.00  0.00    -0.285 N 
ATOM      9  H   LIG    1       23.251 -25.249   7.264  0.00  0.00    +0.155 HD
ATOM     10  O   LIG    1       24.912 -24.958   4.565  0.00  0.00    -0.275 OA
BRANCH   7  11
ATOM     11  C   LIG    1       24.019 -26.988   5.510  0.00  0.00    +0.114 C 
BRANCH  11  12
ATOM     12  C   LIG    1       25.199 -27.979   5.805  0.00  0.00    +0.075 C 
BRANCH  12  14
ATOM     13  C   LIG    1       27.619 -26.907   5.495  0.00  0.00    +0.005 C 
ATOM     14  C   LIG    1       26.465 -27.721   4.906  0.00  0.00    +0.015 C 
ENDBRANCH  12  14
BRANCH  12  15
ATOM     15  C   LIG    1       24.735 -29.423   5.528  0.00  0.00    +0.311 C 
ATOM     16  O   LIG    1       25.491 -30.346   5.320  0.00  0.00    -0.250 OA
BRANCH  15  17
ATOM     17  O   LIG    1       23.399 -29.622   5.551  0.00  0.00    -0.480 OA
ATOM     18  H   LIG    1       22.978 -29.899   4.721  0.00  0.00    +0.295 HD
ENDBRANCH  15  17
ENDBRANCH  12  15
BRANCH  12  19
ATOM     19  C   LIG    1       25.592 -27.834   7.306  0.00  0.00    +0.015 C 
ATOM     20  C   LIG    1       25.425 -29.084   8.172  0.00  0.00    +0.005 C 
ENDBRANCH  12  19
ENDBRANCH  11  12
ENDBRANCH   7  11
ENDBRANCH   1   8
BRANCH   3  21
ATOM     21  C   LIG    1       27.008 -21.200   7.801  0.00  0.00    +0.010 C 
ATOM     22  C   LIG    1       27.472 -19.965   7.560  0.00  0.00    +0.035 C 
BRANCH  22  23
ATOM     23  C   LIG    1       28.827 -19.629   7.820  0.00  0.00    +0.101 A 
ATOM     24  S   LIG    1       30.080 -19.993   6.671  0.00  0.00    -0.076 S 
ATOM     25  C   LIG    1       31.245 -19.360   7.735  0.00  0.00    +0.070 A 
ATOM     26  C   LIG    1       30.626 -18.876   8.863  0.00  0.00    +0.052 A 
ATOM     27  N   LIG    1       29.253 -18.996   8.894  0.00  0.00    -0.244 NA
BRANCH  26  28
ATOM     28  C   LIG    1       31.407 -18.250  10.001  0.00  0.00    +0.038 C 
ATOM     29  C   LIG    1       32.046 -16.881   9.627  0.00  0.00    +0.010 C 
ATOM     30  C   LIG    1       31.667 -16.392  11.035  0.00  0.00    +0.001 C 
ATOM     31  C   LIG    1       30.550 -17.450  11.021  0.00  0.00    +0.010 C 
ENDBRANCH  26  28
ENDBRANCH  22  23
ENDBRANCH   3  21
TORSDOF 10
ENDMDL
MODEL 5
REMARK VINA RESULT:      -9.1      1.446      1.828
REMARK  Name = *****
REMARK                            x       y       z     vdW  Elec       q    Type
REMARK                         _______ _______ _______ _____ _____    ______ ____
ROOT
ATOM      1  C   LIG    1       25.587 -21.874   7.526  0.00  0.00    +0.034 A 
ATOM      2  C   LIG    1       25.918 -23.215   7.312  0.00  0.00    +0.031 A 
ATOM      3  C   LIG    1       24.961 -24.132   6.858  0.00  0.00    -0.023 A 
ATOM      4  C   LIG    1       23.645 -23.721   6.648  0.00  0.00    +0.008 A 
ATOM      5  C   LIG    1       23.299 -22.393   6.857  0.00  0.00    +0.002 A 
ATOM      6  C   LIG    1       24.265 -21.474   7.295  0.00  0.00    +0.023 A 
ENDROOT
BRANCH   1   8
ATOM      7  C   LIG    1       27.542 -20.312   7.257  0.00  0.00    +0.218 C 
ATOM      8  N   LIG    1       26.636 -21.025   7.983  0.00  0.00    -0.285 N 
ATOM      9  H   LIG    1       26.717 -20.973   9.005  0.00  0.00    +0.155 HD
ATOM     10  O   LIG    1       27.657 -20.385   6.022  0.00  0.00    -0.275 OA
BRANCH   7  11
ATOM     11  C   LIG    1       28.506 -19.374   8.040  0.00  0.00    +0.114 C 
BRANCH  11  12
ATOM     12  C   LIG    1       30.022 -19.762   8.136  0.00  0.00    +0.075 C 
BRANCH  12  14
ATOM     13  C   LIG    1       30.373 -17.725   9.818  0.00  0.00    +0.005 C 
ATOM     14  C   LIG    1       30.741 -19.148   9.395  0.00  0.00    +0.015 C 
ENDBRANCH  12  14
BRANCH  12  15
ATOM     15  C   LIG    1       30.765 -19.236   6.891  0.00  0.00    +0.311 C 
ATOM     16  O   LIG    1       31.916 -19.506   6.627  0.00  0.00    -0.250 OA
BRANCH  15  17
ATOM     17  O   LIG    1       30.038 -18.449   6.067  0.00  0.00    -0.480 OA
ATOM     18  H   LIG    1       29.114 -18.282   6.315  0.00  0.00    +0.295 HD
ENDBRANCH  15  17
ENDBRANCH  12  15
BRANCH  12  19
ATOM     19  C   LIG    1       30.125 -21.317   8.189  0.00  0.00    +0.015 C 
ATOM     20  C   LIG    1       31.124 -21.894   9.193  0.00  0.00    +0.005 C 
ENDBRANCH  12  19
ENDBRANCH  11  12
ENDBRANCH   7  11
ENDBRANCH   1   8
BRANCH   3  21
ATOM     21  C   LIG    1       25.269 -25.536   6.623  0.00  0.00    +0.010 C 
ATOM     22  C   LIG    1       24.359 -26.520   6.584  0.00  0.00    +0.035 C 
BRANCH  22  23
ATOM     23  C   LIG    1       24.753 -27.872   6.409  0.00  0.00    +0.101 A 
ATOM     24  S   LIG    1       25.051 -28.525   4.825  0.00  0.00    -0.076 S 
ATOM     25  C   LIG    1       25.372 -30.047   5.508  0.00  0.00    +0.070 A 
ATOM     26  C   LIG    1       25.282 -29.969   6.877  0.00  0.00    +0.052 A 
ATOM     27  N   LIG    1       24.967 -28.727   7.389  0.00  0.00    -0.244 NA
BRANCH  26  28
ATOM     28  C   LIG    1       25.515 -31.172   7.768  0.00  0.00    +0.038 C 
ATOM     29  C   LIG    1       26.599 -32.143   7.219  0.00  0.00    +0.010 C 
ATOM     30  C   LIG    1       27.087 -32.317   8.667  0.00  0.00    +0.001 C 
ATOM     31  C   LIG    1       26.486 -30.930   8.956  0.00  0.00    +0.010 C 
ENDBRANCH  26  28
ENDBRANCH  22  23
ENDBRANCH   3  21
TORSDOF 10
ENDMDL
MODEL 6
REMARK VINA RESULT:      -8.5      1.461      2.461
REMARK  Name = *****
REMARK                            x       y       z     vdW  Elec       q    Type
REMARK                         _______ _______ _______ _____ _____    ______ ____
ROOT
ATOM      1  C   LIG    1       25.394 -22.056   7.019  0.00  0.00    +0.034 A 
ATOM      2  C   LIG    1       25.764 -23.399   6.916  0.00  0.00    +0.031 A 
ATOM      3  C   LIG    1       24.803 -24.400   6.720  0.00  0.00    -0.023 A 
ATOM      4  C   LIG    1       23.449 -24.067   6.663  0.00  0.00    +0.008 A 
ATOM      5  C   LIG    1       23.066 -22.738   6.765  0.00  0.00    +0.002 A 
ATOM      6  C   LIG    1       24.033 -21.737   6.943  0.00  0.00    +0.023 A 
ENDROOT
BRANCH   1   8
ATOM      7  C   LIG    1       26.803 -20.444   8.342  0.00  0.00    +0.218 C 
ATOM      8  N   LIG    1       26.450 -21.119   7.212  0.00  0.00    -0.285 N 
ATOM      9  H   LIG    1       26.995 -20.923   6.366  0.00  0.00    +0.155 HD
ATOM     10  O   LIG    1       26.153 -20.470   9.401  0.00  0.00    -0.275 OA
BRANCH   7  11
ATOM     11  C   LIG    1       28.085 -19.564   8.278  0.00  0.00    +0.114 C 
BRANCH  11  12
ATOM     12  C   LIG    1       29.321 -20.090   7.467  0.00  0.00    +0.075 C 
BRANCH  12  14
ATOM     13  C   LIG    1       30.620 -21.754   9.095  0.00  0.00    +0.005 C 
ATOM     14  C   LIG    1       29.741 -21.556   7.858  0.00  0.00    +0.015 C 
ENDBRANCH  12  14
BRANCH  12  15
ATOM     15  C   LIG    1       30.537 -19.184   7.743  0.00  0.00    +0.311 C 
ATOM     16  O   LIG    1       30.527 -18.263   8.531  0.00  0.00    -0.250 OA
BRANCH  15  17
ATOM     17  O   LIG    1       31.660 -19.488   7.057  0.00  0.00    -0.480 OA
ATOM     18  H   LIG    1       31.630 -19.389   6.092  0.00  0.00    +0.295 HD
ENDBRANCH  15  17
ENDBRANCH  12  15
BRANCH  12  19
ATOM     19  C   LIG    1       28.964 -20.042   5.950  0.00  0.00    +0.015 C 
ATOM     20  C   LIG    1       28.812 -18.649   5.337  0.00  0.00    +0.005 C 
ENDBRANCH  12  19
ENDBRANCH  11  12
ENDBRANCH   7  11
ENDBRANCH   1   8
BRANCH   3  21
ATOM     21  C   LIG    1       25.150 -25.810   6.608  0.00  0.00    +0.010 C 
ATOM     22  C   LIG    1       24.272 -26.795   6.371  0.00  0.00    +0.035 C 
BRANCH  22  23
ATOM     23  C   LIG    1       24.688 -28.152   6.337  0.00  0.00    +0.101 A 
ATOM     24  S   LIG    1       25.201 -28.898   4.852  0.00  0.00    -0.076 S 
ATOM     25  C   LIG    1       25.428 -30.372   5.666  0.00  0.00    +0.070 A 
ATOM     26  C   LIG    1       25.150 -30.210   7.003  0.00  0.00    +0.052 A 
ATOM     27  N   LIG    1       24.767 -28.943   7.388  0.00  0.00    -0.244 NA
BRANCH  26  28
ATOM     28  C   LIG    1       25.260 -31.354   7.991  0.00  0.00    +0.038 C 
ATOM     29  C   LIG    1       26.643 -31.422   8.701  0.00  0.00    +0.010 C 
ATOM     30  C   LIG    1       25.891 -31.790   9.991  0.00  0.00    +0.001 C 
ATOM     31  C   LIG    1       24.671 -31.064   9.398  0.00  0.00    +0.010 C 
ENDBRANCH  26  28
ENDBRANCH  22  23
ENDBRANCH   3  21
TORSDOF 10
ENDMDL
MODEL 7
REMARK VINA RESULT:      -8.3      3.980     10.486
REMARK  Name = *****
REMARK                            x       y       z     vdW  Elec       q    Type
REMARK                         _______ _______ _______ _____ _____    ______ ____
ROOT
ATOM      1  C   LIG    1       24.898 -25.155   6.736  0.00  0.00    +0.034 A 
ATOM      2  C   LIG    1       25.869 -24.150   6.759  0.00  0.00    +0.031 A 
ATOM      3  C   LIG    1       25.510 -22.797   6.699  0.00  0.00    -0.023 A 
ATOM      4  C   LIG    1       24.168 -22.436   6.575  0.00  0.00    +0.008 A 
ATOM      5  C   LIG    1       23.192 -23.421   6.549  0.00  0.00    +0.002 A 
ATOM      6  C   LIG    1       23.555 -24.775   6.628  0.00  0.00    +0.023 A 
ENDROOT
BRANCH   1   8
ATOM      7  C   LIG    1       24.946 -27.595   6.120  0.00  0.00    +0.218 C 
ATOM      8  N   LIG    1       25.370 -26.497   6.807  0.00  0.00    -0.285 N 
ATOM      9  H   LIG    1       26.120 -26.641   7.493  0.00  0.00    +0.155 HD
ATOM     10  O   LIG    1       23.960 -27.605   5.365  0.00  0.00    -0.275 OA
BRANCH   7  11
ATOM     11  C   LIG    1       25.738 -28.918   6.328  0.00  0.00    +0.114 C 
BRANCH  11  12
ATOM     12  C   LIG    1       25.474 -29.760   7.625  0.00  0.00    +0.075 C 
BRANCH  12  14
ATOM     13  C   LIG    1       23.625 -30.379   9.440  0.00  0.00    +0.005 C 
ATOM     14  C   LIG    1       24.012 -29.598   8.183  0.00  0.00    +0.015 C 
ENDBRANCH  12  14
BRANCH  12  15
ATOM     15  C   LIG    1       26.436 -29.299   8.738  0.00  0.00    +0.311 C 
ATOM     16  O   LIG    1       26.436 -28.184   9.211  0.00  0.00    -0.250 OA
BRANCH  15  17
ATOM     17  O   LIG    1       27.295 -30.237   9.194  0.00  0.00    -0.480 OA
ATOM     18  H   LIG    1       28.210 -30.192   8.873  0.00  0.00    +0.295 HD
ENDBRANCH  15  17
ENDBRANCH  12  15
BRANCH  12  19
ATOM     19  C   LIG    1       25.738 -31.260   7.293  0.00  0.00    +0.015 C 
ATOM     20  C   LIG    1       25.135 -31.779   5.986  0.00  0.00    +0.005 C 
ENDBRANCH  12  19
ENDBRANCH  11  12
ENDBRANCH   7  11
ENDBRANCH   1   8
BRANCH   3  21
ATOM     21  C   LIG    1       26.493 -21.723   6.721  0.00  0.00    +0.010 C 
ATOM     22  C   LIG    1       27.590 -21.707   7.491  0.00  0.00    +0.035 C 
BRANCH  22  23
ATOM     23  C   LIG    1       28.465 -20.589   7.495  0.00  0.00    +0.101 A 
ATOM     24  S   LIG    1       28.714 -19.638   6.061  0.00  0.00    -0.076 S 
ATOM     25  C   LIG    1       29.833 -18.668   6.894  0.00  0.00    +0.070 A 
ATOM     26  C   LIG    1       29.922 -19.083   8.201  0.00  0.00    +0.052 A 
ATOM     27  N   LIG    1       29.119 -20.149   8.550  0.00  0.00    -0.244 NA
BRANCH  26  28
ATOM     28  C   LIG    1       30.846 -18.410   9.197  0.00  0.00    +0.038 C 
ATOM     29  C   LIG    1       32.064 -17.709   8.529  0.00  0.00    +0.010 C 
ATOM     30  C   LIG    1       31.884 -16.569   9.545  0.00  0.00    +0.001 C 
ATOM     31  C   LIG    1       30.407 -16.988   9.640  0.00  0.00    +0.010 C 
ENDBRANCH  26  28
ENDBRANCH  22  23
ENDBRANCH   3  21
TORSDOF 10
ENDMDL
MODEL 8
REMARK VINA RESULT:      -8.2      4.959      9.496
REMARK  Name = *****
REMARK                            x       y       z     vdW  Elec       q    Type
REMARK                         _______ _______ _______ _____ _____    ______ ____
ROOT
ATOM      1  C   LIG    1       25.658 -28.735   7.604  0.00  0.00    +0.034 A 
ATOM      2  C   LIG    1       25.678 -27.371   7.300  0.00  0.00    +0.031 A 
ATOM      3  C   LIG    1       25.013 -26.871   6.173  0.00  0.00    -0.023 A 
ATOM      4  C   LIG    1       24.349 -27.744   5.311  0.00  0.00    +0.008 A 
ATOM      5  C   LIG    1       24.321 -29.101   5.597  0.00  0.00    +0.002 A 
ATOM      6  C   LIG    1       24.974 -29.595   6.737  0.00  0.00    +0.023 A 
ENDROOT
BRANCH   1   8
ATOM      7  C   LIG    1       25.873 -29.653   9.937  0.00  0.00    +0.218 C 
ATOM      8  N   LIG    1       26.363 -29.136   8.776  0.00  0.00    -0.285 N 
ATOM      9  H   LIG    1       27.377 -28.987   8.726  0.00  0.00    +0.155 HD
ATOM     10  O   LIG    1       24.663 -29.759  10.197  0.00  0.00    -0.275 OA
BRANCH   7  11
ATOM     11  C   LIG    1       26.906 -30.108  11.008  0.00  0.00    +0.114 C 
BRANCH  11  12
ATOM     12  C   LIG    1       27.175 -29.176  12.241  0.00  0.00    +0.075 C 
BRANCH  12  14
ATOM     13  C   LIG    1       26.724 -26.693  13.098  0.00  0.00    +0.005 C 
ATOM     14  C   LIG    1       26.950 -27.650  11.926  0.00  0.00    +0.015 C 
ENDBRANCH  12  14
BRANCH  12  15
ATOM     15  C   LIG    1       28.641 -29.333  12.690  0.00  0.00    +0.311 C 
ATOM     16  O   LIG    1       28.977 -29.547  13.834  0.00  0.00    -0.250 OA
BRANCH  15  17
ATOM     17  O   LIG    1       29.566 -29.240  11.709  0.00  0.00    -0.480 OA
ATOM     18  H   LIG    1       30.231 -28.537  11.793  0.00  0.00    +0.295 HD
ENDBRANCH  15  17
ENDBRANCH  12  15
BRANCH  12  19
ATOM     19  C   LIG    1       26.223 -29.611  13.397  0.00  0.00    +0.015 C 
ATOM     20  C   LIG    1       25.804 -31.081  13.409  0.00  0.00    +0.005 C 
ENDBRANCH  12  19
ENDBRANCH  11  12
ENDBRANCH   7  11
ENDBRANCH   1   8
BRANCH   3  21
ATOM     21  C   LIG    1       25.010 -25.457   5.825  0.00  0.00    +0.010 C 
ATOM     22  C   LIG    1       25.251 -24.459   6.686  0.00  0.00    +0.035 C 
BRANCH  22  23
ATOM     23  C   LIG    1       25.168 -23.103   6.275  0.00  0.00    +0.101 A 
ATOM     24  S   LIG    1       26.286 -21.912   6.874  0.00  0.00    -0.076 S 
ATOM     25  C   LIG    1       25.479 -20.705   5.991  0.00  0.00    +0.070 A 
ATOM     26  C   LIG    1       24.454 -21.267   5.269  0.00  0.00    +0.052 A 
ATOM     27  N   LIG    1       24.301 -22.632   5.402  0.00  0.00    -0.244 NA
BRANCH  26  28
ATOM     28  C   LIG    1       23.547 -20.438   4.381  0.00  0.00    +0.038 C 
ATOM     29  C   LIG    1       22.550 -19.549   5.180  0.00  0.00    +0.010 C 
ATOM     30  C   LIG    1       22.800 -18.445   4.139  0.00  0.00    +0.001 C 
ATOM     31  C   LIG    1       24.164 -19.105   3.876  0.00  0.00    +0.010 C 
ENDBRANCH  26  28
ENDBRANCH  22  23
ENDBRANCH   3  21
TORSDOF 10
ENDMDL
MODEL 9
REMARK VINA RESULT:      -8.1      1.656      2.454
REMARK  Name = *****
REMARK                            x       y       z     vdW  Elec       q    Type
REMARK                         _______ _______ _______ _____ _____    ______ ____
ROOT
ATOM      1  C   LIG    1       25.667 -21.387   7.779  0.00  0.00    +0.034 A 
ATOM      2  C   LIG    1       25.948 -22.721   7.475  0.00  0.00    +0.031 A 
ATOM      3  C   LIG    1       24.954 -23.575   6.980  0.00  0.00    -0.023 A 
ATOM      4  C   LIG    1       23.649 -23.108   6.821  0.00  0.00    +0.008 A 
ATOM      5  C   LIG    1       23.353 -21.786   7.120  0.00  0.00    +0.002 A 
ATOM      6  C   LIG    1       24.357 -20.929   7.598  0.00  0.00    +0.023 A 
ENDROOT
BRANCH   1   8
ATOM      7  C   LIG    1       27.932 -20.296   7.665  0.00  0.00    +0.218 C 
ATOM      8  N   LIG    1       26.751 -20.604   8.271  0.00  0.00    -0.285 N 
ATOM      9  H   LIG    1       26.614 -20.251   9.224  0.00  0.00    +0.155 HD
ATOM     10  O   LIG    1       28.298 -20.765   6.574  0.00  0.00    -0.275 OA
BRANCH   7  11
ATOM     11  C   LIG    1       28.884 -19.316   8.410  0.00  0.00    +0.114 C 
BRANCH  11  12
ATOM     12  C   LIG    1       30.431 -19.558   8.328  0.00  0.00    +0.075 C 
BRANCH  12  14
ATOM     13  C   LIG    1       30.175 -18.519   5.887  0.00  0.00    +0.005 C 
ATOM     14  C   LIG    1       31.025 -19.297   6.893  0.00  0.00    +0.015 C 
ENDBRANCH  12  14
BRANCH  12  15
ATOM     15  C   LIG    1       30.738 -21.027   8.683  0.00  0.00    +0.311 C 
ATOM     16  O   LIG    1       31.857 -21.489   8.734  0.00  0.00    -0.250 OA
BRANCH  15  17
ATOM     17  O   LIG    1       29.665 -21.796   8.967  0.00  0.00    -0.480 OA
ATOM     18  H   LIG    1       29.472 -21.957   9.905  0.00  0.00    +0.295 HD
ENDBRANCH  15  17
ENDBRANCH  12  15
BRANCH  12  19
ATOM     19  C   LIG    1       31.127 -18.614   9.355  0.00  0.00    +0.015 C 
ATOM     20  C   LIG    1       31.982 -17.490   8.768  0.00  0.00    +0.005 C 
ENDBRANCH  12  19
ENDBRANCH  11  12
ENDBRANCH   7  11
ENDBRANCH   1   8
BRANCH   3  21
ATOM     21  C   LIG    1       25.209 -24.970   6.651  0.00  0.00    +0.010 C 
ATOM     22  C   LIG    1       24.277 -25.839   6.235  0.00  0.00    +0.035 C 
BRANCH  22  23
ATOM     23  C   LIG    1       24.601 -27.200   5.993  0.00  0.00    +0.101 A 
ATOM     24  S   LIG    1       25.885 -27.638   4.905  0.00  0.00    -0.076 S 
ATOM     25  C   LIG    1       25.548 -29.283   5.164  0.00  0.00    +0.070 A 
ATOM     26  C   LIG    1       24.529 -29.409   6.079  0.00  0.00    +0.052 A 
ATOM     27  N   LIG    1       24.018 -28.228   6.575  0.00  0.00    -0.244 NA
BRANCH  26  28
ATOM     28  C   LIG    1       24.001 -30.761   6.513  0.00  0.00    +0.038 C 
ATOM     29  C   LIG    1       24.913 -31.945   6.078  0.00  0.00    +0.010 C 
ATOM     30  C   LIG    1       24.625 -32.586   7.446  0.00  0.00    +0.001 C 
ATOM     31  C   LIG    1       24.355 -31.165   7.971  0.00  0.00    +0.010 C 
ENDBRANCH  26  28
ENDBRANCH  22  23
ENDBRANCH   3  21
TORSDOF 10
ENDMDL
