MODEL 1
REMARK VINA RESULT:      -4.9      0.000      0.000
REMARK  Name = *****
REMARK                            x       y       z     vdW  Elec       q    Type
REMARK                         _______ _______ _______ _____ _____    ______ ____
ROOT
ATOM      1  C   LIG    1       22.355 -21.572   5.458  0.00  0.00    +0.046 C 
ATOM      2  C   LIG    1       22.882 -20.258   4.962  0.00  0.00    -0.022 A 
ATOM      3  C   LIG    1       24.243 -20.062   4.699  0.00  0.00    +0.088 A 
ATOM      4  N   LIG    1       25.165 -21.133   4.845  0.00  0.00    -0.319 N 
ATOM      5  H   LIG    1       25.798 -21.071   4.048  0.00  0.00    +0.169 HD
ATOM      6  C   LIG    1       25.922 -20.975   5.992  0.00  0.00    +0.260 A 
ATOM      7  C   LIG    1       27.085 -20.063   5.878  0.00  0.00    +0.082 A 
ATOM      8  C   LIG    1       27.184 -19.019   4.941  0.00  0.00    +0.148 A 
ATOM      9  N   LIG    1       26.132 -18.629   4.042  0.00  0.00    -0.305 N 
ATOM     10  N   LIG    1       28.349 -18.306   4.870  0.00  0.00    -0.237 NA
ATOM     11  C   LIG    1       29.361 -18.572   5.726  0.00  0.00    +0.113 A 
ATOM     12  C   LIG    1       29.307 -19.552   6.689  0.00  0.00    +0.021 A 
ATOM     13  C   LIG    1       28.150 -20.311   6.763  0.00  0.00    +0.018 A 
ATOM     14  O   LIG    1       25.681 -21.572   7.035  0.00  0.00    -0.267 OA
ATOM     15  C   LIG    1       24.725 -18.813   4.269  0.00  0.00    +0.159 A 
ATOM     16  N   LIG    1       23.864 -17.788   4.041  0.00  0.00    -0.236 NA
ATOM     17  C   LIG    1       22.552 -17.988   4.295  0.00  0.00    +0.113 A 
ATOM     18  C   LIG    1       22.022 -19.180   4.758  0.00  0.00    +0.025 A 
ENDROOT
BRANCH   9  19
ATOM     19  C   LIG    1       26.460 -17.495   3.126  0.00  0.00    +0.091 C 
ATOM     20  C   LIG    1       27.240 -16.293   3.603  0.00  0.00    +0.027 C 
ATOM     21  C   LIG    1       25.789 -16.148   3.266  0.00  0.00    +0.027 C 
ENDBRANCH   9  19
TORSDOF 1
ENDMDL
