MODEL 1
REMARK VINA RESULT:       7.5      0.000      0.000
REMARK  Name = *****
REMARK                            x       y       z     vdW  Elec       q    Type
REMARK                         _______ _______ _______ _____ _____    ______ ____
ROOT
ATOM      1  C   LIG    1       25.647 -15.694   3.353  0.00  0.00    -0.021 C 
ATOM      2  C   LIG    1       25.043 -16.819   3.825  0.00  0.00    -0.035 C 
ATOM      3  C   LIG    1       25.601 -18.212   3.580  0.00  0.00    +0.059 C 
ATOM      4  C   LIG    1       24.676 -19.229   2.856  0.00  0.00    +0.085 C 
ATOM      5  C   LIG    1       25.243 -20.636   2.973  0.00  0.00    -0.011 C 
ATOM      6  C   LIG    1       26.056 -20.997   3.973  0.00  0.00    +0.009 C 
ATOM      7  C   LIG    1       26.438 -20.072   5.026  0.00  0.00    +0.051 C 
ATOM      8  S   LIG    1       22.962 -19.341   3.467  0.00  0.00    -0.116 S 
ATOM      9  C   LIG    1       22.703 -17.756   4.241  0.00  0.00    +0.016 A 
ATOM     10  C   LIG    1       21.389 -17.573   4.718  0.00  0.00    +0.015 A 
ATOM     11  C   LIG    1       21.004 -16.391   5.341  0.00  0.00    +0.001 A 
ATOM     12  C   LIG    1       21.934 -15.376   5.503  0.00  0.00    +0.001 A 
ATOM     13  C   LIG    1       23.241 -15.548   5.040  0.00  0.00    +0.009 A 
ATOM     14  C   LIG    1       26.224 -18.745   4.842  0.00  0.00    -0.005 C 
ATOM     15  C   LIG    1       23.657 -16.728   4.390  0.00  0.00    -0.008 A 
ENDROOT
BRANCH   7  16
ATOM     16  C   LIG    1       27.121 -20.570   6.268  0.00  0.00    +0.417 C 
ATOM     17  F   LIG    1       27.538 -19.550   7.061  0.00  0.00    -0.166 F 
ATOM     18  F   LIG    1       28.227 -21.304   5.969  0.00  0.00    -0.166 F 
ATOM     19  F   LIG    1       26.330 -21.367   7.039  0.00  0.00    -0.166 F 
ENDBRANCH   7  16
BRANCH   1  20
ATOM     20  C   LIG    1       26.833 -15.591   2.419  0.00  0.00    +0.043 C 
BRANCH  20  21
ATOM     21  C   LIG    1       27.988 -14.710   2.988  0.00  0.00    +0.088 C 
BRANCH  21  25
ATOM     22  N   LIG    1       25.197 -13.015   4.868  0.00  0.00    -0.298 NA
ATOM     23  C   LIG    1       25.200 -13.371   3.435  0.00  0.00    +0.100 C 
ATOM     24  C   LIG    1       26.412 -12.797   2.675  0.00  0.00    +0.100 C 
ATOM     25  N   LIG    1       27.730 -13.255   3.143  0.00  0.00    -0.300 NA
ATOM     26  C   LIG    1       27.779 -12.833   4.565  0.00  0.00    +0.100 C 
ATOM     27  C   LIG    1       26.551 -13.266   5.423  0.00  0.00    +0.100 C 
BRANCH  22  28
ATOM     28  C   LIG    1       24.709 -11.627   5.022  0.00  0.00    +0.112 C 
BRANCH  28  29
ATOM     29  C   LIG    1       23.187 -11.447   5.141  0.00  0.00    +0.171 C 
BRANCH  29  30
ATOM     30  O   LIG    1       22.762 -11.457   6.498  0.00  0.00    -0.394 OA
ATOM     31  H   LIG    1       23.053 -10.614   6.886  0.00  0.00    +0.209 HD
ENDBRANCH  29  30
ENDBRANCH  28  29
ENDBRANCH  22  28
ENDBRANCH  21  25
ENDBRANCH  20  21
ENDBRANCH   1  20
TORSDOF 7
ENDMDL
MODEL 2
REMARK VINA RESULT:       8.3      4.067      7.055
REMARK  Name = *****
REMARK                            x       y       z     vdW  Elec       q    Type
REMARK                         _______ _______ _______ _____ _____    ______ ____
ROOT
ATOM      1  C   LIG    1       27.140 -16.727   3.684  0.00  0.00    -0.021 C 
ATOM      2  C   LIG    1       26.421 -15.572   3.732  0.00  0.00    -0.035 C 
ATOM      3  C   LIG    1       24.925 -15.527   3.462  0.00  0.00    +0.059 C 
ATOM      4  C   LIG    1       24.439 -14.602   2.311  0.00  0.00    +0.085 C 
ATOM      5  C   LIG    1       22.931 -14.423   2.377  0.00  0.00    -0.011 C 
ATOM      6  C   LIG    1       22.245 -14.562   3.519  0.00  0.00    +0.009 C 
ATOM      7  C   LIG    1       22.900 -14.877   4.776  0.00  0.00    +0.051 C 
ATOM      8  S   LIG    1       25.131 -12.916   2.281  0.00  0.00    -0.116 S 
ATOM      9  C   LIG    1       26.664 -13.091   3.174  0.00  0.00    +0.016 A 
ATOM     10  C   LIG    1       27.433 -11.910   3.204  0.00  0.00    +0.015 A 
ATOM     11  C   LIG    1       28.665 -11.865   3.848  0.00  0.00    +0.001 A 
ATOM     12  C   LIG    1       29.142 -13.003   4.478  0.00  0.00    +0.001 A 
ATOM     13  C   LIG    1       28.386 -14.178   4.462  0.00  0.00    +0.009 A 
ATOM     14  C   LIG    1       24.176 -15.338   4.753  0.00  0.00    -0.005 C 
ATOM     15  C   LIG    1       27.141 -14.259   3.803  0.00  0.00    -0.008 A 
ENDROOT
BRANCH   7  16
ATOM     16  C   LIG    1       22.154 -14.760   6.076  0.00  0.00    +0.417 C 
ATOM     17  F   LIG    1       20.844 -15.087   5.939  0.00  0.00    -0.166 F 
ATOM     18  F   LIG    1       22.188 -13.487   6.556  0.00  0.00    -0.166 F 
ATOM     19  F   LIG    1       22.655 -15.555   7.062  0.00  0.00    -0.166 F 
ENDBRANCH   7  16
BRANCH   1  20
ATOM     20  C   LIG    1       26.679 -18.097   3.234  0.00  0.00    +0.043 C 
BRANCH  20  21
ATOM     21  C   LIG    1       26.639 -19.141   4.392  0.00  0.00    +0.088 C 
BRANCH  21  25
ATOM     22  N   LIG    1       23.306 -20.148   5.832  0.00  0.00    -0.298 NA
ATOM     23  C   LIG    1       24.635 -20.471   6.387  0.00  0.00    +0.100 C 
ATOM     24  C   LIG    1       25.558 -21.170   5.371  0.00  0.00    +0.100 C 
ATOM     25  N   LIG    1       25.874 -20.394   4.161  0.00  0.00    -0.300 NA
ATOM     26  C   LIG    1       24.552 -20.128   3.543  0.00  0.00    +0.100 C 
ATOM     27  C   LIG    1       23.488 -19.512   4.502  0.00  0.00    +0.100 C 
BRANCH  22  28
ATOM     28  C   LIG    1       22.471 -21.370   5.828  0.00  0.00    +0.112 C 
BRANCH  28  29
ATOM     29  C   LIG    1       21.544 -21.560   4.617  0.00  0.00    +0.171 C 
BRANCH  29  30
ATOM     30  O   LIG    1       20.728 -20.416   4.397  0.00  0.00    -0.394 OA
ATOM     31  H   LIG    1       20.377 -20.495   3.494  0.00  0.00    +0.209 HD
ENDBRANCH  29  30
ENDBRANCH  28  29
ENDBRANCH  22  28
ENDBRANCH  21  25
ENDBRANCH  20  21
ENDBRANCH   1  20
TORSDOF 7
ENDMDL
MODEL 3
REMARK VINA RESULT:       8.9      2.012      3.209
REMARK  Name = *****
REMARK                            x       y       z     vdW  Elec       q    Type
REMARK                         _______ _______ _______ _____ _____    ______ ____
ROOT
ATOM      1  C   LIG    1       23.476 -16.970   4.306  0.00  0.00    -0.021 C 
ATOM      2  C   LIG    1       23.908 -18.260   4.261  0.00  0.00    -0.035 C 
ATOM      3  C   LIG    1       25.332 -18.635   3.885  0.00  0.00    +0.059 C 
ATOM      4  C   LIG    1       25.518 -19.587   2.671  0.00  0.00    +0.085 C 
ATOM      5  C   LIG    1       26.944 -20.112   2.623  0.00  0.00    -0.011 C 
ATOM      6  C   LIG    1       27.712 -20.193   3.717  0.00  0.00    +0.009 C 
ATOM      7  C   LIG    1       27.226 -19.800   5.029  0.00  0.00    +0.051 C 
ATOM      8  S   LIG    1       24.451 -21.064   2.630  0.00  0.00    -0.116 S 
ATOM      9  C   LIG    1       23.058 -20.586   3.634  0.00  0.00    +0.016 A 
ATOM     10  C   LIG    1       22.038 -21.558   3.677  0.00  0.00    +0.015 A 
ATOM     11  C   LIG    1       20.871 -21.351   4.404  0.00  0.00    +0.001 A 
ATOM     12  C   LIG    1       20.712 -20.167   5.107  0.00  0.00    +0.001 A 
ATOM     13  C   LIG    1       21.719 -19.199   5.079  0.00  0.00    +0.009 A 
ATOM     14  C   LIG    1       26.093 -19.057   5.112  0.00  0.00    -0.005 C 
ATOM     15  C   LIG    1       22.906 -19.373   4.337  0.00  0.00    -0.008 A 
ENDROOT
BRANCH   7  16
ATOM     16  C   LIG    1       28.001 -20.153   6.267  0.00  0.00    +0.417 C 
ATOM     17  F   LIG    1       28.243 -19.064   7.040  0.00  0.00    -0.166 F 
ATOM     18  F   LIG    1       29.214 -20.686   5.959  0.00  0.00    -0.166 F 
ATOM     19  F   LIG    1       27.371 -21.064   7.059  0.00  0.00    -0.166 F 
ENDBRANCH   7  16
BRANCH   1  20
ATOM     20  C   LIG    1       24.216 -15.722   3.873  0.00  0.00    +0.043 C 
BRANCH  20  21
ATOM     21  C   LIG    1       23.497 -14.405   4.300  0.00  0.00    +0.088 C 
BRANCH  21  25
ATOM     22  N   LIG    1       26.964 -13.808   2.950  0.00  0.00    -0.298 NA
ATOM     23  C   LIG    1       26.619 -14.263   4.311  0.00  0.00    +0.100 C 
ATOM     24  C   LIG    1       25.629 -13.324   5.027  0.00  0.00    +0.100 C 
ATOM     25  N   LIG    1       24.318 -13.168   4.377  0.00  0.00    -0.300 NA
ATOM     26  C   LIG    1       24.639 -12.633   3.031  0.00  0.00    +0.100 C 
ATOM     27  C   LIG    1       25.712 -13.442   2.239  0.00  0.00    +0.100 C 
BRANCH  22  28
ATOM     28  C   LIG    1       27.968 -12.725   3.039  0.00  0.00    +0.112 C 
BRANCH  28  29
ATOM     29  C   LIG    1       29.091 -12.919   4.071  0.00  0.00    +0.171 C 
BRANCH  29  30
ATOM     30  O   LIG    1       29.021 -11.949   5.109  0.00  0.00    -0.394 OA
ATOM     31  H   LIG    1       29.655 -12.228   5.792  0.00  0.00    +0.209 HD
ENDBRANCH  29  30
ENDBRANCH  28  29
ENDBRANCH  22  28
ENDBRANCH  21  25
ENDBRANCH  20  21
ENDBRANCH   1  20
TORSDOF 7
ENDMDL
