MODEL 1
REMARK VINA RESULT:      44.1      0.000      0.000
REMARK  Name = *****
REMARK                            x       y       z     vdW  Elec       q    Type
REMARK                         _______ _______ _______ _____ _____    ______ ____
ROOT
ATOM      1  C   LIG    1       28.105 -16.444   4.365  0.00  0.00    +0.035 C 
ATOM      2  C   LIG    1       27.105 -16.470   3.209  0.00  0.00    +0.110 C 
ATOM      3  S   LIG    1       25.941 -17.851   3.181  0.00  0.00    -0.131 S 
ATOM      4  C   LIG    1       27.204 -19.049   3.647  0.00  0.00    +0.169 C 
ATOM      5  N   LIG    1       27.652 -18.681   4.974  0.00  0.00    -0.249 N 
ATOM      6  C   LIG    1       27.397 -19.878   5.560  0.00  0.00    +0.244 C 
ATOM      7  O   LIG    1       27.608 -20.356   6.648  0.00  0.00    -0.273 OA
ATOM      8  CA  LIG    1       26.764 -20.412   4.235  0.00  0.00    +0.191 C 
ATOM      9  CA  LIG    1       28.260 -17.480   5.239  0.00  0.00    +0.128 C 
ENDROOT
BRANCH   8  10
ATOM     10  N   LIG    1       25.325 -20.770   4.173  0.00  0.00    -0.296 N 
ATOM     11  H   LIG    1       24.830 -21.103   4.996  0.00  0.00    +0.150 HD
ATOM     12  C   LIG    1       24.523 -20.457   3.087  0.00  0.00    +0.270 C 
ATOM     13  O   LIG    1       24.933 -19.949   2.061  0.00  0.00    -0.268 OA
BRANCH  12  14
ATOM     14  C   LIG    1       23.041 -20.737   3.291  0.00  0.00    +0.208 C 
ATOM     15  N   LIG    1       22.337 -20.783   2.183  0.00  0.00    -0.075 NA
BRANCH  14  16
ATOM     16  C   LIG    1       22.529 -20.980   4.650  0.00  0.00    +0.197 C 
ATOM     17  N   LIG    1       21.172 -21.241   4.887  0.00  0.00    -0.202 NA
ATOM     18  C   LIG    1       20.969 -21.385   6.172  0.00  0.00    +0.176 C 
ATOM     19  S   LIG    1       22.439 -21.321   7.055  0.00  0.00    +0.049 S 
ATOM     20  N   LIG    1       23.349 -20.976   5.706  0.00  0.00    -0.185 NA
BRANCH  18  21
ATOM     21  N   LIG    1       19.764 -21.563   6.725  0.00  0.00    -0.336 NA
ATOM     22  H   LIG    1       19.560 -21.054   7.576  0.00  0.00    +0.144 HD
ATOM     23  H   LIG    1       18.959 -21.719   6.126  0.00  0.00    +0.144 HD
ENDBRANCH  18  21
ENDBRANCH  14  16
BRANCH  15  24
ATOM     24  O   LIG    1       20.980 -21.070   2.379  0.00  0.00    -0.376 OA
BRANCH  24  25
ATOM     25  C   LIG    1       20.300 -20.065   3.157  0.00  0.00    +0.228 C 
ATOM     26  C   LIG    1       19.541 -20.603   4.375  0.00  0.00    +0.070 C 
ATOM     27  C   LIG    1       19.357 -19.325   2.209  0.00  0.00    +0.070 C 
BRANCH  25  28
ATOM     28  C   LIG    1       21.373 -19.087   3.661  0.00  0.00    +0.351 C 
ATOM     29  O   LIG    1       22.459 -18.910   3.128  0.00  0.00    -0.246 OA
BRANCH  28  30
ATOM     30  O   LIG    1       20.988 -18.371   4.749  0.00  0.00    -0.478 OA
ATOM     31  H   LIG    1       20.009 -18.324   4.799  0.00  0.00    +0.295 HD
ENDBRANCH  28  30
ENDBRANCH  25  28
ENDBRANCH  24  25
ENDBRANCH  15  24
ENDBRANCH  12  14
ENDBRANCH   8  10
BRANCH   9  32
ATOM     32  C   LIG    1       29.071 -17.318   6.501  0.00  0.00    +0.352 C 
ATOM     33  O   LIG    1       29.429 -16.262   6.976  0.00  0.00    -0.244 OA
BRANCH  32  34
ATOM     34  OXT LIG    1       29.423 -18.475   7.061  0.00  0.00    -0.476 OA
ATOM     35  HXT LIG    1       29.282 -18.421   8.027  0.00  0.00    +0.295 HD
ENDBRANCH  32  34
ENDBRANCH   9  32
BRANCH   1  36
ATOM     36  C   LIG    1       28.832 -15.098   4.419  0.00  0.00    +0.420 C 
BRANCH  36  39
ATOM     37  C   LIG    1       28.099 -13.158   2.112  0.00  0.00    +0.223 C 
ATOM     38  N   LIG    1       27.395 -13.299   3.385  0.00  0.00    -0.138 NA
ATOM     39  N   LIG    1       27.816 -14.019   4.464  0.00  0.00    -0.106 NA
ATOM     40  C   LIG    1       27.051 -13.610   5.591  0.00  0.00    +0.363 C 
ATOM     41  C   LIG    1       26.024 -12.689   5.181  0.00  0.00    +0.144 C 
ATOM     42  C   LIG    1       26.247 -12.555   3.753  0.00  0.00    +0.179 C 
BRANCH  41  43
ATOM     43  N   LIG    1       25.069 -12.130   6.027  0.00  0.00    -0.262 N 
ATOM     44  H   LIG    1       25.389 -11.544   6.787  0.00  0.00    +0.157 HD
ATOM     45  C   LIG    1       23.714 -12.350   5.946  0.00  0.00    +0.304 C 
ATOM     46  N   LIG    1       23.004 -11.693   6.920  0.00  0.00    -0.298 N 
ATOM     47  H   LIG    1       23.401 -10.900   7.398  0.00  0.00    +0.150 HD
ATOM     48  O   LIG    1       23.161 -13.086   5.132  0.00  0.00    -0.253 OA
BRANCH  46  49
ATOM     49  C   LIG    1       21.556 -11.857   7.006  0.00  0.00    +0.120 C 
BRANCH  49  50
ATOM     50  C   LIG    1       21.098 -13.286   6.675  0.00  0.00    +0.096 C 
BRANCH  50  51
ATOM     51  N   LIG    1       22.097 -14.279   7.061  0.00  0.00    -0.329 NA
ATOM     52  H   LIG    1       22.951 -14.132   6.522  0.00  0.00    +0.118 HD
ATOM     53  H   LIG    1       22.364 -14.143   8.036  0.00  0.00    +0.118 HD
ENDBRANCH  50  51
ENDBRANCH  49  50
ENDBRANCH  46  49
ENDBRANCH  41  43
BRANCH  42  54
ATOM     54  N   LIG    1       25.493 -11.880   2.849  0.00  0.00    -0.339 NA
ATOM     55  H   LIG    1       24.518 -11.632   3.079  0.00  0.00    +0.144 HD
ATOM     56  H   LIG    1       25.664 -11.777   1.857  0.00  0.00    +0.144 HD
ENDBRANCH  42  54
ENDBRANCH  36  39
ENDBRANCH   1  36
TORSDOF 17
ENDMDL
