MODEL 1
REMARK VINA RESULT:      -9.0      0.000      0.000
REMARK  Name = *****
REMARK                            x       y       z     vdW  Elec       q    Type
REMARK                         _______ _______ _______ _____ _____    ______ ____
ROOT
ATOM      1  N   LIG    1       26.065 -25.543   6.128  0.00  0.00    -0.282 N 
ATOM      2  H   LIG    1       26.466 -25.419   5.207  0.00  0.00    +0.155 HD
ENDROOT
BRANCH   1   3
ATOM      3  C   LIG    1       25.590 -26.869   6.323  0.00  0.00    +0.126 A 
ATOM      4  N   LIG    1       25.886 -27.573   7.447  0.00  0.00    -0.213 NA
ATOM      5  C   LIG    1       25.499 -28.870   7.559  0.00  0.00    +0.174 A 
ATOM      6  N   LIG    1       25.770 -29.619   8.740  0.00  0.00    -0.225 N 
ATOM      7  C   LIG    1       25.480 -30.992   8.796  0.00  0.00    +0.266 C 
ATOM      8  C   LIG    1       25.197 -31.636   7.411  0.00  0.00    +0.181 C 
ATOM      9  O   LIG    1       24.439 -30.818   6.519  0.00  0.00    -0.474 OA
ATOM     10  C   LIG    1       24.366 -32.911   7.586  0.00  0.00    +0.066 C 
ATOM     11  C   LIG    1       26.543 -32.006   6.766  0.00  0.00    +0.066 C 
ATOM     12  O   LIG    1       25.545 -31.654   9.817  0.00  0.00    -0.271 OA
ATOM     13  C   LIG    1       24.807 -29.505   6.522  0.00  0.00    +0.162 A 
ATOM     14  C   LIG    1       24.420 -28.763   5.414  0.00  0.00    +0.052 A 
ATOM     15  C   LIG    1       24.813 -27.433   5.311  0.00  0.00    +0.047 A 
BRANCH   6  16
ATOM     16  C   LIG    1       26.037 -28.969  10.017  0.00  0.00    +0.289 C 
BRANCH  16  17
ATOM     17  O   LIG    1       27.409 -28.830  10.274  0.00  0.00    -0.267 OA
BRANCH  17  18
ATOM     18  P   LIG    1       27.901 -29.141  11.753  0.00  0.00    +0.474 P 
ATOM     19  O   LIG    1       27.267 -30.326  12.392  0.00  0.00    -0.228 OA
BRANCH  18  20
ATOM     20  O   LIG    1       27.685 -27.813  12.608  0.00  0.00    -0.303 OA
ATOM     21  H   LIG    1       27.953 -27.014  12.118  0.00  0.00    +0.222 HD
ENDBRANCH  18  20
BRANCH  18  22
ATOM     22  O   LIG    1       29.489 -29.283  11.713  0.00  0.00    -0.303 OA
ATOM     23  H   LIG    1       29.745 -30.222  11.760  0.00  0.00    +0.222 HD
ENDBRANCH  18  22
ENDBRANCH  17  18
ENDBRANCH  16  17
ENDBRANCH   6  16
ENDBRANCH   1   3
BRANCH   1  26
ATOM     24  C   LIG    1       25.484 -22.208   7.419  0.00  0.00    +0.221 A 
ATOM     25  N   LIG    1       26.138 -23.353   7.099  0.00  0.00    -0.196 NA
ATOM     26  C   LIG    1       25.404 -24.361   6.545  0.00  0.00    +0.165 A 
ATOM     27  C   LIG    1       24.025 -24.276   6.449  0.00  0.00    +0.181 A 
ATOM     28  F   LIG    1       23.258 -25.318   6.094  0.00  0.00    -0.200 F 
ATOM     29  C   LIG    1       23.452 -23.095   6.826  0.00  0.00    +0.156 A 
ATOM     30  N   LIG    1       24.157 -22.051   7.286  0.00  0.00    -0.220 NA
BRANCH  24  31
ATOM     31  N   LIG    1       26.194 -21.143   7.982  0.00  0.00    -0.283 N 
ATOM     32  H   LIG    1       25.748 -20.757   8.798  0.00  0.00    +0.155 HD
BRANCH  31  37
ATOM     33  C   LIG    1       29.871 -20.712   8.415  0.00  0.00    +0.167 A 
ATOM     34  C   LIG    1       30.210 -19.901   7.309  0.00  0.00    +0.204 A 
ATOM     35  C   LIG    1       29.207 -19.572   6.382  0.00  0.00    +0.167 A 
ATOM     36  C   LIG    1       27.878 -19.959   6.637  0.00  0.00    +0.073 A 
ATOM     37  C   LIG    1       27.526 -20.753   7.735  0.00  0.00    +0.041 A 
ATOM     38  C   LIG    1       28.540 -21.112   8.624  0.00  0.00    +0.073 A 
BRANCH  33  40
ATOM     39  C   LIG    1       31.474 -22.327   9.078  0.00  0.00    +0.277 C 
ATOM     40  O   LIG    1       30.889 -21.045   9.284  0.00  0.00    -0.491 OA
ENDBRANCH  33  40
BRANCH  34  41
ATOM     41  O   LIG    1       31.545 -19.580   7.193  0.00  0.00    -0.488 OA
ATOM     42  C   LIG    1       32.009 -18.451   7.926  0.00  0.00    +0.277 C 
ENDBRANCH  34  41
BRANCH  35  43
ATOM     43  O   LIG    1       29.553 -18.881   5.246  0.00  0.00    -0.491 OA
ATOM     44  C   LIG    1       28.721 -17.768   4.935  0.00  0.00    +0.277 C 
ENDBRANCH  35  43
ENDBRANCH  31  37
ENDBRANCH  24  31
ENDBRANCH   1  26
TORSDOF 12
ENDMDL
MODEL 2
REMARK VINA RESULT:      -8.9      0.077      2.000
REMARK  Name = *****
REMARK                            x       y       z     vdW  Elec       q    Type
REMARK                         _______ _______ _______ _____ _____    ______ ____
ROOT
ATOM      1  N   LIG    1       26.070 -25.528   6.141  0.00  0.00    -0.282 N 
ATOM      2  H   LIG    1       26.493 -25.399   5.231  0.00  0.00    +0.155 HD
ENDROOT
BRANCH   1   3
ATOM      3  C   LIG    1       25.604 -26.859   6.323  0.00  0.00    +0.126 A 
ATOM      4  N   LIG    1       25.892 -27.566   7.447  0.00  0.00    -0.213 NA
ATOM      5  C   LIG    1       25.515 -28.867   7.547  0.00  0.00    +0.174 A 
ATOM      6  N   LIG    1       25.778 -29.620   8.728  0.00  0.00    -0.225 N 
ATOM      7  C   LIG    1       25.499 -30.996   8.773  0.00  0.00    +0.266 C 
ATOM      8  C   LIG    1       25.241 -31.635   7.381  0.00  0.00    +0.181 C 
ATOM      9  O   LIG    1       24.488 -30.820   6.483  0.00  0.00    -0.474 OA
ATOM     10  C   LIG    1       24.419 -32.919   7.538  0.00  0.00    +0.066 C 
ATOM     11  C   LIG    1       26.599 -31.990   6.752  0.00  0.00    +0.066 C 
ATOM     12  O   LIG    1       25.557 -31.662   9.791  0.00  0.00    -0.271 OA
ATOM     13  C   LIG    1       24.843 -29.503   6.498  0.00  0.00    +0.162 A 
ATOM     14  C   LIG    1       24.464 -28.759   5.388  0.00  0.00    +0.052 A 
ATOM     15  C   LIG    1       24.846 -27.425   5.298  0.00  0.00    +0.047 A 
BRANCH   6  16
ATOM     16  C   LIG    1       26.022 -28.975  10.011  0.00  0.00    +0.289 C 
BRANCH  16  17
ATOM     17  O   LIG    1       27.388 -28.791  10.271  0.00  0.00    -0.267 OA
BRANCH  17  18
ATOM     18  P   LIG    1       27.898 -29.146  11.734  0.00  0.00    +0.474 P 
ATOM     19  O   LIG    1       27.253 -30.334  12.356  0.00  0.00    -0.228 OA
BRANCH  18  20
ATOM     20  O   LIG    1       27.721 -27.835  12.623  0.00  0.00    -0.303 OA
ATOM     21  H   LIG    1       27.758 -28.032  13.577  0.00  0.00    +0.222 HD
ENDBRANCH  18  20
BRANCH  18  22
ATOM     22  O   LIG    1       29.482 -29.317  11.663  0.00  0.00    -0.303 OA
ATOM     23  H   LIG    1       29.726 -29.903  10.924  0.00  0.00    +0.222 HD
ENDBRANCH  18  22
ENDBRANCH  17  18
ENDBRANCH  16  17
ENDBRANCH   6  16
ENDBRANCH   1   3
BRANCH   1  26
ATOM     24  C   LIG    1       25.421 -22.192   7.398  0.00  0.00    +0.221 A 
ATOM     25  N   LIG    1       26.096 -23.329   7.094  0.00  0.00    -0.196 NA
ATOM     26  C   LIG    1       25.385 -24.354   6.541  0.00  0.00    +0.165 A 
ATOM     27  C   LIG    1       24.006 -24.292   6.430  0.00  0.00    +0.181 A 
ATOM     28  F   LIG    1       23.260 -25.349   6.076  0.00  0.00    -0.200 F 
ATOM     29  C   LIG    1       23.410 -23.118   6.790  0.00  0.00    +0.156 A 
ATOM     30  N   LIG    1       24.093 -22.058   7.249  0.00  0.00    -0.220 NA
BRANCH  24  31
ATOM     31  N   LIG    1       26.108 -21.112   7.958  0.00  0.00    -0.283 N 
ATOM     32  H   LIG    1       25.622 -20.694   8.737  0.00  0.00    +0.155 HD
BRANCH  31  37
ATOM     33  C   LIG    1       29.156 -19.605   6.432  0.00  0.00    +0.167 A 
ATOM     34  C   LIG    1       30.176 -20.040   7.307  0.00  0.00    +0.204 A 
ATOM     35  C   LIG    1       29.816 -20.773   8.450  0.00  0.00    +0.167 A 
ATOM     36  C   LIG    1       28.473 -21.150   8.632  0.00  0.00    +0.073 A 
ATOM     37  C   LIG    1       27.453 -20.736   7.767  0.00  0.00    +0.041 A 
ATOM     38  C   LIG    1       27.817 -19.969   6.660  0.00  0.00    +0.073 A 
BRANCH  33  40
ATOM     39  C   LIG    1       28.637 -17.827   4.953  0.00  0.00    +0.277 C 
ATOM     40  O   LIG    1       29.543 -18.857   5.340  0.00  0.00    -0.491 OA
ENDBRANCH  33  40
BRANCH  34  41
ATOM     41  O   LIG    1       31.448 -19.613   6.997  0.00  0.00    -0.488 OA
ATOM     42  C   LIG    1       31.978 -18.535   7.761  0.00  0.00    +0.277 C 
ENDBRANCH  34  41
BRANCH  35  43
ATOM     43  O   LIG    1       30.789 -21.099   9.363  0.00  0.00    -0.491 OA
ATOM     44  C   LIG    1       31.470 -22.324   9.113  0.00  0.00    +0.277 C 
ENDBRANCH  35  43
ENDBRANCH  31  37
ENDBRANCH  24  31
ENDBRANCH   1  26
TORSDOF 12
ENDMDL
MODEL 3
REMARK VINA RESULT:      -8.8      3.508      8.738
REMARK  Name = *****
REMARK                            x       y       z     vdW  Elec       q    Type
REMARK                         _______ _______ _______ _____ _____    ______ ____
ROOT
ATOM      1  N   LIG    1       26.587 -27.245   6.697  0.00  0.00    -0.282 N 
ATOM      2  H   LIG    1       27.579 -27.200   6.895  0.00  0.00    +0.155 HD
ENDROOT
BRANCH   1   3
ATOM      3  C   LIG    1       26.078 -25.992   6.258  0.00  0.00    +0.126 A 
ATOM      4  N   LIG    1       26.332 -24.843   6.937  0.00  0.00    -0.213 NA
ATOM      5  C   LIG    1       25.750 -23.680   6.547  0.00  0.00    +0.174 A 
ATOM      6  N   LIG    1       26.027 -22.457   7.223  0.00  0.00    -0.225 N 
ATOM      7  C   LIG    1       25.324 -21.285   6.894  0.00  0.00    +0.266 C 
ATOM      8  C   LIG    1       24.051 -21.531   6.037  0.00  0.00    +0.181 C 
ATOM      9  O   LIG    1       24.193 -22.541   5.038  0.00  0.00    -0.474 OA
ATOM     10  C   LIG    1       23.684 -20.257   5.268  0.00  0.00    +0.066 C 
ATOM     11  C   LIG    1       22.894 -21.890   6.984  0.00  0.00    +0.066 C 
ATOM     12  O   LIG    1       25.614 -20.183   7.322  0.00  0.00    -0.271 OA
ATOM     13  C   LIG    1       24.873 -23.646   5.458  0.00  0.00    +0.162 A 
ATOM     14  C   LIG    1       24.685 -24.797   4.704  0.00  0.00    +0.052 A 
ATOM     15  C   LIG    1       25.291 -25.982   5.106  0.00  0.00    +0.047 A 
BRANCH   6  16
ATOM     16  C   LIG    1       27.232 -22.276   8.021  0.00  0.00    +0.289 C 
BRANCH  16  17
ATOM     17  O   LIG    1       28.333 -21.871   7.253  0.00  0.00    -0.267 OA
BRANCH  17  18
ATOM     18  P   LIG    1       29.360 -20.869   7.936  0.00  0.00    +0.474 P 
ATOM     19  O   LIG    1       30.201 -21.463   9.011  0.00  0.00    -0.228 OA
BRANCH  18  20
ATOM     20  O   LIG    1       28.520 -19.618   8.456  0.00  0.00    -0.303 OA
ATOM     21  H   LIG    1       28.876 -19.259   9.289  0.00  0.00    +0.222 HD
ENDBRANCH  18  20
BRANCH  18  22
ATOM     22  O   LIG    1       30.259 -20.237   6.779  0.00  0.00    -0.303 OA
ATOM     23  H   LIG    1       30.785 -20.932   6.343  0.00  0.00    +0.222 HD
ENDBRANCH  18  22
ENDBRANCH  17  18
ENDBRANCH  16  17
ENDBRANCH   6  16
ENDBRANCH   1   3
BRANCH   1  26
ATOM     24  C   LIG    1       25.723 -29.030   9.730  0.00  0.00    +0.221 A 
ATOM     25  N   LIG    1       26.410 -28.232   8.875  0.00  0.00    -0.196 NA
ATOM     26  C   LIG    1       25.940 -28.127   7.598  0.00  0.00    +0.165 A 
ATOM     27  C   LIG    1       24.892 -28.915   7.152  0.00  0.00    +0.181 A 
ATOM     28  F   LIG    1       24.534 -28.981   5.861  0.00  0.00    -0.200 F 
ATOM     29  C   LIG    1       24.282 -29.712   8.079  0.00  0.00    +0.156 A 
ATOM     30  N   LIG    1       24.661 -29.765   9.364  0.00  0.00    -0.220 NA
BRANCH  24  31
ATOM     31  N   LIG    1       26.161 -29.162  11.051  0.00  0.00    -0.283 N 
ATOM     32  H   LIG    1       26.859 -29.879  11.166  0.00  0.00    +0.155 HD
BRANCH  31  37
ATOM     33  C   LIG    1       24.469 -27.136  13.683  0.00  0.00    +0.167 A 
ATOM     34  C   LIG    1       25.546 -26.417  14.245  0.00  0.00    +0.204 A 
ATOM     35  C   LIG    1       26.847 -26.680  13.785  0.00  0.00    +0.167 A 
ATOM     36  C   LIG    1       27.030 -27.562  12.704  0.00  0.00    +0.073 A 
ATOM     37  C   LIG    1       25.971 -28.274  12.129  0.00  0.00    +0.041 A 
ATOM     38  C   LIG    1       24.689 -28.038  12.626  0.00  0.00    +0.073 A 
BRANCH  33  40
ATOM     39  C   LIG    1       22.202 -26.633  13.210  0.00  0.00    +0.277 C 
ATOM     40  O   LIG    1       23.211 -26.878  14.185  0.00  0.00    -0.491 OA
ENDBRANCH  33  40
BRANCH  34  41
ATOM     41  O   LIG    1       25.221 -25.571  15.283  0.00  0.00    -0.488 OA
ATOM     42  C   LIG    1       25.272 -24.172  15.024  0.00  0.00    +0.277 C 
ENDBRANCH  34  41
BRANCH  35  43
ATOM     43  O   LIG    1       27.909 -26.069  14.406  0.00  0.00    -0.491 OA
ATOM     44  C   LIG    1       28.594 -26.868  15.365  0.00  0.00    +0.277 C 
ENDBRANCH  35  43
ENDBRANCH  31  37
ENDBRANCH  24  31
ENDBRANCH   1  26
TORSDOF 12
ENDMDL
MODEL 4
REMARK VINA RESULT:      -8.7      3.485      8.726
REMARK  Name = *****
REMARK                            x       y       z     vdW  Elec       q    Type
REMARK                         _______ _______ _______ _____ _____    ______ ____
ROOT
ATOM      1  N   LIG    1       26.625 -27.192   6.592  0.00  0.00    -0.282 N 
ATOM      2  H   LIG    1       27.615 -27.144   6.794  0.00  0.00    +0.155 HD
ENDROOT
BRANCH   1   3
ATOM      3  C   LIG    1       26.105 -25.933   6.186  0.00  0.00    +0.126 A 
ATOM      4  N   LIG    1       26.352 -24.799   6.893  0.00  0.00    -0.213 NA
ATOM      5  C   LIG    1       25.761 -23.631   6.533  0.00  0.00    +0.174 A 
ATOM      6  N   LIG    1       26.029 -22.423   7.239  0.00  0.00    -0.225 N 
ATOM      7  C   LIG    1       25.317 -21.249   6.942  0.00  0.00    +0.266 C 
ATOM      8  C   LIG    1       24.044 -21.483   6.082  0.00  0.00    +0.181 C 
ATOM      9  O   LIG    1       24.192 -22.466   5.057  0.00  0.00    -0.474 OA
ATOM     10  C   LIG    1       23.666 -20.193   5.346  0.00  0.00    +0.066 C 
ATOM     11  C   LIG    1       22.892 -21.874   7.021  0.00  0.00    +0.066 C 
ATOM     12  O   LIG    1       25.599 -20.156   7.397  0.00  0.00    -0.271 OA
ATOM     13  C   LIG    1       24.881 -23.576   5.447  0.00  0.00    +0.162 A 
ATOM     14  C   LIG    1       24.699 -24.709   4.665  0.00  0.00    +0.052 A 
ATOM     15  C   LIG    1       25.316 -25.899   5.036  0.00  0.00    +0.047 A 
BRANCH   6  16
ATOM     16  C   LIG    1       27.235 -22.253   8.040  0.00  0.00    +0.289 C 
BRANCH  16  17
ATOM     17  O   LIG    1       28.347 -21.883   7.268  0.00  0.00    -0.267 OA
BRANCH  17  18
ATOM     18  P   LIG    1       29.364 -20.850   7.919  0.00  0.00    +0.474 P 
ATOM     19  O   LIG    1       30.232 -21.409   8.991  0.00  0.00    -0.228 OA
BRANCH  18  20
ATOM     20  O   LIG    1       28.507 -19.607   8.430  0.00  0.00    -0.303 OA
ATOM     21  H   LIG    1       27.903 -19.852   9.155  0.00  0.00    +0.222 HD
ENDBRANCH  18  20
BRANCH  18  22
ATOM     22  O   LIG    1       30.233 -20.221   6.738  0.00  0.00    -0.303 OA
ATOM     23  H   LIG    1       30.636 -20.929   6.202  0.00  0.00    +0.222 HD
ENDBRANCH  18  22
ENDBRANCH  17  18
ENDBRANCH  16  17
ENDBRANCH   6  16
ENDBRANCH   1   3
BRANCH   1  26
ATOM     24  C   LIG    1       25.760 -29.059   9.574  0.00  0.00    +0.221 A 
ATOM     25  N   LIG    1       26.443 -28.231   8.744  0.00  0.00    -0.196 NA
ATOM     26  C   LIG    1       25.983 -28.105   7.466  0.00  0.00    +0.165 A 
ATOM     27  C   LIG    1       24.952 -28.898   6.992  0.00  0.00    +0.181 A 
ATOM     28  F   LIG    1       24.607 -28.940   5.697  0.00  0.00    -0.200 F 
ATOM     29  C   LIG    1       24.345 -29.725   7.894  0.00  0.00    +0.156 A 
ATOM     30  N   LIG    1       24.713 -29.803   9.182  0.00  0.00    -0.220 NA
BRANCH  24  31
ATOM     31  N   LIG    1       26.188 -29.216  10.896  0.00  0.00    -0.283 N 
ATOM     32  H   LIG    1       26.944 -29.874  10.992  0.00  0.00    +0.155 HD
BRANCH  31  37
ATOM     33  C   LIG    1       26.674 -26.888  13.767  0.00  0.00    +0.167 A 
ATOM     34  C   LIG    1       25.375 -26.815  14.317  0.00  0.00    +0.204 A 
ATOM     35  C   LIG    1       24.329 -27.490  13.666  0.00  0.00    +0.167 A 
ATOM     36  C   LIG    1       24.619 -28.308  12.559  0.00  0.00    +0.073 A 
ATOM     37  C   LIG    1       25.904 -28.399  12.010  0.00  0.00    +0.041 A 
ATOM     38  C   LIG    1       26.926 -27.688  12.638  0.00  0.00    +0.073 A 
BRANCH  33  40
ATOM     39  C   LIG    1       28.518 -26.957  15.255  0.00  0.00    +0.277 C 
ATOM     40  O   LIG    1       27.669 -26.184  14.411  0.00  0.00    -0.491 OA
ENDBRANCH  33  40
BRANCH  34  41
ATOM     41  O   LIG    1       25.238 -25.992  15.413  0.00  0.00    -0.488 OA
ATOM     42  C   LIG    1       24.998 -24.611  15.165  0.00  0.00    +0.277 C 
ENDBRANCH  34  41
BRANCH  35  43
ATOM     43  O   LIG    1       23.045 -27.329  14.129  0.00  0.00    -0.491 OA
ATOM     44  C   LIG    1       22.203 -26.519  13.316  0.00  0.00    +0.277 C 
ENDBRANCH  35  43
ENDBRANCH  31  37
ENDBRANCH  24  31
ENDBRANCH   1  26
TORSDOF 12
ENDMDL
MODEL 5
REMARK VINA RESULT:      -8.6      4.062      6.270
REMARK  Name = *****
REMARK                            x       y       z     vdW  Elec       q    Type
REMARK                         _______ _______ _______ _____ _____    ______ ____
ROOT
ATOM      1  N   LIG    1       24.197 -29.704   6.953  0.00  0.00    -0.282 N 
ATOM      2  H   LIG    1       23.352 -30.079   6.541  0.00  0.00    +0.155 HD
ENDROOT
BRANCH   1   3
ATOM      3  C   LIG    1       24.213 -29.863   8.366  0.00  0.00    +0.126 A 
ATOM      4  N   LIG    1       23.093 -30.200   9.057  0.00  0.00    -0.213 NA
ATOM      5  C   LIG    1       23.120 -30.248  10.414  0.00  0.00    +0.174 A 
ATOM      6  N   LIG    1       21.967 -30.629  11.159  0.00  0.00    -0.225 N 
ATOM      7  C   LIG    1       21.967 -30.553  12.562  0.00  0.00    +0.266 C 
ATOM      8  C   LIG    1       23.140 -29.720  13.149  0.00  0.00    +0.181 C 
ATOM      9  O   LIG    1       24.388 -29.895  12.479  0.00  0.00    -0.474 OA
ATOM     10  C   LIG    1       23.403 -30.138  14.600  0.00  0.00    +0.066 C 
ATOM     11  C   LIG    1       22.737 -28.236  13.127  0.00  0.00    +0.066 C 
ATOM     12  O   LIG    1       21.078 -31.002  13.261  0.00  0.00    -0.271 OA
ATOM     13  C   LIG    1       24.287 -29.939  11.120  0.00  0.00    +0.162 A 
ATOM     14  C   LIG    1       25.457 -29.687  10.416  0.00  0.00    +0.052 A 
ATOM     15  C   LIG    1       25.422 -29.648   9.026  0.00  0.00    +0.047 A 
BRANCH   6  16
ATOM     16  C   LIG    1       20.889 -31.405  10.561  0.00  0.00    +0.289 C 
BRANCH  16  17
ATOM     17  O   LIG    1       19.803 -30.608  10.169  0.00  0.00    -0.267 OA
BRANCH  17  18
ATOM     18  P   LIG    1       18.371 -31.295  10.155  0.00  0.00    +0.474 P 
ATOM     19  O   LIG    1       18.366 -32.738   9.791  0.00  0.00    -0.228 OA
BRANCH  18  20
ATOM     20  O   LIG    1       17.446 -30.431   9.187  0.00  0.00    -0.303 OA
ATOM     21  H   LIG    1       17.867 -29.589   8.932  0.00  0.00    +0.222 HD
ENDBRANCH  18  20
BRANCH  18  22
ATOM     22  O   LIG    1       17.708 -31.055  11.587  0.00  0.00    -0.303 OA
ATOM     23  H   LIG    1       16.742 -30.963  11.499  0.00  0.00    +0.222 HD
ENDBRANCH  18  22
ENDBRANCH  17  18
ENDBRANCH  16  17
ENDBRANCH   6  16
ENDBRANCH   1   3
BRANCH   1  26
ATOM     24  C   LIG    1       24.505 -26.256   5.881  0.00  0.00    +0.221 A 
ATOM     25  N   LIG    1       24.024 -27.352   6.519  0.00  0.00    -0.196 NA
ATOM     26  C   LIG    1       24.621 -28.549   6.249  0.00  0.00    +0.165 A 
ATOM     27  C   LIG    1       25.581 -28.665   5.257  0.00  0.00    +0.181 A 
ATOM     28  F   LIG    1       26.045 -29.849   4.833  0.00  0.00    -0.200 F 
ATOM     29  C   LIG    1       25.980 -27.510   4.647  0.00  0.00    +0.156 A 
ATOM     30  N   LIG    1       25.478 -26.305   4.957  0.00  0.00    -0.220 NA
BRANCH  24  31
ATOM     31  N   LIG    1       23.931 -25.006   6.131  0.00  0.00    -0.283 N 
ATOM     32  H   LIG    1       23.016 -25.067   6.547  0.00  0.00    +0.155 HD
BRANCH  31  37
ATOM     33  C   LIG    1       25.047 -21.626   5.024  0.00  0.00    +0.167 A 
ATOM     34  C   LIG    1       25.880 -21.222   6.090  0.00  0.00    +0.204 A 
ATOM     35  C   LIG    1       25.996 -22.060   7.211  0.00  0.00    +0.167 A 
ATOM     36  C   LIG    1       25.375 -23.324   7.194  0.00  0.00    +0.073 A 
ATOM     37  C   LIG    1       24.556 -23.742   6.139  0.00  0.00    +0.041 A 
ATOM     38  C   LIG    1       24.412 -22.880   5.052  0.00  0.00    +0.073 A 
BRANCH  33  40
ATOM     39  C   LIG    1       23.727 -19.998   3.918  0.00  0.00    +0.277 C 
ATOM     40  O   LIG    1       24.929 -20.761   3.956  0.00  0.00    -0.491 OA
ENDBRANCH  33  40
BRANCH  34  41
ATOM     41  O   LIG    1       26.441 -19.969   5.966  0.00  0.00    -0.488 OA
ATOM     42  C   LIG    1       27.835 -19.905   5.685  0.00  0.00    +0.277 C 
ENDBRANCH  34  41
BRANCH  35  43
ATOM     43  O   LIG    1       26.712 -21.622   8.298  0.00  0.00    -0.491 OA
ATOM     44  C   LIG    1       26.095 -20.583   9.052  0.00  0.00    +0.277 C 
ENDBRANCH  35  43
ENDBRANCH  31  37
ENDBRANCH  24  31
ENDBRANCH   1  26
TORSDOF 12
ENDMDL
MODEL 6
REMARK VINA RESULT:      -8.6      3.663      9.805
REMARK  Name = *****
REMARK                            x       y       z     vdW  Elec       q    Type
REMARK                         _______ _______ _______ _____ _____    ______ ____
ROOT
ATOM      1  N   LIG    1       26.420 -27.196   6.572  0.00  0.00    -0.282 N 
ATOM      2  H   LIG    1       27.194 -27.128   7.219  0.00  0.00    +0.155 HD
ENDROOT
BRANCH   1   3
ATOM      3  C   LIG    1       25.973 -25.916   6.143  0.00  0.00    +0.126 A 
ATOM      4  N   LIG    1       26.237 -24.793   6.860  0.00  0.00    -0.213 NA
ATOM      5  C   LIG    1       25.713 -23.601   6.476  0.00  0.00    +0.174 A 
ATOM      6  N   LIG    1       26.002 -22.405   7.193  0.00  0.00    -0.225 N 
ATOM      7  C   LIG    1       25.354 -21.202   6.864  0.00  0.00    +0.266 C 
ATOM      8  C   LIG    1       24.111 -21.383   5.950  0.00  0.00    +0.181 C 
ATOM      9  O   LIG    1       24.261 -22.373   4.932  0.00  0.00    -0.474 OA
ATOM     10  C   LIG    1       23.821 -20.079   5.198  0.00  0.00    +0.066 C 
ATOM     11  C   LIG    1       22.903 -21.722   6.838  0.00  0.00    +0.066 C 
ATOM     12  O   LIG    1       25.663 -20.121   7.332  0.00  0.00    -0.271 OA
ATOM     13  C   LIG    1       24.884 -23.511   5.352  0.00  0.00    +0.162 A 
ATOM     14  C   LIG    1       24.688 -24.637   4.563  0.00  0.00    +0.052 A 
ATOM     15  C   LIG    1       25.236 -25.851   4.960  0.00  0.00    +0.047 A 
BRANCH   6  16
ATOM     16  C   LIG    1       27.178 -22.286   8.045  0.00  0.00    +0.289 C 
BRANCH  16  17
ATOM     17  O   LIG    1       28.342 -21.993   7.320  0.00  0.00    -0.267 OA
BRANCH  17  18
ATOM     18  P   LIG    1       29.323 -20.906   7.937  0.00  0.00    +0.474 P 
ATOM     19  O   LIG    1       30.242 -21.412   8.993  0.00  0.00    -0.228 OA
BRANCH  18  20
ATOM     20  O   LIG    1       28.418 -19.701   8.458  0.00  0.00    -0.303 OA
ATOM     21  H   LIG    1       28.899 -18.853   8.451  0.00  0.00    +0.222 HD
ENDBRANCH  18  20
BRANCH  18  22
ATOM     22  O   LIG    1       30.132 -20.247   6.730  0.00  0.00    -0.303 OA
ATOM     23  H   LIG    1       30.910 -19.767   7.069  0.00  0.00    +0.222 HD
ENDBRANCH  18  22
ENDBRANCH  17  18
ENDBRANCH  16  17
ENDBRANCH   6  16
ENDBRANCH   1   3
BRANCH   1  26
ATOM     24  C   LIG    1       24.690 -29.725   8.506  0.00  0.00    +0.221 A 
ATOM     25  N   LIG    1       25.555 -28.725   8.203  0.00  0.00    -0.196 NA
ATOM     26  C   LIG    1       25.585 -28.290   6.910  0.00  0.00    +0.165 A 
ATOM     27  C   LIG    1       24.868 -28.939   5.919  0.00  0.00    +0.181 A 
ATOM     28  F   LIG    1       25.024 -28.664   4.615  0.00  0.00    -0.200 F 
ATOM     29  C   LIG    1       24.048 -29.956   6.315  0.00  0.00    +0.156 A 
ATOM     30  N   LIG    1       23.926 -30.345   7.593  0.00  0.00    -0.220 NA
BRANCH  24  31
ATOM     31  N   LIG    1       24.619 -30.200   9.820  0.00  0.00    -0.283 N 
ATOM     32  H   LIG    1       25.460 -30.666  10.118  0.00  0.00    +0.155 HD
BRANCH  31  37
ATOM     33  C   LIG    1       23.132 -28.723  12.902  0.00  0.00    +0.167 A 
ATOM     34  C   LIG    1       21.829 -29.268  12.897  0.00  0.00    +0.204 A 
ATOM     35  C   LIG    1       21.437 -30.067  11.811  0.00  0.00    +0.167 A 
ATOM     36  C   LIG    1       22.381 -30.396  10.820  0.00  0.00    +0.073 A 
ATOM     37  C   LIG    1       23.679 -29.872  10.818  0.00  0.00    +0.041 A 
ATOM     38  C   LIG    1       24.042 -29.042  11.879  0.00  0.00    +0.073 A 
BRANCH  33  40
ATOM     39  C   LIG    1       23.896 -26.598  13.622  0.00  0.00    +0.277 C 
ATOM     40  O   LIG    1       23.469 -27.913  13.966  0.00  0.00    -0.491 OA
ENDBRANCH  33  40
BRANCH  34  41
ATOM     41  O   LIG    1       21.016 -28.878  13.938  0.00  0.00    -0.488 OA
ATOM     42  C   LIG    1       20.153 -27.768  13.711  0.00  0.00    +0.277 C 
ENDBRANCH  34  41
BRANCH  35  43
ATOM     43  O   LIG    1       20.137 -30.506  11.743  0.00  0.00    -0.491 OA
ATOM     44  C   LIG    1       19.705 -30.931  10.454  0.00  0.00    +0.277 C 
ENDBRANCH  35  43
ENDBRANCH  31  37
ENDBRANCH  24  31
ENDBRANCH   1  26
TORSDOF 12
ENDMDL
MODEL 7
REMARK VINA RESULT:      -8.5      3.652      9.906
REMARK  Name = *****
REMARK                            x       y       z     vdW  Elec       q    Type
REMARK                         _______ _______ _______ _____ _____    ______ ____
ROOT
ATOM      1  N   LIG    1       26.445 -27.178   6.583  0.00  0.00    -0.282 N 
ATOM      2  H   LIG    1       27.202 -27.105   7.251  0.00  0.00    +0.155 HD
ENDROOT
BRANCH   1   3
ATOM      3  C   LIG    1       25.994 -25.900   6.153  0.00  0.00    +0.126 A 
ATOM      4  N   LIG    1       26.245 -24.776   6.875  0.00  0.00    -0.213 NA
ATOM      5  C   LIG    1       25.716 -23.587   6.488  0.00  0.00    +0.174 A 
ATOM      6  N   LIG    1       25.991 -22.390   7.210  0.00  0.00    -0.225 N 
ATOM      7  C   LIG    1       25.338 -21.191   6.878  0.00  0.00    +0.266 C 
ATOM      8  C   LIG    1       24.105 -21.378   5.952  0.00  0.00    +0.181 C 
ATOM      9  O   LIG    1       24.270 -22.365   4.934  0.00  0.00    -0.474 OA
ATOM     10  C   LIG    1       23.813 -20.074   5.201  0.00  0.00    +0.066 C 
ATOM     11  C   LIG    1       22.891 -21.727   6.829  0.00  0.00    +0.066 C 
ATOM     12  O   LIG    1       25.636 -20.109   7.351  0.00  0.00    -0.271 OA
ATOM     13  C   LIG    1       24.897 -23.500   5.357  0.00  0.00    +0.162 A 
ATOM     14  C   LIG    1       24.715 -24.625   4.564  0.00  0.00    +0.052 A 
ATOM     15  C   LIG    1       25.268 -25.837   4.964  0.00  0.00    +0.047 A 
BRANCH   6  16
ATOM     16  C   LIG    1       27.158 -22.265   8.073  0.00  0.00    +0.289 C 
BRANCH  16  17
ATOM     17  O   LIG    1       28.336 -22.016   7.354  0.00  0.00    -0.267 OA
BRANCH  17  18
ATOM     18  P   LIG    1       29.314 -20.906   7.935  0.00  0.00    +0.474 P 
ATOM     19  O   LIG    1       30.258 -21.383   8.982  0.00  0.00    -0.228 OA
BRANCH  18  20
ATOM     20  O   LIG    1       28.405 -19.704   8.453  0.00  0.00    -0.303 OA
ATOM     21  H   LIG    1       27.457 -19.865   8.289  0.00  0.00    +0.222 HD
ENDBRANCH  18  20
BRANCH  18  22
ATOM     22  O   LIG    1       30.093 -20.258   6.703  0.00  0.00    -0.303 OA
ATOM     23  H   LIG    1       29.688 -19.406   6.459  0.00  0.00    +0.222 HD
ENDBRANCH  18  22
ENDBRANCH  17  18
ENDBRANCH  16  17
ENDBRANCH   6  16
ENDBRANCH   1   3
BRANCH   1  26
ATOM     24  C   LIG    1       24.728 -29.766   8.449  0.00  0.00    +0.221 A 
ATOM     25  N   LIG    1       25.588 -28.754   8.173  0.00  0.00    -0.196 NA
ATOM     26  C   LIG    1       25.615 -28.284   6.892  0.00  0.00    +0.165 A 
ATOM     27  C   LIG    1       24.900 -28.908   5.884  0.00  0.00    +0.181 A 
ATOM     28  F   LIG    1       25.054 -28.597   4.588  0.00  0.00    -0.200 F 
ATOM     29  C   LIG    1       24.084 -29.939   6.253  0.00  0.00    +0.156 A 
ATOM     30  N   LIG    1       23.966 -30.364   7.520  0.00  0.00    -0.220 NA
BRANCH  24  31
ATOM     31  N   LIG    1       24.659 -30.276   9.749  0.00  0.00    -0.283 N 
ATOM     32  H   LIG    1       25.477 -30.803  10.011  0.00  0.00    +0.155 HD
BRANCH  31  37
ATOM     33  C   LIG    1       21.521 -29.987  11.740  0.00  0.00    +0.167 A 
ATOM     34  C   LIG    1       21.919 -29.150  12.806  0.00  0.00    +0.204 A 
ATOM     35  C   LIG    1       23.264 -28.754  12.886  0.00  0.00    +0.167 A 
ATOM     36  C   LIG    1       24.149 -29.104  11.850  0.00  0.00    +0.073 A 
ATOM     37  C   LIG    1       23.766 -29.924  10.781  0.00  0.00    +0.041 A 
ATOM     38  C   LIG    1       22.438 -30.348  10.737  0.00  0.00    +0.073 A 
BRANCH  33  40
ATOM     39  C   LIG    1       19.777 -31.015  10.507  0.00  0.00    +0.277 C 
ATOM     40  O   LIG    1       20.201 -30.385  11.713  0.00  0.00    -0.491 OA
ENDBRANCH  33  40
BRANCH  34  41
ATOM     41  O   LIG    1       20.945 -28.871  13.739  0.00  0.00    -0.488 OA
ATOM     42  C   LIG    1       20.322 -27.592  13.668  0.00  0.00    +0.277 C 
ENDBRANCH  34  41
BRANCH  35  43
ATOM     43  O   LIG    1       23.681 -28.037  13.981  0.00  0.00    -0.491 OA
ATOM     44  C   LIG    1       24.160 -28.816  15.072  0.00  0.00    +0.277 C 
ENDBRANCH  35  43
ENDBRANCH  31  37
ENDBRANCH  24  31
ENDBRANCH   1  26
TORSDOF 12
ENDMDL
MODEL 8
REMARK VINA RESULT:      -8.4      4.573      7.085
REMARK  Name = *****
REMARK                            x       y       z     vdW  Elec       q    Type
REMARK                         _______ _______ _______ _____ _____    ______ ____
ROOT
ATOM      1  N   LIG    1       25.367 -30.046   9.075  0.00  0.00    -0.282 N 
ATOM      2  H   LIG    1       25.571 -31.033   8.989  0.00  0.00    +0.155 HD
ENDROOT
BRANCH   1   3
ATOM      3  C   LIG    1       24.706 -29.745  10.297  0.00  0.00    +0.126 A 
ATOM      4  N   LIG    1       23.395 -30.043  10.489  0.00  0.00    -0.213 NA
ATOM      5  C   LIG    1       22.769 -29.655  11.631  0.00  0.00    +0.174 A 
ATOM      6  N   LIG    1       21.404 -29.983  11.869  0.00  0.00    -0.225 N 
ATOM      7  C   LIG    1       20.731 -29.469  12.990  0.00  0.00    +0.266 C 
ATOM      8  C   LIG    1       21.473 -28.296  13.689  0.00  0.00    +0.181 C 
ATOM      9  O   LIG    1       22.891 -28.446  13.757  0.00  0.00    -0.474 OA
ATOM     10  C   LIG    1       21.013 -28.180  15.146  0.00  0.00    +0.066 C 
ATOM     11  C   LIG    1       21.119 -26.993  12.952  0.00  0.00    +0.066 C 
ATOM     12  O   LIG    1       19.619 -29.827  13.332  0.00  0.00    -0.271 OA
ATOM     13  C   LIG    1       23.453 -28.934  12.614  0.00  0.00    +0.162 A 
ATOM     14  C   LIG    1       24.816 -28.710  12.465  0.00  0.00    +0.052 A 
ATOM     15  C   LIG    1       25.450 -29.119  11.297  0.00  0.00    +0.047 A 
BRANCH   6  16
ATOM     16  C   LIG    1       20.749 -31.089  11.183  0.00  0.00    +0.289 C 
BRANCH  16  17
ATOM     17  O   LIG    1       19.898 -30.658  10.154  0.00  0.00    -0.267 OA
BRANCH  17  18
ATOM     18  P   LIG    1       18.437 -31.281  10.117  0.00  0.00    +0.474 P 
ATOM     19  O   LIG    1       18.372 -32.717   9.731  0.00  0.00    -0.228 OA
BRANCH  18  20
ATOM     20  O   LIG    1       17.559 -30.362   9.154  0.00  0.00    -0.303 OA
ATOM     21  H   LIG    1       17.989 -30.223   8.290  0.00  0.00    +0.222 HD
ENDBRANCH  18  20
BRANCH  18  22
ATOM     22  O   LIG    1       17.772 -31.033  11.546  0.00  0.00    -0.303 OA
ATOM     23  H   LIG    1       18.444 -31.110  12.248  0.00  0.00    +0.222 HD
ENDBRANCH  18  22
ENDBRANCH  17  18
ENDBRANCH  16  17
ENDBRANCH   6  16
ENDBRANCH   1   3
BRANCH   1  26
ATOM     24  C   LIG    1       25.227 -27.771   6.258  0.00  0.00    +0.221 A 
ATOM     25  N   LIG    1       25.488 -28.239   7.504  0.00  0.00    -0.196 NA
ATOM     26  C   LIG    1       25.048 -29.494   7.809  0.00  0.00    +0.165 A 
ATOM     27  C   LIG    1       24.243 -30.204   6.934  0.00  0.00    +0.181 A 
ATOM     28  F   LIG    1       23.635 -31.349   7.277  0.00  0.00    -0.200 F 
ATOM     29  C   LIG    1       24.009 -29.638   5.713  0.00  0.00    +0.156 A 
ATOM     30  N   LIG    1       24.506 -28.446   5.349  0.00  0.00    -0.220 NA
BRANCH  24  31
ATOM     31  N   LIG    1       25.665 -26.493   5.896  0.00  0.00    -0.283 N 
ATOM     32  H   LIG    1       26.220 -26.488   5.055  0.00  0.00    +0.155 HD
BRANCH  31  37
ATOM     33  C   LIG    1       25.676 -23.112   7.464  0.00  0.00    +0.167 A 
ATOM     34  C   LIG    1       24.310 -22.759   7.425  0.00  0.00    +0.204 A 
ATOM     35  C   LIG    1       23.405 -23.632   6.798  0.00  0.00    +0.167 A 
ATOM     36  C   LIG    1       23.862 -24.878   6.330  0.00  0.00    +0.073 A 
ATOM     37  C   LIG    1       25.212 -25.246   6.372  0.00  0.00    +0.041 A 
ATOM     38  C   LIG    1       26.108 -24.350   6.956  0.00  0.00    +0.073 A 
BRANCH  33  40
ATOM     39  C   LIG    1       27.480 -21.601   7.177  0.00  0.00    +0.277 C 
ATOM     40  O   LIG    1       26.540 -22.214   8.055  0.00  0.00    -0.491 OA
ENDBRANCH  33  40
BRANCH  34  41
ATOM     41  O   LIG    1       24.000 -21.518   7.936  0.00  0.00    -0.488 OA
ATOM     42  C   LIG    1       23.903 -20.438   7.013  0.00  0.00    +0.277 C 
ENDBRANCH  34  41
BRANCH  35  43
ATOM     43  O   LIG    1       22.096 -23.242   6.655  0.00  0.00    -0.491 OA
ATOM     44  C   LIG    1       21.834 -22.384   5.549  0.00  0.00    +0.277 C 
ENDBRANCH  35  43
ENDBRANCH  31  37
ENDBRANCH  24  31
ENDBRANCH   1  26
TORSDOF 12
ENDMDL
MODEL 9
REMARK VINA RESULT:      -8.2      2.136      4.180
REMARK  Name = *****
REMARK                            x       y       z     vdW  Elec       q    Type
REMARK                         _______ _______ _______ _____ _____    ______ ____
ROOT
ATOM      1  N   LIG    1       26.265 -26.292   6.540  0.00  0.00    -0.282 N 
ATOM      2  H   LIG    1       26.467 -26.501   5.571  0.00  0.00    +0.155 HD
ENDROOT
BRANCH   1   3
ATOM      3  C   LIG    1       26.075 -27.474   7.307  0.00  0.00    +0.126 A 
ATOM      4  N   LIG    1       25.399 -28.544   6.811  0.00  0.00    -0.213 NA
ATOM      5  C   LIG    1       25.150 -29.618   7.604  0.00  0.00    +0.174 A 
ATOM      6  N   LIG    1       24.472 -30.764   7.097  0.00  0.00    -0.225 N 
ATOM      7  C   LIG    1       24.107 -31.814   7.956  0.00  0.00    +0.266 C 
ATOM      8  C   LIG    1       24.186 -31.453   9.465  0.00  0.00    +0.181 C 
ATOM      9  O   LIG    1       25.303 -30.640   9.824  0.00  0.00    -0.474 OA
ATOM     10  C   LIG    1       24.336 -32.729  10.301  0.00  0.00    +0.066 C 
ATOM     11  C   LIG    1       22.877 -30.751   9.863  0.00  0.00    +0.066 C 
ATOM     12  O   LIG    1       23.665 -32.880   7.567  0.00  0.00    -0.271 OA
ATOM     13  C   LIG    1       25.567 -29.637   8.939  0.00  0.00    +0.162 A 
ATOM     14  C   LIG    1       26.339 -28.589   9.422  0.00  0.00    +0.052 A 
ATOM     15  C   LIG    1       26.596 -27.497   8.601  0.00  0.00    +0.047 A 
BRANCH   6  16
ATOM     16  C   LIG    1       24.419 -31.056   5.671  0.00  0.00    +0.289 C 
BRANCH  16  17
ATOM     17  O   LIG    1       25.670 -31.415   5.147  0.00  0.00    -0.267 OA
BRANCH  17  18
ATOM     18  P   LIG    1       25.745 -32.773   4.326  0.00  0.00    +0.474 P 
ATOM     19  O   LIG    1       27.082 -33.427   4.310  0.00  0.00    -0.228 OA
BRANCH  18  20
ATOM     20  O   LIG    1       25.213 -32.463   2.856  0.00  0.00    -0.303 OA
ATOM     21  H   LIG    1       25.392 -33.196   2.239  0.00  0.00    +0.222 HD
ENDBRANCH  18  20
BRANCH  18  22
ATOM     22  O   LIG    1       24.628 -33.751   4.909  0.00  0.00    -0.303 OA
ATOM     23  H   LIG    1       24.137 -34.174   4.181  0.00  0.00    +0.222 HD
ENDBRANCH  18  22
ENDBRANCH  17  18
ENDBRANCH  16  17
ENDBRANCH   6  16
ENDBRANCH   1   3
BRANCH   1  26
ATOM     24  C   LIG    1       25.319 -22.851   7.169  0.00  0.00    +0.221 A 
ATOM     25  N   LIG    1       26.067 -23.983   7.153  0.00  0.00    -0.196 NA
ATOM     26  C   LIG    1       25.491 -25.110   6.643  0.00  0.00    +0.165 A 
ATOM     27  C   LIG    1       24.152 -25.134   6.290  0.00  0.00    +0.181 A 
ATOM     28  F   LIG    1       23.508 -26.267   5.972  0.00  0.00    -0.200 F 
ATOM     29  C   LIG    1       23.472 -23.953   6.369  0.00  0.00    +0.156 A 
ATOM     30  N   LIG    1       24.036 -22.806   6.778  0.00  0.00    -0.220 NA
BRANCH  24  31
ATOM     31  N   LIG    1       25.869 -21.670   7.675  0.00  0.00    -0.283 N 
ATOM     32  H   LIG    1       25.296 -21.238   8.383  0.00  0.00    +0.155 HD
BRANCH  31  37
ATOM     33  C   LIG    1       28.857 -19.962   6.243  0.00  0.00    +0.167 A 
ATOM     34  C   LIG    1       29.862 -20.278   7.183  0.00  0.00    +0.204 A 
ATOM     35  C   LIG    1       29.506 -21.000   8.334  0.00  0.00    +0.167 A 
ATOM     36  C   LIG    1       28.191 -21.484   8.465  0.00  0.00    +0.073 A 
ATOM     37  C   LIG    1       27.187 -21.187   7.536  0.00  0.00    +0.041 A 
ATOM     38  C   LIG    1       27.543 -20.431   6.419  0.00  0.00    +0.073 A 
BRANCH  33  40
ATOM     39  C   LIG    1       28.851 -17.850   5.168  0.00  0.00    +0.277 C 
ATOM     40  O   LIG    1       29.236 -19.221   5.143  0.00  0.00    -0.491 OA
ENDBRANCH  33  40
BRANCH  34  41
ATOM     41  O   LIG    1       31.109 -19.756   6.920  0.00  0.00    -0.488 OA
ATOM     42  C   LIG    1       31.554 -18.684   7.745  0.00  0.00    +0.277 C 
ENDBRANCH  34  41
BRANCH  35  43
ATOM     43  O   LIG    1       30.453 -21.212   9.306  0.00  0.00    -0.491 OA
ATOM     44  C   LIG    1       31.352 -22.287   9.053  0.00  0.00    +0.277 C 
ENDBRANCH  35  43
ENDBRANCH  31  37
ENDBRANCH  24  31
ENDBRANCH   1  26
TORSDOF 12
ENDMDL
