MODEL 1
REMARK VINA RESULT:      15.2      0.000      0.000
REMARK  Name = *****
REMARK                            x       y       z     vdW  Elec       q    Type
REMARK                         _______ _______ _______ _____ _____    ______ ____
ROOT
ATOM      1  C   LIG    1       27.893 -15.789   5.153  0.00  0.00    +0.013 C 
ATOM      2  C   LIG    1       26.995 -15.465   4.206  0.00  0.00    -0.036 C 
ATOM      3  C   LIG    1       25.806 -16.312   3.746  0.00  0.00    +0.085 C 
ATOM      4  C   LIG    1       24.525 -15.520   3.849  0.00  0.00    +0.050 C 
ATOM      5  C   LIG    1       23.343 -16.094   4.141  0.00  0.00    +0.141 C 
ATOM      6  C   LIG    1       23.193 -17.571   4.372  0.00  0.00    +0.192 C 
ATOM      7  C   LIG    1       24.398 -18.460   3.977  0.00  0.00    +0.090 C 
ATOM      8  C   LIG    1       24.110 -19.899   4.557  0.00  0.00    +0.132 C 
ATOM      9  C   LIG    1       22.593 -20.277   4.541  0.00  0.00    +0.127 C 
ATOM     10  C   LIG    1       21.599 -19.506   4.039  0.00  0.00    +0.121 C 
ATOM     11  C   LIG    1       22.069 -18.193   3.523  0.00  0.00    +0.211 C 
ATOM     12  O   LIG    1       21.741 -17.773   2.417  0.00  0.00    -0.288 OA
ATOM     13  C   LIG    1       24.592 -14.032   3.693  0.00  0.00    +0.197 C 
ATOM     14  O   LIG    1       23.609 -13.341   3.952  0.00  0.00    -0.287 OA
ATOM     15  C   LIG    1       25.883 -13.445   3.257  0.00  0.00    +0.071 A 
ATOM     16  C   LIG    1       25.937 -12.198   2.614  0.00  0.00    +0.128 A 
ATOM     17  C   LIG    1       27.162 -11.646   2.243  0.00  0.00    +0.046 A 
ATOM     18  C   LIG    1       28.340 -12.342   2.505  0.00  0.00    +0.004 A 
ATOM     19  C   LIG    1       28.295 -13.583   3.143  0.00  0.00    +0.009 A 
ATOM     20  C   LIG    1       25.691 -17.735   4.415  0.00  0.00    +0.135 C 
ATOM     21  C   LIG    1       27.068 -14.144   3.536  0.00  0.00    -0.007 A 
ENDROOT
BRANCH  10  22
ATOM     22  C   LIG    1       20.162 -19.864   3.958  0.00  0.00    +0.248 C 
ATOM     23  O   LIG    1       19.704 -20.917   4.398  0.00  0.00    -0.270 OA
ATOM     24  N   LIG    1       19.350 -18.990   3.312  0.00  0.00    -0.325 N 
ATOM     25  H   LIG    1       19.701 -18.089   2.999  0.00  0.00    +0.145 HD
ATOM     26  H   LIG    1       18.364 -19.195   3.258  0.00  0.00    +0.145 HD
ENDBRANCH  10  22
BRANCH   8  27
ATOM     27  N   LIG    1       24.798 -21.108   4.019  0.00  0.00    -0.298 NA
ATOM     28  C   LIG    1       25.073 -21.077   2.581  0.00  0.00    +0.105 C 
ATOM     29  C   LIG    1       25.976 -21.544   4.757  0.00  0.00    +0.105 C 
ENDBRANCH   8  27
BRANCH   5  30
ATOM     30  O   LIG    1       22.185 -15.376   4.405  0.00  0.00    -0.507 OA
ATOM     31  H   LIG    1       22.094 -14.667   3.722  0.00  0.00    +0.292 HD
ENDBRANCH   5  30
BRANCH   6  32
ATOM     32  O   LIG    1       22.941 -17.675   5.778  0.00  0.00    -0.373 OA
ATOM     33  H   LIG    1       22.357 -16.917   5.994  0.00  0.00    +0.211 HD
ENDBRANCH   6  32
BRANCH   9  34
ATOM     34  O   LIG    1       22.343 -21.556   5.037  0.00  0.00    -0.509 OA
ATOM     35  H   LIG    1       22.059 -22.069   4.244  0.00  0.00    +0.292 HD
ENDBRANCH   9  34
BRANCH  16  36
ATOM     36  O   LIG    1       24.792 -11.521   2.305  0.00  0.00    -0.506 OA
ATOM     37  H   LIG    1       24.669 -11.492   1.343  0.00  0.00    +0.292 HD
ENDBRANCH  16  36
BRANCH  20  38
ATOM     38  O   LIG    1       26.844 -18.497   4.056  0.00  0.00    -0.390 OA
ATOM     39  H   LIG    1       27.619 -17.909   4.039  0.00  0.00    +0.210 HD
ENDBRANCH  20  38
TORSDOF 7
ENDMDL
MODEL 2
REMARK VINA RESULT:      16.6      3.097      7.871
REMARK  Name = *****
REMARK                            x       y       z     vdW  Elec       q    Type
REMARK                         _______ _______ _______ _____ _____    ______ ____
ROOT
ATOM      1  C   LIG    1       22.053 -17.612   6.128  0.00  0.00    +0.013 C 
ATOM      2  C   LIG    1       22.658 -17.820   4.946  0.00  0.00    -0.036 C 
ATOM      3  C   LIG    1       23.614 -16.864   4.228  0.00  0.00    +0.085 C 
ATOM      4  C   LIG    1       24.914 -17.562   3.910  0.00  0.00    +0.050 C 
ATOM      5  C   LIG    1       26.095 -16.917   3.894  0.00  0.00    +0.141 C 
ATOM      6  C   LIG    1       26.220 -15.446   4.175  0.00  0.00    +0.192 C 
ATOM      7  C   LIG    1       24.904 -14.631   4.200  0.00  0.00    +0.090 C 
ATOM      8  C   LIG    1       25.263 -13.206   4.773  0.00  0.00    +0.132 C 
ATOM      9  C   LIG    1       26.688 -12.715   4.356  0.00  0.00    +0.127 C 
ATOM     10  C   LIG    1       27.538 -13.383   3.541  0.00  0.00    +0.121 C 
ATOM     11  C   LIG    1       27.016 -14.701   3.089  0.00  0.00    +0.211 C 
ATOM     12  O   LIG    1       27.037 -15.039   1.909  0.00  0.00    -0.288 OA
ATOM     13  C   LIG    1       24.891 -19.041   3.676  0.00  0.00    +0.197 C 
ATOM     14  O   LIG    1       25.944 -19.670   3.597  0.00  0.00    -0.287 OA
ATOM     15  C   LIG    1       23.565 -19.701   3.583  0.00  0.00    +0.071 A 
ATOM     16  C   LIG    1       23.400 -20.914   2.897  0.00  0.00    +0.128 A 
ATOM     17  C   LIG    1       22.153 -21.537   2.850  0.00  0.00    +0.046 A 
ATOM     18  C   LIG    1       21.062 -20.945   3.482  0.00  0.00    +0.004 A 
ATOM     19  C   LIG    1       21.217 -19.737   4.166  0.00  0.00    +0.009 A 
ATOM     20  C   LIG    1       23.834 -15.472   4.934  0.00  0.00    +0.135 C 
ATOM     21  C   LIG    1       22.471 -19.107   4.234  0.00  0.00    -0.007 A 
ENDROOT
BRANCH  10  22
ATOM     22  C   LIG    1       28.868 -12.915   3.081  0.00  0.00    +0.248 C 
ATOM     23  O   LIG    1       29.444 -13.383   2.100  0.00  0.00    -0.270 OA
ATOM     24  N   LIG    1       29.475 -11.963   3.832  0.00  0.00    -0.325 N 
ATOM     25  H   LIG    1       28.986 -11.523   4.607  0.00  0.00    +0.145 HD
ATOM     26  H   LIG    1       30.371 -11.609   3.534  0.00  0.00    +0.145 HD
ENDBRANCH  10  22
BRANCH   8  27
ATOM     27  N   LIG    1       24.382 -12.026   4.537  0.00  0.00    -0.298 NA
ATOM     28  C   LIG    1       23.730 -11.992   3.227  0.00  0.00    +0.105 C 
ATOM     29  C   LIG    1       23.424 -11.733   5.595  0.00  0.00    +0.105 C 
ENDBRANCH   8  27
BRANCH   5  30
ATOM     30  O   LIG    1       27.320 -17.559   3.769  0.00  0.00    -0.507 OA
ATOM     31  H   LIG    1       28.037 -16.902   3.939  0.00  0.00    +0.292 HD
ENDBRANCH   5  30
BRANCH   6  32
ATOM     32  O   LIG    1       26.859 -15.394   5.456  0.00  0.00    -0.373 OA
ATOM     33  H   LIG    1       27.746 -15.012   5.290  0.00  0.00    +0.211 HD
ENDBRANCH   6  32
BRANCH   9  34
ATOM     34  O   LIG    1       26.996 -11.447   4.848  0.00  0.00    -0.509 OA
ATOM     35  H   LIG    1       26.415 -10.842   4.330  0.00  0.00    +0.292 HD
ENDBRANCH   9  34
BRANCH  16  36
ATOM     36  O   LIG    1       24.445 -21.487   2.230  0.00  0.00    -0.506 OA
ATOM     37  H   LIG    1       24.279 -22.434   2.096  0.00  0.00    +0.292 HD
ENDBRANCH  16  36
BRANCH  20  38
ATOM     38  O   LIG    1       22.585 -14.781   4.971  0.00  0.00    -0.390 OA
ATOM     39  H   LIG    1       22.063 -15.030   4.189  0.00  0.00    +0.210 HD
ENDBRANCH  20  38
TORSDOF 7
ENDMDL
