MODEL 1
REMARK VINA RESULT:      -3.3      0.000      0.000
REMARK  Name = *****
REMARK                            x       y       z     vdW  Elec       q    Type
REMARK                         _______ _______ _______ _____ _____    ______ ____
ROOT
ATOM      1  C   LIG    1       22.643 -19.146   4.883  0.00  0.00    +0.044 C 
ATOM      2  C   LIG    1       24.098 -19.275   5.352  0.00  0.00    +0.006 C 
ATOM      3  C   LIG    1       24.850 -19.801   4.131  0.00  0.00    -0.001 C 
ATOM      4  C   LIG    1       26.095 -20.479   4.686  0.00  0.00    +0.034 C 
ATOM      5  C   LIG    1       25.775 -20.748   6.138  0.00  0.00    -0.073 C 
ATOM      6  C   LIG    1       26.644 -21.198   7.062  0.00  0.00    -0.027 C 
ATOM      7  C   LIG    1       23.877 -20.761   3.453  0.00  0.00    +0.036 C 
ATOM      8  C   LIG    1       24.356 -20.330   6.433  0.00  0.00    +0.035 C 
ATOM      9  C   LIG    1       22.484 -20.206   3.759  0.00  0.00    +0.122 C 
ENDROOT
BRANCH   1  11
ATOM     10  C   LIG    1       22.947 -16.639   4.867  0.00  0.00    +0.000 C 
ATOM     11  C   LIG    1       22.412 -17.752   4.336  0.00  0.00    -0.022 C 
BRANCH  10  12
ATOM     12  C   LIG    1       22.780 -15.225   4.357  0.00  0.00    +0.141 C 
BRANCH  12  13
ATOM     13  C   LIG    1       24.013 -14.722   3.566  0.00  0.00    +0.030 C 
ATOM     14  C   LIG    1       25.173 -15.735   3.620  0.00  0.00    +0.011 C 
BRANCH  13  15
ATOM     15  C   LIG    1       24.484 -13.324   4.022  0.00  0.00    +0.095 C 
BRANCH  15  18
ATOM     16  C   LIG    1       28.594 -13.230   3.702  0.00  0.00    +0.106 C 
ATOM     17  C   LIG    1       27.147 -13.170   3.871  0.00  0.00    -0.106 C 
ATOM     18  C   LIG    1       25.945 -13.190   3.970  0.00  0.00    -0.102 C 
ENDBRANCH  15  18
ENDBRANCH  13  15
ENDBRANCH  12  13
BRANCH  12  19
ATOM     19  O   LIG    1       22.501 -14.354   5.453  0.00  0.00    -0.388 OA
ATOM     20  H   LIG    1       23.347 -14.067   5.828  0.00  0.00    +0.210 HD
ENDBRANCH  12  19
ENDBRANCH  10  12
ENDBRANCH   1  11
BRANCH   9  21
ATOM     21  O   LIG    1       21.624 -21.262   4.176  0.00  0.00    -0.391 OA
ATOM     22  H   LIG    1       20.717 -21.027   3.920  0.00  0.00    +0.210 HD
ENDBRANCH   9  21
BRANCH   6  23
ATOM     23  C   LIG    1       28.082 -21.572   6.818  0.00  0.00    +0.028 C 
BRANCH  23  24
ATOM     24  C   LIG    1       29.058 -20.387   6.859  0.00  0.00    +0.015 C 
BRANCH  24  25
ATOM     25  C   LIG    1       29.341 -19.691   5.528  0.00  0.00    +0.121 C 
BRANCH  25  26
ATOM     26  C   LIG    1       29.070 -18.207   5.508  0.00  0.00    +0.305 C 
ATOM     27  O   LIG    1       29.461 -17.426   6.361  0.00  0.00    -0.251 OA
BRANCH  26  28
ATOM     28  O   LIG    1       28.405 -17.791   4.406  0.00  0.00    -0.481 OA
ATOM     29  H   LIG    1       27.993 -16.914   4.498  0.00  0.00    +0.295 HD
ENDBRANCH  26  28
ENDBRANCH  25  26
ENDBRANCH  24  25
ENDBRANCH  23  24
ENDBRANCH   6  23
TORSDOF 12
ENDMDL
