MODEL 1
REMARK VINA RESULT:      -8.3      0.000      0.000
REMARK  Name = *****
REMARK                            x       y       z     vdW  Elec       q    Type
REMARK                         _______ _______ _______ _____ _____    ______ ____
ROOT
ATOM      1  C   LIG    1       28.070 -21.177   6.947  0.00  0.00    +0.211 C 
ENDROOT
BRANCH   1   2
ATOM      2  C   LIG    1       29.327 -20.897   7.761  0.00  0.00    +0.030 A 
ATOM      3  S   LIG    1       29.948 -19.300   7.876  0.00  0.00    -0.098 S 
ATOM      4  C   LIG    1       31.264 -19.804   8.845  0.00  0.00    +0.045 A 
ATOM      5  C   LIG    1       31.236 -21.158   9.091  0.00  0.00    +0.008 A 
ATOM      6  C   LIG    1       30.115 -21.786   8.476  0.00  0.00    +0.015 A 
ENDBRANCH   1   2
BRANCH   1   7
ATOM      7  C   LIG    1       27.467 -19.847   6.441  0.00  0.00    +0.065 C 
BRANCH   7   8
ATOM      8  C   LIG    1       27.382 -19.738   4.913  0.00  0.00    +0.084 C 
BRANCH   8  10
ATOM      9  C   LIG    1       25.204 -19.498   3.898  0.00  0.00    +0.101 C 
ATOM     10  N   LIG    1       26.189 -20.442   4.421  0.00  0.00    -0.319 NA
ATOM     11  H   LIG    1       26.464 -21.074   3.668  0.00  0.00    +0.122 HD
ENDBRANCH   8  10
ENDBRANCH   7   8
ENDBRANCH   1   7
BRANCH   1  12
ATOM     12  O   LIG    1       27.186 -21.843   7.858  0.00  0.00    -0.483 OA
BRANCH  12  13
ATOM     13  C   LIG    1       25.833 -21.865   7.617  0.00  0.00    +0.129 A 
ATOM     14  C   LIG    1       25.312 -23.095   7.142  0.00  0.00    +0.024 A 
ATOM     15  C   LIG    1       23.912 -23.214   6.943  0.00  0.00    -0.014 A 
ATOM     16  C   LIG    1       23.369 -24.438   6.518  0.00  0.00    +0.008 A 
ATOM     17  C   LIG    1       24.186 -25.539   6.269  0.00  0.00    +0.001 A 
ATOM     18  C   LIG    1       25.562 -25.428   6.436  0.00  0.00    +0.001 A 
ATOM     19  C   LIG    1       23.084 -22.107   7.174  0.00  0.00    +0.009 A 
ATOM     20  C   LIG    1       23.619 -20.890   7.580  0.00  0.00    +0.004 A 
ATOM     21  C   LIG    1       26.113 -24.222   6.871  0.00  0.00    +0.012 A 
ATOM     22  C   LIG    1       24.993 -20.766   7.800  0.00  0.00    +0.046 A 
ENDBRANCH  12  13
ENDBRANCH   1  12
TORSDOF 6
ENDMDL
MODEL 2
REMARK VINA RESULT:      -7.8      0.915      1.157
REMARK  Name = *****
REMARK                            x       y       z     vdW  Elec       q    Type
REMARK                         _______ _______ _______ _____ _____    ______ ____
ROOT
ATOM      1  C   LIG    1       27.803 -20.916   6.594  0.00  0.00    +0.211 C 
ENDROOT
BRANCH   1   2
ATOM      2  C   LIG    1       29.034 -20.330   7.276  0.00  0.00    +0.030 A 
ATOM      3  S   LIG    1       30.004 -21.307   8.302  0.00  0.00    -0.098 S 
ATOM      4  C   LIG    1       31.060 -20.010   8.659  0.00  0.00    +0.045 A 
ATOM      5  C   LIG    1       30.697 -18.853   8.009  0.00  0.00    +0.008 A 
ATOM      6  C   LIG    1       29.536 -19.040   7.203  0.00  0.00    +0.015 A 
ENDBRANCH   1   2
BRANCH   1   7
ATOM      7  C   LIG    1       27.101 -19.825   5.755  0.00  0.00    +0.065 C 
BRANCH   7   8
ATOM      8  C   LIG    1       26.269 -20.372   4.587  0.00  0.00    +0.084 C 
BRANCH   8  10
ATOM      9  C   LIG    1       24.203 -19.481   3.710  0.00  0.00    +0.101 C 
ATOM     10  N   LIG    1       25.641 -19.265   3.851  0.00  0.00    -0.319 NA
ATOM     11  H   LIG    1       25.791 -18.397   4.367  0.00  0.00    +0.122 HD
ENDBRANCH   8  10
ENDBRANCH   7   8
ENDBRANCH   1   7
BRANCH   1  12
ATOM     12  O   LIG    1       26.972 -21.370   7.670  0.00  0.00    -0.483 OA
BRANCH  12  13
ATOM     13  C   LIG    1       25.632 -21.595   7.461  0.00  0.00    +0.129 A 
ATOM     14  C   LIG    1       25.283 -22.907   7.055  0.00  0.00    +0.024 A 
ATOM     15  C   LIG    1       23.911 -23.232   6.894  0.00  0.00    -0.014 A 
ATOM     16  C   LIG    1       23.541 -24.540   6.538  0.00  0.00    +0.008 A 
ATOM     17  C   LIG    1       24.501 -25.525   6.322  0.00  0.00    +0.001 A 
ATOM     18  C   LIG    1       25.850 -25.214   6.452  0.00  0.00    +0.001 A 
ATOM     19  C   LIG    1       22.938 -22.243   7.093  0.00  0.00    +0.009 A 
ATOM     20  C   LIG    1       23.302 -20.944   7.430  0.00  0.00    +0.004 A 
ATOM     21  C   LIG    1       26.232 -23.923   6.819  0.00  0.00    +0.012 A 
ATOM     22  C   LIG    1       24.648 -20.617   7.612  0.00  0.00    +0.046 A 
ENDBRANCH  12  13
ENDBRANCH   1  12
TORSDOF 6
ENDMDL
MODEL 3
REMARK VINA RESULT:      -7.7      2.255      6.223
REMARK  Name = *****
REMARK                            x       y       z     vdW  Elec       q    Type
REMARK                         _______ _______ _______ _____ _____    ______ ____
ROOT
ATOM      1  C   LIG    1       26.035 -22.459   6.278  0.00  0.00    +0.211 C 
ENDROOT
BRANCH   1   2
ATOM      2  C   LIG    1       24.794 -21.609   6.031  0.00  0.00    +0.030 A 
ATOM      3  S   LIG    1       24.244 -21.325   4.429  0.00  0.00    -0.098 S 
ATOM      4  C   LIG    1       22.947 -20.350   4.971  0.00  0.00    +0.045 A 
ATOM      5  C   LIG    1       22.918 -20.244   6.342  0.00  0.00    +0.008 A 
ATOM      6  C   LIG    1       23.975 -20.978   6.954  0.00  0.00    +0.015 A 
ENDBRANCH   1   2
BRANCH   1   7
ATOM      7  C   LIG    1       25.630 -23.802   6.926  0.00  0.00    +0.065 C 
BRANCH   7   8
ATOM      8  C   LIG    1       24.504 -24.539   6.188  0.00  0.00    +0.084 C 
BRANCH   8  10
ATOM      9  C   LIG    1       25.532 -26.282   4.872  0.00  0.00    +0.101 C 
ATOM     10  N   LIG    1       24.955 -24.941   4.848  0.00  0.00    -0.319 NA
ATOM     11  H   LIG    1       24.154 -24.942   4.216  0.00  0.00    +0.122 HD
ENDBRANCH   8  10
ENDBRANCH   7   8
ENDBRANCH   1   7
BRANCH   1  12
ATOM     12  O   LIG    1       26.845 -21.671   7.161  0.00  0.00    -0.483 OA
BRANCH  12  13
ATOM     13  C   LIG    1       27.656 -20.682   6.656  0.00  0.00    +0.129 A 
ATOM     14  C   LIG    1       28.935 -20.567   7.256  0.00  0.00    +0.024 A 
ATOM     15  C   LIG    1       29.853 -19.619   6.736  0.00  0.00    -0.014 A 
ATOM     16  C   LIG    1       31.142 -19.522   7.285  0.00  0.00    +0.008 A 
ATOM     17  C   LIG    1       31.533 -20.331   8.349  0.00  0.00    +0.001 A 
ATOM     18  C   LIG    1       30.636 -21.247   8.884  0.00  0.00    +0.001 A 
ATOM     19  C   LIG    1       29.463 -18.788   5.676  0.00  0.00    +0.009 A 
ATOM     20  C   LIG    1       28.183 -18.871   5.140  0.00  0.00    +0.004 A 
ATOM     21  C   LIG    1       29.356 -21.365   8.340  0.00  0.00    +0.012 A 
ATOM     22  C   LIG    1       27.276 -19.815   5.630  0.00  0.00    +0.046 A 
ENDBRANCH  12  13
ENDBRANCH   1  12
TORSDOF 6
ENDMDL
MODEL 4
REMARK VINA RESULT:      -7.4      2.160      5.980
REMARK  Name = *****
REMARK                            x       y       z     vdW  Elec       q    Type
REMARK                         _______ _______ _______ _____ _____    ______ ____
ROOT
ATOM      1  C   LIG    1       25.409 -20.771   5.886  0.00  0.00    +0.211 C 
ENDROOT
BRANCH   1   2
ATOM      2  C   LIG    1       24.559 -21.985   6.244  0.00  0.00    +0.030 A 
ATOM      3  S   LIG    1       25.191 -23.571   6.057  0.00  0.00    -0.098 S 
ATOM      4  C   LIG    1       23.735 -24.291   6.593  0.00  0.00    +0.045 A 
ATOM      5  C   LIG    1       22.783 -23.353   6.919  0.00  0.00    +0.008 A 
ATOM      6  C   LIG    1       23.261 -22.024   6.728  0.00  0.00    +0.015 A 
ENDBRANCH   1   2
BRANCH   1   7
ATOM      7  C   LIG    1       25.319 -20.499   4.367  0.00  0.00    +0.065 C 
BRANCH   7   8
ATOM      8  C   LIG    1       23.889 -20.285   3.853  0.00  0.00    +0.084 C 
BRANCH   8  10
ATOM      9  C   LIG    1       22.288 -18.569   4.416  0.00  0.00    +0.101 C 
ATOM     10  N   LIG    1       23.580 -18.849   3.797  0.00  0.00    -0.319 NA
ATOM     11  H   LIG    1       24.302 -18.336   4.304  0.00  0.00    +0.122 HD
ENDBRANCH   8  10
ENDBRANCH   7   8
ENDBRANCH   1   7
BRANCH   1  12
ATOM     12  O   LIG    1       26.740 -21.130   6.279  0.00  0.00    -0.483 OA
BRANCH  12  13
ATOM     13  C   LIG    1       27.765 -20.221   6.159  0.00  0.00    +0.129 A 
ATOM     14  C   LIG    1       28.873 -20.425   7.019  0.00  0.00    +0.024 A 
ATOM     15  C   LIG    1       30.000 -19.571   6.898  0.00  0.00    -0.014 A 
ATOM     16  C   LIG    1       31.128 -19.784   7.707  0.00  0.00    +0.008 A 
ATOM     17  C   LIG    1       31.155 -20.814   8.645  0.00  0.00    +0.001 A 
ATOM     18  C   LIG    1       30.049 -21.643   8.791  0.00  0.00    +0.001 A 
ATOM     19  C   LIG    1       29.975 -18.521   5.969  0.00  0.00    +0.009 A 
ATOM     20  C   LIG    1       28.854 -18.297   5.177  0.00  0.00    +0.004 A 
ATOM     21  C   LIG    1       28.926 -21.451   7.984  0.00  0.00    +0.012 A 
ATOM     22  C   LIG    1       27.747 -19.144   5.272  0.00  0.00    +0.046 A 
ENDBRANCH  12  13
ENDBRANCH   1  12
TORSDOF 6
ENDMDL
MODEL 5
REMARK VINA RESULT:      -7.4      2.271      4.906
REMARK  Name = *****
REMARK                            x       y       z     vdW  Elec       q    Type
REMARK                         _______ _______ _______ _____ _____    ______ ____
ROOT
ATOM      1  C   LIG    1       25.096 -22.769   6.858  0.00  0.00    +0.211 C 
ENDROOT
BRANCH   1   2
ATOM      2  C   LIG    1       26.269 -21.921   7.337  0.00  0.00    +0.030 A 
ATOM      3  S   LIG    1       26.000 -20.575   8.370  0.00  0.00    -0.098 S 
ATOM      4  C   LIG    1       27.664 -20.181   8.408  0.00  0.00    +0.045 A 
ATOM      5  C   LIG    1       28.420 -21.055   7.660  0.00  0.00    +0.008 A 
ATOM      6  C   LIG    1       27.617 -22.064   7.052  0.00  0.00    +0.015 A 
ENDBRANCH   1   2
BRANCH   1   7
ATOM      7  C   LIG    1       25.456 -24.268   6.967  0.00  0.00    +0.065 C 
BRANCH   7   8
ATOM      8  C   LIG    1       24.428 -25.208   6.323  0.00  0.00    +0.084 C 
BRANCH   8  10
ATOM      9  C   LIG    1       25.645 -26.574   4.747  0.00  0.00    +0.101 C 
ATOM     10  N   LIG    1       24.759 -25.425   4.907  0.00  0.00    -0.319 NA
ATOM     11  H   LIG    1       23.897 -25.604   4.390  0.00  0.00    +0.122 HD
ENDBRANCH   8  10
ENDBRANCH   7   8
ENDBRANCH   1   7
BRANCH   1  12
ATOM     12  O   LIG    1       24.893 -22.373   5.496  0.00  0.00    -0.483 OA
BRANCH  12  13
ATOM     13  C   LIG    1       23.986 -21.385   5.191  0.00  0.00    +0.129 A 
ATOM     14  C   LIG    1       24.528 -20.207   4.618  0.00  0.00    +0.024 A 
ATOM     15  C   LIG    1       23.644 -19.176   4.209  0.00  0.00    -0.014 A 
ATOM     16  C   LIG    1       24.155 -18.020   3.596  0.00  0.00    +0.008 A 
ATOM     17  C   LIG    1       25.524 -17.858   3.398  0.00  0.00    +0.001 A 
ATOM     18  C   LIG    1       26.404 -18.850   3.816  0.00  0.00    +0.001 A 
ATOM     19  C   LIG    1       22.265 -19.322   4.420  0.00  0.00    +0.009 A 
ATOM     20  C   LIG    1       21.757 -20.458   5.040  0.00  0.00    +0.004 A 
ATOM     21  C   LIG    1       25.909 -20.010   4.414  0.00  0.00    +0.012 A 
ATOM     22  C   LIG    1       22.615 -21.490   5.429  0.00  0.00    +0.046 A 
ENDBRANCH  12  13
ENDBRANCH   1  12
TORSDOF 6
ENDMDL
MODEL 6
REMARK VINA RESULT:      -7.2      2.299      5.916
REMARK  Name = *****
REMARK                            x       y       z     vdW  Elec       q    Type
REMARK                         _______ _______ _______ _____ _____    ______ ____
ROOT
ATOM      1  C   LIG    1       25.065 -22.201   7.342  0.00  0.00    +0.211 C 
ENDROOT
BRANCH   1   2
ATOM      2  C   LIG    1       24.957 -23.656   6.899  0.00  0.00    +0.030 A 
ATOM      3  S   LIG    1       23.424 -24.338   6.531  0.00  0.00    -0.098 S 
ATOM      4  C   LIG    1       24.108 -25.867   6.186  0.00  0.00    +0.045 A 
ATOM      5  C   LIG    1       25.475 -25.868   6.335  0.00  0.00    +0.008 A 
ATOM      6  C   LIG    1       25.966 -24.591   6.736  0.00  0.00    +0.015 A 
ENDBRANCH   1   2
BRANCH   1   7
ATOM      7  C   LIG    1       23.685 -21.515   7.227  0.00  0.00    +0.065 C 
BRANCH   7   8
ATOM      8  C   LIG    1       23.567 -20.536   6.051  0.00  0.00    +0.084 C 
BRANCH   8  10
ATOM      9  C   LIG    1       24.047 -20.592   3.686  0.00  0.00    +0.101 C 
ATOM     10  N   LIG    1       23.384 -21.275   4.794  0.00  0.00    -0.319 NA
ATOM     11  H   LIG    1       23.792 -22.205   4.894  0.00  0.00    +0.122 HD
ENDBRANCH   8  10
ENDBRANCH   7   8
ENDBRANCH   1   7
BRANCH   1  12
ATOM     12  O   LIG    1       26.020 -21.618   6.445  0.00  0.00    -0.483 OA
BRANCH  12  13
ATOM     13  C   LIG    1       27.257 -21.235   6.907  0.00  0.00    +0.129 A 
ATOM     14  C   LIG    1       27.846 -20.128   6.247  0.00  0.00    +0.024 A 
ATOM     15  C   LIG    1       29.087 -19.629   6.719  0.00  0.00    -0.014 A 
ATOM     16  C   LIG    1       29.666 -18.504   6.110  0.00  0.00    +0.008 A 
ATOM     17  C   LIG    1       29.048 -17.874   5.031  0.00  0.00    +0.001 A 
ATOM     18  C   LIG    1       27.844 -18.367   4.542  0.00  0.00    +0.001 A 
ATOM     19  C   LIG    1       29.725 -20.267   7.793  0.00  0.00    +0.009 A 
ATOM     20  C   LIG    1       29.163 -21.390   8.389  0.00  0.00    +0.004 A 
ATOM     21  C   LIG    1       27.251 -19.476   5.147  0.00  0.00    +0.012 A 
ATOM     22  C   LIG    1       27.930 -21.878   7.946  0.00  0.00    +0.046 A 
ENDBRANCH  12  13
ENDBRANCH   1  12
TORSDOF 6
ENDMDL
MODEL 7
REMARK VINA RESULT:      -6.9      2.787      5.683
REMARK  Name = *****
REMARK                            x       y       z     vdW  Elec       q    Type
REMARK                         _______ _______ _______ _____ _____    ______ ____
ROOT
ATOM      1  C   LIG    1       25.692 -22.843   6.547  0.00  0.00    +0.211 C 
ENDROOT
BRANCH   1   2
ATOM      2  C   LIG    1       25.553 -24.343   6.310  0.00  0.00    +0.030 A 
ATOM      3  S   LIG    1       24.923 -24.931   4.825  0.00  0.00    -0.098 S 
ATOM      4  C   LIG    1       25.053 -26.559   5.332  0.00  0.00    +0.045 A 
ATOM      5  C   LIG    1       25.572 -26.666   6.601  0.00  0.00    +0.008 A 
ATOM      6  C   LIG    1       25.871 -25.389   7.161  0.00  0.00    +0.015 A 
ENDBRANCH   1   2
BRANCH   1   7
ATOM      7  C   LIG    1       25.496 -22.530   8.047  0.00  0.00    +0.065 C 
BRANCH   7   8
ATOM      8  C   LIG    1       26.170 -21.232   8.509  0.00  0.00    +0.084 C 
BRANCH   8  10
ATOM      9  C   LIG    1       28.177 -20.190   7.662  0.00  0.00    +0.101 C 
ATOM     10  N   LIG    1       27.630 -21.342   8.373  0.00  0.00    -0.319 NA
ATOM     11  H   LIG    1       28.047 -21.379   9.304  0.00  0.00    +0.122 HD
ENDBRANCH   8  10
ENDBRANCH   7   8
ENDBRANCH   1   7
BRANCH   1  12
ATOM     12  O   LIG    1       24.662 -22.251   5.745  0.00  0.00    -0.483 OA
BRANCH  12  13
ATOM     13  C   LIG    1       24.900 -21.077   5.071  0.00  0.00    +0.129 A 
ATOM     14  C   LIG    1       23.751 -20.338   4.694  0.00  0.00    +0.024 A 
ATOM     15  C   LIG    1       23.922 -19.079   4.062  0.00  0.00    -0.014 A 
ATOM     16  C   LIG    1       22.798 -18.309   3.723  0.00  0.00    +0.008 A 
ATOM     17  C   LIG    1       21.508 -18.769   3.980  0.00  0.00    +0.001 A 
ATOM     18  C   LIG    1       21.325 -20.011   4.576  0.00  0.00    +0.001 A 
ATOM     19  C   LIG    1       25.216 -18.616   3.783  0.00  0.00    +0.009 A 
ATOM     20  C   LIG    1       26.331 -19.382   4.104  0.00  0.00    +0.004 A 
ATOM     21  C   LIG    1       22.434 -20.781   4.932  0.00  0.00    +0.012 A 
ATOM     22  C   LIG    1       26.176 -20.614   4.745  0.00  0.00    +0.046 A 
ENDBRANCH  12  13
ENDBRANCH   1  12
TORSDOF 6
ENDMDL
MODEL 8
REMARK VINA RESULT:      -6.8      1.678      3.542
REMARK  Name = *****
REMARK                            x       y       z     vdW  Elec       q    Type
REMARK                         _______ _______ _______ _____ _____    ______ ____
ROOT
ATOM      1  C   LIG    1       27.382 -21.349   7.801  0.00  0.00    +0.211 C 
ENDROOT
BRANCH   1   2
ATOM      2  C   LIG    1       28.704 -20.623   7.585  0.00  0.00    +0.030 A 
ATOM      3  S   LIG    1       30.123 -21.144   8.400  0.00  0.00    -0.098 S 
ATOM      4  C   LIG    1       31.067 -19.900   7.703  0.00  0.00    +0.045 A 
ATOM      5  C   LIG    1       30.330 -19.103   6.858  0.00  0.00    +0.008 A 
ATOM      6  C   LIG    1       28.971 -19.526   6.781  0.00  0.00    +0.015 A 
ENDBRANCH   1   2
BRANCH   1   7
ATOM      7  C   LIG    1       27.258 -22.520   6.800  0.00  0.00    +0.065 C 
BRANCH   7   8
ATOM      8  C   LIG    1       26.239 -23.591   7.212  0.00  0.00    +0.084 C 
BRANCH   8  10
ATOM      9  C   LIG    1       24.383 -24.881   6.362  0.00  0.00    +0.101 C 
ATOM     10  N   LIG    1       25.622 -24.188   6.018  0.00  0.00    -0.319 NA
ATOM     11  H   LIG    1       25.405 -23.446   5.352  0.00  0.00    +0.122 HD
ENDBRANCH   8  10
ENDBRANCH   7   8
ENDBRANCH   1   7
BRANCH   1  12
ATOM     12  O   LIG    1       26.377 -20.352   7.574  0.00  0.00    -0.483 OA
BRANCH  12  13
ATOM     13  C   LIG    1       25.135 -20.716   7.110  0.00  0.00    +0.129 A 
ATOM     14  C   LIG    1       24.886 -20.448   5.740  0.00  0.00    +0.024 A 
ATOM     15  C   LIG    1       23.654 -20.865   5.174  0.00  0.00    -0.014 A 
ATOM     16  C   LIG    1       23.406 -20.652   3.808  0.00  0.00    +0.008 A 
ATOM     17  C   LIG    1       24.345 -20.018   2.997  0.00  0.00    +0.001 A 
ATOM     18  C   LIG    1       25.546 -19.582   3.545  0.00  0.00    +0.001 A 
ATOM     19  C   LIG    1       22.696 -21.489   5.985  0.00  0.00    +0.009 A 
ATOM     20  C   LIG    1       22.932 -21.688   7.341  0.00  0.00    +0.004 A 
ATOM     21  C   LIG    1       25.812 -19.800   4.897  0.00  0.00    +0.012 A 
ATOM     22  C   LIG    1       24.150 -21.301   7.906  0.00  0.00    +0.046 A 
ENDBRANCH  12  13
ENDBRANCH   1  12
TORSDOF 6
ENDMDL
MODEL 9
REMARK VINA RESULT:      -6.7      1.933      3.964
REMARK  Name = *****
REMARK                            x       y       z     vdW  Elec       q    Type
REMARK                         _______ _______ _______ _____ _____    ______ ____
ROOT
ATOM      1  C   LIG    1       27.018 -20.710   6.950  0.00  0.00    +0.211 C 
ENDROOT
BRANCH   1   2
ATOM      2  C   LIG    1       28.444 -20.178   6.879  0.00  0.00    +0.030 A 
ATOM      3  S   LIG    1       29.656 -20.803   7.924  0.00  0.00    -0.098 S 
ATOM      4  C   LIG    1       30.847 -19.752   7.290  0.00  0.00    +0.045 A 
ATOM      5  C   LIG    1       30.346 -18.943   6.296  0.00  0.00    +0.008 A 
ATOM      6  C   LIG    1       28.965 -19.196   6.052  0.00  0.00    +0.015 A 
ENDBRANCH   1   2
BRANCH   1   7
ATOM      7  C   LIG    1       26.975 -21.975   7.837  0.00  0.00    +0.065 C 
BRANCH   7   8
ATOM      8  C   LIG    1       25.896 -22.988   7.432  0.00  0.00    +0.084 C 
BRANCH   8  10
ATOM      9  C   LIG    1       25.322 -24.630   5.758  0.00  0.00    +0.101 C 
ATOM     10  N   LIG    1       26.409 -23.885   6.386  0.00  0.00    -0.319 NA
ATOM     11  H   LIG    1       26.876 -23.326   5.672  0.00  0.00    +0.122 HD
ENDBRANCH   8  10
ENDBRANCH   7   8
ENDBRANCH   1   7
BRANCH   1  12
ATOM     12  O   LIG    1       26.673 -21.007   5.591  0.00  0.00    -0.483 OA
BRANCH  12  13
ATOM     13  C   LIG    1       25.889 -20.137   4.871  0.00  0.00    +0.129 A 
ATOM     14  C   LIG    1       24.493 -20.374   4.925  0.00  0.00    +0.024 A 
ATOM     15  C   LIG    1       23.618 -19.471   4.269  0.00  0.00    -0.014 A 
ATOM     16  C   LIG    1       22.229 -19.662   4.349  0.00  0.00    +0.008 A 
ATOM     17  C   LIG    1       21.690 -20.738   5.050  0.00  0.00    +0.001 A 
ATOM     18  C   LIG    1       22.537 -21.645   5.678  0.00  0.00    +0.001 A 
ATOM     19  C   LIG    1       24.151 -18.395   3.545  0.00  0.00    +0.009 A 
ATOM     20  C   LIG    1       25.526 -18.211   3.451  0.00  0.00    +0.004 A 
ATOM     21  C   LIG    1       23.919 -21.460   5.618  0.00  0.00    +0.012 A 
ATOM     22  C   LIG    1       26.397 -19.082   4.111  0.00  0.00    +0.046 A 
ENDBRANCH  12  13
ENDBRANCH   1  12
TORSDOF 6
ENDMDL
