MODEL 1
REMARK VINA RESULT:      -7.5      0.000      0.000
REMARK  Name = *****
REMARK                            x       y       z     vdW  Elec       q    Type
REMARK                         _______ _______ _______ _____ _____    ______ ____
ROOT
ATOM      1  C   LIG    1       27.053 -21.166   7.688  0.00  0.00    +0.163 C 
ATOM      2  C   LIG    1       26.012 -22.308   7.409  0.00  0.00    +0.114 C 
ATOM      3  C   LIG    1       25.105 -21.587   6.424  0.00  0.00    +0.037 C 
ATOM      4  C   LIG    1       23.711 -21.873   6.136  0.00  0.00    +0.205 C 
ATOM      5  C   LIG    1       23.034 -21.028   5.073  0.00  0.00    +0.079 C 
ATOM      6  C   LIG    1       23.735 -20.099   4.389  0.00  0.00    +0.022 C 
ATOM      7  C   LIG    1       25.186 -19.852   4.673  0.00  0.00    +0.205 C 
ATOM      8  O   LIG    1       25.868 -19.107   3.978  0.00  0.00    -0.286 OA
ATOM      9  C   LIG    1       23.174 -19.247   3.288  0.00  0.00    +0.050 C 
ATOM     10  O   LIG    1       23.086 -22.719   6.767  0.00  0.00    -0.286 OA
ATOM     11  C   LIG    1       25.752 -20.592   5.820  0.00  0.00    +0.087 C 
ATOM     12  N   LIG    1       26.962 -20.366   6.442  0.00  0.00    -0.295 N 
ATOM     13  C   LIG    1       28.246 -20.061   5.831  0.00  0.00    +0.128 C 
ATOM     14  C   LIG    1       29.249 -20.803   6.682  0.00  0.00    +0.093 C 
ATOM     15  N   LIG    1       29.529 -20.406   8.059  0.00  0.00    -0.302 NA
ATOM     16  H   LIG    1       30.410 -20.803   8.385  0.00  0.00    +0.123 HD
ATOM     17  C   LIG    1       28.529 -21.473   7.806  0.00  0.00    +0.124 C 
ENDROOT
BRANCH   5  18
ATOM     18  N   LIG    1       21.681 -21.303   4.892  0.00  0.00    -0.355 N 
ATOM     19  H   LIG    1       21.155 -20.513   4.528  0.00  0.00    +0.142 HD
ATOM     20  H   LIG    1       21.272 -21.658   5.763  0.00  0.00    +0.142 HD
ENDBRANCH   5  18
BRANCH   1  22
ATOM     21  C   LIG    1       25.443 -20.786   9.434  0.00  0.00    +0.196 C 
ATOM     22  O   LIG    1       26.592 -20.319   8.749  0.00  0.00    -0.357 OA
ENDBRANCH   1  22
BRANCH   2  23
ATOM     23  C   LIG    1       26.549 -23.559   6.688  0.00  0.00    +0.246 C 
BRANCH  23  24
ATOM     24  O   LIG    1       25.777 -24.756   6.885  0.00  0.00    -0.450 OA
BRANCH  24  25
ATOM     25  C   LIG    1       25.511 -25.466   5.758  0.00  0.00    +0.398 C 
ATOM     26  O   LIG    1       26.277 -26.200   5.173  0.00  0.00    -0.227 OA
ATOM     27  N   LIG    1       24.221 -25.296   5.379  0.00  0.00    -0.295 N 
ATOM     28  H   LIG    1       23.927 -25.873   4.602  0.00  0.00    +0.148 HD
ATOM     29  H   LIG    1       23.538 -25.108   6.099  0.00  0.00    +0.148 HD
ENDBRANCH  24  25
ENDBRANCH  23  24
ENDBRANCH   2  23
TORSDOF 5
ENDMDL
MODEL 2
REMARK VINA RESULT:      -6.2      8.542     10.028
REMARK  Name = *****
REMARK                            x       y       z     vdW  Elec       q    Type
REMARK                         _______ _______ _______ _____ _____    ______ ____
ROOT
ATOM      1  C   LIG    1       25.671 -30.599  10.575  0.00  0.00    +0.163 C 
ATOM      2  C   LIG    1       24.427 -30.734   9.626  0.00  0.00    +0.114 C 
ATOM      3  C   LIG    1       23.332 -30.285  10.582  0.00  0.00    +0.037 C 
ATOM      4  C   LIG    1       21.919 -30.615  10.523  0.00  0.00    +0.205 C 
ATOM      5  C   LIG    1       21.019 -30.004  11.580  0.00  0.00    +0.079 C 
ATOM      6  C   LIG    1       21.519 -29.139  12.488  0.00  0.00    +0.022 C 
ATOM      7  C   LIG    1       22.974 -28.778  12.502  0.00  0.00    +0.205 C 
ATOM      8  O   LIG    1       23.420 -27.901  13.233  0.00  0.00    -0.286 OA
ATOM      9  C   LIG    1       20.706 -28.443  13.541  0.00  0.00    +0.050 C 
ATOM     10  O   LIG    1       21.479 -31.404   9.693  0.00  0.00    -0.286 OA
ATOM     11  C   LIG    1       23.829 -29.520  11.552  0.00  0.00    +0.087 C 
ATOM     12  N   LIG    1       25.208 -29.566  11.534  0.00  0.00    -0.295 N 
ATOM     13  C   LIG    1       26.149 -28.477  11.742  0.00  0.00    +0.128 C 
ATOM     14  C   LIG    1       27.269 -28.762  10.771  0.00  0.00    +0.093 C 
ATOM     15  N   LIG    1       28.166 -29.901  10.947  0.00  0.00    -0.302 NA
ATOM     16  H   LIG    1       29.017 -29.788  10.398  0.00  0.00    +0.123 HD
ATOM     17  C   LIG    1       26.981 -30.046  10.063  0.00  0.00    +0.124 C 
ENDROOT
BRANCH   5  18
ATOM     18  N   LIG    1       19.689 -30.413  11.512  0.00  0.00    -0.355 N 
ATOM     19  H   LIG    1       19.531 -31.161  10.843  0.00  0.00    +0.142 HD
ATOM     20  H   LIG    1       19.080 -29.608  11.326  0.00  0.00    +0.142 HD
ENDBRANCH   5  18
BRANCH   1  22
ATOM     21  C   LIG    1       25.489 -32.996  10.660  0.00  0.00    +0.196 C 
ATOM     22  O   LIG    1       25.853 -31.803  11.333  0.00  0.00    -0.357 OA
ENDBRANCH   1  22
BRANCH   2  23
ATOM     23  C   LIG    1       24.384 -29.778   8.418  0.00  0.00    +0.246 C 
BRANCH  23  24
ATOM     24  O   LIG    1       23.732 -30.302   7.249  0.00  0.00    -0.450 OA
BRANCH  24  25
ATOM     25  C   LIG    1       24.346 -30.023   6.070  0.00  0.00    +0.398 C 
ATOM     26  O   LIG    1       25.367 -30.525   5.655  0.00  0.00    -0.227 OA
ATOM     27  N   LIG    1       23.625 -29.123   5.357  0.00  0.00    -0.295 N 
ATOM     28  H   LIG    1       23.974 -28.943   4.425  0.00  0.00    +0.148 HD
ATOM     29  H   LIG    1       22.624 -29.113   5.486  0.00  0.00    +0.148 HD
ENDBRANCH  24  25
ENDBRANCH  23  24
ENDBRANCH   2  23
TORSDOF 5
ENDMDL
MODEL 3
REMARK VINA RESULT:      -5.3      7.884     10.900
REMARK  Name = *****
REMARK                            x       y       z     vdW  Elec       q    Type
REMARK                         _______ _______ _______ _____ _____    ______ ____
ROOT
ATOM      1  C   LIG    1       24.663 -30.526   7.081  0.00  0.00    +0.163 C 
ATOM      2  C   LIG    1       25.112 -30.091   8.521  0.00  0.00    +0.114 C 
ATOM      3  C   LIG    1       23.982 -30.705   9.334  0.00  0.00    +0.037 C 
ATOM      4  C   LIG    1       23.514 -30.295  10.646  0.00  0.00    +0.205 C 
ATOM      5  C   LIG    1       22.388 -31.101  11.265  0.00  0.00    +0.079 C 
ATOM      6  C   LIG    1       21.902 -32.192  10.635  0.00  0.00    +0.022 C 
ATOM      7  C   LIG    1       22.431 -32.623   9.300  0.00  0.00    +0.205 C 
ATOM      8  O   LIG    1       22.093 -33.678   8.775  0.00  0.00    -0.286 OA
ATOM      9  C   LIG    1       20.826 -33.084  11.183  0.00  0.00    +0.050 C 
ATOM     10  O   LIG    1       23.964 -29.300  11.205  0.00  0.00    -0.286 OA
ATOM     11  C   LIG    1       23.415 -31.714   8.676  0.00  0.00    +0.087 C 
ATOM     12  N   LIG    1       23.860 -31.740   7.370  0.00  0.00    -0.295 N 
ATOM     13  C   LIG    1       24.208 -32.895   6.559  0.00  0.00    +0.128 C 
ATOM     14  C   LIG    1       25.397 -32.437   5.749  0.00  0.00    +0.093 C 
ATOM     15  N   LIG    1       25.268 -31.428   4.700  0.00  0.00    -0.302 NA
ATOM     16  H   LIG    1       26.070 -31.446   4.071  0.00  0.00    +0.123 HD
ATOM     17  C   LIG    1       25.674 -31.003   6.064  0.00  0.00    +0.124 C 
ENDROOT
BRANCH   5  18
ATOM     18  N   LIG    1       21.937 -30.618  12.491  0.00  0.00    -0.355 N 
ATOM     19  H   LIG    1       22.012 -29.608  12.577  0.00  0.00    +0.142 HD
ATOM     20  H   LIG    1       22.419 -31.097  13.259  0.00  0.00    +0.142 HD
ENDBRANCH   5  18
BRANCH   1  22
ATOM     21  C   LIG    1       24.324 -28.293   6.251  0.00  0.00    +0.196 C 
ATOM     22  O   LIG    1       23.756 -29.561   6.529  0.00  0.00    -0.357 OA
ENDBRANCH   1  22
BRANCH   2  23
ATOM     23  C   LIG    1       26.423 -30.709   9.043  0.00  0.00    +0.246 C 
BRANCH  23  24
ATOM     24  O   LIG    1       27.408 -29.763   9.492  0.00  0.00    -0.450 OA
BRANCH  24  25
ATOM     25  C   LIG    1       27.357 -29.458  10.814  0.00  0.00    +0.398 C 
ATOM     26  O   LIG    1       27.711 -30.167  11.730  0.00  0.00    -0.227 OA
ATOM     27  N   LIG    1       26.900 -28.194  10.996  0.00  0.00    -0.295 N 
ATOM     28  H   LIG    1       26.928 -27.866  11.952  0.00  0.00    +0.148 HD
ATOM     29  H   LIG    1       27.082 -27.518  10.268  0.00  0.00    +0.148 HD
ENDBRANCH  24  25
ENDBRANCH  23  24
ENDBRANCH   2  23
TORSDOF 5
ENDMDL
MODEL 4
REMARK VINA RESULT:      -5.2      1.878      4.817
REMARK  Name = *****
REMARK                            x       y       z     vdW  Elec       q    Type
REMARK                         _______ _______ _______ _____ _____    ______ ____
ROOT
ATOM      1  C   LIG    1       24.728 -23.172   5.700  0.00  0.00    +0.163 C 
ATOM      2  C   LIG    1       25.879 -22.133   5.949  0.00  0.00    +0.114 C 
ATOM      3  C   LIG    1       25.304 -20.938   5.204  0.00  0.00    +0.037 C 
ATOM      4  C   LIG    1       26.034 -19.820   4.631  0.00  0.00    +0.205 C 
ATOM      5  C   LIG    1       25.220 -18.726   3.968  0.00  0.00    +0.079 C 
ATOM      6  C   LIG    1       23.871 -18.774   3.980  0.00  0.00    +0.022 C 
ATOM      7  C   LIG    1       23.137 -19.917   4.616  0.00  0.00    +0.205 C 
ATOM      8  O   LIG    1       21.918 -19.915   4.749  0.00  0.00    -0.286 OA
ATOM      9  C   LIG    1       22.974 -17.721   3.397  0.00  0.00    +0.050 C 
ATOM     10  O   LIG    1       27.260 -19.790   4.627  0.00  0.00    -0.286 OA
ATOM     11  C   LIG    1       23.979 -21.027   5.107  0.00  0.00    +0.087 C 
ATOM     12  N   LIG    1       23.558 -22.282   5.495  0.00  0.00    -0.295 N 
ATOM     13  C   LIG    1       22.391 -22.637   6.286  0.00  0.00    +0.128 C 
ATOM     14  C   LIG    1       22.861 -23.782   7.151  0.00  0.00    +0.093 C 
ATOM     15  N   LIG    1       23.183 -25.089   6.585  0.00  0.00    -0.302 NA
ATOM     16  H   LIG    1       23.196 -25.810   7.306  0.00  0.00    +0.123 HD
ATOM     17  C   LIG    1       24.275 -24.107   6.798  0.00  0.00    +0.124 C 
ENDROOT
BRANCH   5  18
ATOM     18  N   LIG    1       25.979 -17.718   3.378  0.00  0.00    -0.355 N 
ATOM     19  H   LIG    1       26.653 -18.065   2.702  0.00  0.00    +0.142 HD
ATOM     20  H   LIG    1       26.431 -17.146   4.100  0.00  0.00    +0.142 HD
ENDBRANCH   5  18
BRANCH   1  22
ATOM     21  C   LIG    1       25.188 -25.249   4.576  0.00  0.00    +0.196 C 
ATOM     22  O   LIG    1       24.937 -23.859   4.458  0.00  0.00    -0.357 OA
ENDBRANCH   1  22
BRANCH   2  23
ATOM     23  C   LIG    1       26.092 -21.688   7.408  0.00  0.00    +0.246 C 
BRANCH  23  24
ATOM     24  O   LIG    1       27.423 -21.879   7.917  0.00  0.00    -0.450 OA
BRANCH  24  25
ATOM     25  C   LIG    1       28.273 -20.839   7.719  0.00  0.00    +0.398 C 
ATOM     26  O   LIG    1       28.308 -19.808   8.354  0.00  0.00    -0.227 OA
ATOM     27  N   LIG    1       29.152 -21.122   6.727  0.00  0.00    -0.295 N 
ATOM     28  H   LIG    1       29.877 -20.430   6.592  0.00  0.00    +0.148 HD
ATOM     29  H   LIG    1       29.402 -22.090   6.581  0.00  0.00    +0.148 HD
ENDBRANCH  24  25
ENDBRANCH  23  24
ENDBRANCH   2  23
TORSDOF 5
ENDMDL
MODEL 5
REMARK VINA RESULT:      -5.2      8.962      9.916
REMARK  Name = *****
REMARK                            x       y       z     vdW  Elec       q    Type
REMARK                         _______ _______ _______ _____ _____    ______ ____
ROOT
ATOM      1  C   LIG    1       25.800 -29.176  13.055  0.00  0.00    +0.163 C 
ATOM      2  C   LIG    1       24.883 -29.970  12.058  0.00  0.00    +0.114 C 
ATOM      3  C   LIG    1       23.544 -29.324  12.379  0.00  0.00    +0.037 C 
ATOM      4  C   LIG    1       22.221 -29.890  12.183  0.00  0.00    +0.205 C 
ATOM      5  C   LIG    1       21.032 -29.022  12.549  0.00  0.00    +0.079 C 
ATOM      6  C   LIG    1       21.217 -27.754  12.974  0.00  0.00    +0.022 C 
ATOM      7  C   LIG    1       22.591 -27.175  13.127  0.00  0.00    +0.205 C 
ATOM      8  O   LIG    1       22.774 -25.991  13.388  0.00  0.00    -0.286 OA
ATOM      9  C   LIG    1       20.110 -26.799  13.314  0.00  0.00    +0.050 C 
ATOM     10  O   LIG    1       22.068 -31.045  11.797  0.00  0.00    -0.286 OA
ATOM     11  C   LIG    1       23.712 -28.113  12.907  0.00  0.00    +0.087 C 
ATOM     12  N   LIG    1       25.040 -27.913  13.223  0.00  0.00    -0.295 N 
ATOM     13  C   LIG    1       25.836 -26.708  13.051  0.00  0.00    +0.128 C 
ATOM     14  C   LIG    1       27.196 -27.216  12.639  0.00  0.00    +0.093 C 
ATOM     15  N   LIG    1       28.054 -27.949  13.566  0.00  0.00    -0.302 NA
ATOM     16  H   LIG    1       29.021 -27.961  13.242  0.00  0.00    +0.123 HD
ATOM     17  C   LIG    1       27.177 -28.710  12.641  0.00  0.00    +0.124 C 
ENDROOT
BRANCH   5  18
ATOM     18  N   LIG    1       19.795 -29.645  12.404  0.00  0.00    -0.355 N 
ATOM     19  H   LIG    1       19.015 -28.994  12.394  0.00  0.00    +0.142 HD
ATOM     20  H   LIG    1       19.675 -30.365  13.125  0.00  0.00    +0.142 HD
ENDBRANCH   5  18
BRANCH   1  22
ATOM     21  C   LIG    1       26.217 -31.173  14.330  0.00  0.00    +0.196 C 
ATOM     22  O   LIG    1       25.811 -29.816  14.340  0.00  0.00    -0.357 OA
ENDBRANCH   1  22
BRANCH   2  23
ATOM     23  C   LIG    1       25.143 -29.735  10.558  0.00  0.00    +0.246 C 
BRANCH  23  24
ATOM     24  O   LIG    1       24.967 -30.889   9.719  0.00  0.00    -0.450 OA
BRANCH  24  25
ATOM     25  C   LIG    1       23.921 -30.824   8.857  0.00  0.00    +0.398 C 
ATOM     26  O   LIG    1       23.735 -29.973   8.014  0.00  0.00    -0.227 OA
ATOM     27  N   LIG    1       23.104 -31.895   9.013  0.00  0.00    -0.295 N 
ATOM     28  H   LIG    1       22.357 -31.961   8.335  0.00  0.00    +0.148 HD
ATOM     29  H   LIG    1       23.517 -32.759   9.332  0.00  0.00    +0.148 HD
ENDBRANCH  24  25
ENDBRANCH  23  24
ENDBRANCH   2  23
TORSDOF 5
ENDMDL
MODEL 6
REMARK VINA RESULT:      -5.1      9.007     10.566
REMARK  Name = *****
REMARK                            x       y       z     vdW  Elec       q    Type
REMARK                         _______ _______ _______ _____ _____    ______ ____
ROOT
ATOM      1  C   LIG    1       25.312 -31.336  11.006  0.00  0.00    +0.163 C 
ATOM      2  C   LIG    1       23.863 -30.767  11.215  0.00  0.00    +0.114 C 
ATOM      3  C   LIG    1       24.201 -29.492  11.973  0.00  0.00    +0.037 C 
ATOM      4  C   LIG    1       23.341 -28.748  12.877  0.00  0.00    +0.205 C 
ATOM      5  C   LIG    1       23.904 -27.476  13.482  0.00  0.00    +0.079 C 
ATOM      6  C   LIG    1       25.131 -27.036  13.129  0.00  0.00    +0.022 C 
ATOM      7  C   LIG    1       25.984 -27.798  12.160  0.00  0.00    +0.205 C 
ATOM      8  O   LIG    1       27.042 -27.350  11.732  0.00  0.00    -0.286 OA
ATOM      9  C   LIG    1       25.758 -25.768  13.631  0.00  0.00    +0.050 C 
ATOM     10  O   LIG    1       22.229 -29.161  13.189  0.00  0.00    -0.286 OA
ATOM     11  C   LIG    1       25.450 -29.105  11.724  0.00  0.00    +0.087 C 
ATOM     12  N   LIG    1       26.130 -30.099  11.052  0.00  0.00    -0.295 N 
ATOM     13  C   LIG    1       27.071 -29.963   9.952  0.00  0.00    +0.128 C 
ATOM     14  C   LIG    1       26.777 -31.146   9.061  0.00  0.00    +0.093 C 
ATOM     15  N   LIG    1       27.079 -32.513   9.477  0.00  0.00    -0.302 NA
ATOM     16  H   LIG    1       27.097 -33.146   8.678  0.00  0.00    +0.123 HD
ATOM     17  C   LIG    1       25.712 -31.978   9.697  0.00  0.00    +0.124 C 
ENDROOT
BRANCH   5  18
ATOM     18  N   LIG    1       23.059 -26.846  14.392  0.00  0.00    -0.355 N 
ATOM     19  H   LIG    1       23.101 -25.831  14.345  0.00  0.00    +0.142 HD
ATOM     20  H   LIG    1       23.244 -27.186  15.342  0.00  0.00    +0.142 HD
ENDBRANCH   5  18
BRANCH   1  22
ATOM     21  C   LIG    1       24.902 -33.267  12.381  0.00  0.00    +0.196 C 
ATOM     22  O   LIG    1       25.705 -32.126  12.137  0.00  0.00    -0.357 OA
ENDBRANCH   1  22
BRANCH   2  23
ATOM     23  C   LIG    1       23.107 -30.341   9.942  0.00  0.00    +0.246 C 
BRANCH  23  24
ATOM     24  O   LIG    1       21.970 -31.155   9.606  0.00  0.00    -0.450 OA
BRANCH  24  25
ATOM     25  C   LIG    1       21.068 -31.329  10.606  0.00  0.00    +0.398 C 
ATOM     26  O   LIG    1       20.884 -32.344  11.241  0.00  0.00    -0.227 OA
ATOM     27  N   LIG    1       20.408 -30.172  10.861  0.00  0.00    -0.295 N 
ATOM     28  H   LIG    1       19.789 -30.204  11.661  0.00  0.00    +0.148 HD
ATOM     29  H   LIG    1       20.893 -29.304  10.686  0.00  0.00    +0.148 HD
ENDBRANCH  24  25
ENDBRANCH  23  24
ENDBRANCH   2  23
TORSDOF 5
ENDMDL
MODEL 7
REMARK VINA RESULT:      -5.1      8.042     10.805
REMARK  Name = *****
REMARK                            x       y       z     vdW  Elec       q    Type
REMARK                         _______ _______ _______ _____ _____    ______ ____
ROOT
ATOM      1  C   LIG    1       25.156 -30.482   8.927  0.00  0.00    +0.163 C 
ATOM      2  C   LIG    1       24.945 -29.956  10.392  0.00  0.00    +0.114 C 
ATOM      3  C   LIG    1       23.483 -30.326  10.584  0.00  0.00    +0.037 C 
ATOM      4  C   LIG    1       22.531 -29.718  11.498  0.00  0.00    +0.205 C 
ATOM      5  C   LIG    1       21.130 -30.299  11.529  0.00  0.00    +0.079 C 
ATOM      6  C   LIG    1       20.820 -31.378  10.779  0.00  0.00    +0.022 C 
ATOM      7  C   LIG    1       21.832 -32.016   9.875  0.00  0.00    +0.205 C 
ATOM      8  O   LIG    1       21.608 -33.068   9.287  0.00  0.00    -0.286 OA
ATOM      9  C   LIG    1       19.482 -32.057  10.774  0.00  0.00    +0.050 C 
ATOM     10  O   LIG    1       22.827 -28.737  12.173  0.00  0.00    -0.286 OA
ATOM     11  C   LIG    1       23.129 -31.317   9.768  0.00  0.00    +0.087 C 
ATOM     12  N   LIG    1       24.121 -31.541   8.836  0.00  0.00    -0.295 N 
ATOM     13  C   LIG    1       24.610 -32.813   8.328  0.00  0.00    +0.128 C 
ATOM     14  C   LIG    1       26.098 -32.604   8.171  0.00  0.00    +0.093 C 
ATOM     15  N   LIG    1       26.643 -31.706   7.157  0.00  0.00    -0.302 NA
ATOM     16  H   LIG    1       27.631 -31.897   6.989  0.00  0.00    +0.123 HD
ATOM     17  C   LIG    1       26.430 -31.194   8.534  0.00  0.00    +0.124 C 
ENDROOT
BRANCH   5  18
ATOM     18  N   LIG    1       20.246 -29.631  12.373  0.00  0.00    -0.355 N 
ATOM     19  H   LIG    1       20.486 -29.717  13.357  0.00  0.00    +0.142 HD
ATOM     20  H   LIG    1       19.284 -29.938  12.193  0.00  0.00    +0.142 HD
ENDBRANCH   5  18
BRANCH   1  22
ATOM     21  C   LIG    1       25.674 -28.369   7.899  0.00  0.00    +0.196 C 
ATOM     22  O   LIG    1       24.787 -29.472   7.977  0.00  0.00    -0.357 OA
ENDBRANCH   1  22
BRANCH   2  23
ATOM     23  C   LIG    1       25.737 -30.681  11.497  0.00  0.00    +0.246 C 
BRANCH  23  24
ATOM     24  O   LIG    1       26.545 -29.830  12.328  0.00  0.00    -0.450 OA
BRANCH  24  25
ATOM     25  C   LIG    1       27.615 -29.265  11.710  0.00  0.00    +0.398 C 
ATOM     26  O   LIG    1       28.440 -29.839  11.034  0.00  0.00    -0.227 OA
ATOM     27  N   LIG    1       27.621 -27.923  11.897  0.00  0.00    -0.295 N 
ATOM     28  H   LIG    1       28.336 -27.426  11.382  0.00  0.00    +0.148 HD
ATOM     29  H   LIG    1       26.732 -27.459  12.018  0.00  0.00    +0.148 HD
ENDBRANCH  24  25
ENDBRANCH  23  24
ENDBRANCH   2  23
TORSDOF 5
ENDMDL
MODEL 8
REMARK VINA RESULT:      -5.0      2.657      4.246
REMARK  Name = *****
REMARK                            x       y       z     vdW  Elec       q    Type
REMARK                         _______ _______ _______ _____ _____    ______ ____
ROOT
ATOM      1  C   LIG    1       29.464 -19.401   8.159  0.00  0.00    +0.163 C 
ATOM      2  C   LIG    1       28.738 -20.672   8.727  0.00  0.00    +0.114 C 
ATOM      3  C   LIG    1       27.465 -20.627   7.895  0.00  0.00    +0.037 C 
ATOM      4  C   LIG    1       26.173 -21.204   8.226  0.00  0.00    +0.205 C 
ATOM      5  C   LIG    1       25.064 -21.054   7.203  0.00  0.00    +0.079 C 
ATOM      6  C   LIG    1       25.306 -20.466   6.012  0.00  0.00    +0.022 C 
ATOM      7  C   LIG    1       26.659 -19.917   5.675  0.00  0.00    +0.205 C 
ATOM      8  O   LIG    1       26.931 -19.496   4.556  0.00  0.00    -0.286 OA
ATOM      9  C   LIG    1       24.293 -20.313   4.915  0.00  0.00    +0.050 C 
ATOM     10  O   LIG    1       25.968 -21.734   9.313  0.00  0.00    -0.286 OA
ATOM     11  C   LIG    1       27.656 -19.950   6.765  0.00  0.00    +0.087 C 
ATOM     12  N   LIG    1       28.870 -19.295   6.803  0.00  0.00    -0.295 N 
ATOM     13  C   LIG    1       29.843 -19.136   5.734  0.00  0.00    +0.128 C 
ATOM     14  C   LIG    1       31.180 -19.249   6.427  0.00  0.00    +0.093 C 
ATOM     15  N   LIG    1       31.654 -18.221   7.349  0.00  0.00    -0.302 NA
ATOM     16  H   LIG    1       32.661 -18.294   7.496  0.00  0.00    +0.123 HD
ATOM     17  C   LIG    1       30.952 -19.409   7.895  0.00  0.00    +0.124 C 
ENDROOT
BRANCH   5  18
ATOM     18  N   LIG    1       23.833 -21.566   7.607  0.00  0.00    -0.355 N 
ATOM     19  H   LIG    1       23.897 -22.174   8.419  0.00  0.00    +0.142 HD
ATOM     20  H   LIG    1       23.370 -22.036   6.821  0.00  0.00    +0.142 HD
ENDBRANCH   5  18
BRANCH   1  22
ATOM     21  C   LIG    1       29.931 -17.811   9.903  0.00  0.00    +0.196 C 
ATOM     22  O   LIG    1       29.050 -18.228   8.875  0.00  0.00    -0.357 OA
ENDBRANCH   1  22
BRANCH   2  23
ATOM     23  C   LIG    1       29.411 -22.027   8.438  0.00  0.00    +0.246 C 
BRANCH  23  24
ATOM     24  O   LIG    1       30.355 -22.464   9.431  0.00  0.00    -0.450 OA
BRANCH  24  25
ATOM     25  C   LIG    1       31.658 -22.228   9.133  0.00  0.00    +0.398 C 
ATOM     26  O   LIG    1       32.342 -21.325   9.564  0.00  0.00    -0.227 OA
ATOM     27  N   LIG    1       32.143 -23.190   8.311  0.00  0.00    -0.295 N 
ATOM     28  H   LIG    1       33.136 -23.131   8.127  0.00  0.00    +0.148 HD
ATOM     29  H   LIG    1       31.739 -24.113   8.375  0.00  0.00    +0.148 HD
ENDBRANCH  24  25
ENDBRANCH  23  24
ENDBRANCH   2  23
TORSDOF 5
ENDMDL
MODEL 9
REMARK VINA RESULT:      -5.0      8.350     10.255
REMARK  Name = *****
REMARK                            x       y       z     vdW  Elec       q    Type
REMARK                         _______ _______ _______ _____ _____    ______ ____
ROOT
ATOM      1  C   LIG    1       25.356 -31.701  10.732  0.00  0.00    +0.163 C 
ATOM      2  C   LIG    1       23.910 -31.088  10.760  0.00  0.00    +0.114 C 
ATOM      3  C   LIG    1       24.184 -29.834  11.576  0.00  0.00    +0.037 C 
ATOM      4  C   LIG    1       23.236 -29.074  12.372  0.00  0.00    +0.205 C 
ATOM      5  C   LIG    1       23.753 -27.828  13.066  0.00  0.00    +0.079 C 
ATOM      6  C   LIG    1       25.028 -27.424  12.884  0.00  0.00    +0.022 C 
ATOM      7  C   LIG    1       25.977 -28.201  12.023  0.00  0.00    +0.205 C 
ATOM      8  O   LIG    1       27.096 -27.782  11.744  0.00  0.00    -0.286 OA
ATOM      9  C   LIG    1       25.622 -26.183  13.484  0.00  0.00    +0.050 C 
ATOM     10  O   LIG    1       22.080 -29.455  12.529  0.00  0.00    -0.286 OA
ATOM     11  C   LIG    1       25.467 -29.485  11.499  0.00  0.00    +0.087 C 
ATOM     12  N   LIG    1       26.198 -30.492  10.906  0.00  0.00    -0.295 N 
ATOM     13  C   LIG    1       27.279 -30.373   9.940  0.00  0.00    +0.128 C 
ATOM     14  C   LIG    1       27.069 -31.534   8.999  0.00  0.00    +0.093 C 
ATOM     15  N   LIG    1       27.272 -32.915   9.429  0.00  0.00    -0.302 NA
ATOM     16  H   LIG    1       27.376 -33.538   8.628  0.00  0.00    +0.123 HD
ATOM     17  C   LIG    1       25.904 -32.339   9.477  0.00  0.00    +0.124 C 
ENDROOT
BRANCH   5  18
ATOM     18  N   LIG    1       22.815 -27.182  13.867  0.00  0.00    -0.355 N 
ATOM     19  H   LIG    1       22.312 -27.812  14.486  0.00  0.00    +0.142 HD
ATOM     20  H   LIG    1       22.172 -26.633  13.287  0.00  0.00    +0.142 HD
ENDBRANCH   5  18
BRANCH   1  22
ATOM     21  C   LIG    1       24.651 -33.579  12.060  0.00  0.00    +0.196 C 
ATOM     22  O   LIG    1       25.573 -32.517  11.892  0.00  0.00    -0.357 OA
ENDBRANCH   1  22
BRANCH   2  23
ATOM     23  C   LIG    1       23.341 -30.622   9.406  0.00  0.00    +0.246 C 
BRANCH  23  24
ATOM     24  O   LIG    1       24.023 -29.506   8.808  0.00  0.00    -0.450 OA
BRANCH  24  25
ATOM     25  C   LIG    1       24.311 -29.643   7.488  0.00  0.00    +0.398 C 
ATOM     26  O   LIG    1       23.680 -30.286   6.678  0.00  0.00    -0.227 OA
ATOM     27  N   LIG    1       25.394 -28.900   7.155  0.00  0.00    -0.295 N 
ATOM     28  H   LIG    1       25.606 -28.878   6.166  0.00  0.00    +0.148 HD
ATOM     29  H   LIG    1       25.570 -28.059   7.685  0.00  0.00    +0.148 HD
ENDBRANCH  24  25
ENDBRANCH  23  24
ENDBRANCH   2  23
TORSDOF 5
ENDMDL
