MODEL 1
REMARK VINA RESULT:      -9.9      0.000      0.000
REMARK  Name = *****
REMARK                            x       y       z     vdW  Elec       q    Type
REMARK                         _______ _______ _______ _____ _____    ______ ____
ROOT
ATOM      1  C   LIG    1       26.333 -21.518   7.876  0.00  0.00    +0.158 C 
ENDROOT
BRANCH   1   2
ATOM      2  C   LIG    1       27.654 -20.886   7.449  0.00  0.00    -0.017 A 
ATOM      3  C   LIG    1       28.842 -21.161   8.147  0.00  0.00    +0.023 A 
ATOM      4  C   LIG    1       30.058 -20.529   7.825  0.00  0.00    +0.078 A 
ATOM      5  C   LIG    1       30.088 -19.623   6.757  0.00  0.00    +0.129 A 
ATOM      6  C   LIG    1       28.924 -19.353   6.035  0.00  0.00    +0.046 A 
ATOM      7  C   LIG    1       27.718 -19.979   6.379  0.00  0.00    +0.010 A 
BRANCH   4   8
ATOM      8  C   LIG    1       31.237 -20.869   8.671  0.00  0.00    +0.245 C 
ATOM      9  O   LIG    1       31.864 -19.997   9.279  0.00  0.00    -0.270 OA
ATOM     10  N   LIG    1       31.607 -22.172   8.760  0.00  0.00    -0.325 N 
ATOM     11  H   LIG    1       32.402 -22.427   9.327  0.00  0.00    +0.145 HD
ATOM     12  H   LIG    1       31.071 -22.892   8.283  0.00  0.00    +0.145 HD
ENDBRANCH   4   8
BRANCH   5  13
ATOM     13  O   LIG    1       31.252 -18.992   6.400  0.00  0.00    -0.506 OA
ATOM     14  H   LIG    1       31.960 -19.654   6.316  0.00  0.00    +0.292 HD
ENDBRANCH   5  13
ENDBRANCH   1   2
BRANCH   1  15
ATOM     15  O   LIG    1       26.118 -21.269   9.271  0.00  0.00    -0.386 OA
ATOM     16  H   LIG    1       26.319 -22.086   9.755  0.00  0.00    +0.210 HD
ENDBRANCH   1  15
BRANCH   1  17
ATOM     17  C   LIG    1       26.278 -23.048   7.611  0.00  0.00    +0.117 C 
BRANCH  17  18
ATOM     18  N   LIG    1       25.454 -23.408   6.436  0.00  0.00    -0.311 NA
ATOM     19  H   LIG    1       25.331 -22.564   5.866  0.00  0.00    +0.122 HD
BRANCH  18  21
ATOM     20  C   LIG    1       23.934 -25.379   6.232  0.00  0.00    +0.024 C 
ATOM     21  C   LIG    1       24.138 -23.965   6.792  0.00  0.00    +0.051 C 
BRANCH  21  22
ATOM     22  C   LIG    1       22.992 -23.026   6.336  0.00  0.00    +0.023 C 
BRANCH  22  23
ATOM     23  C   LIG    1       23.118 -21.567   6.805  0.00  0.00    +0.036 C 
BRANCH  23  24
ATOM     24  C   LIG    1       23.338 -20.596   5.662  0.00  0.00    -0.047 A 
ATOM     25  C   LIG    1       24.460 -20.722   4.831  0.00  0.00    +0.003 A 
ATOM     26  C   LIG    1       24.675 -19.825   3.781  0.00  0.00    +0.000 A 
ATOM     27  C   LIG    1       23.768 -18.794   3.547  0.00  0.00    +0.000 A 
ATOM     28  C   LIG    1       22.636 -18.670   4.351  0.00  0.00    +0.000 A 
ATOM     29  C   LIG    1       22.419 -19.570   5.397  0.00  0.00    +0.003 A 
ENDBRANCH  23  24
ENDBRANCH  22  23
ENDBRANCH  21  22
ENDBRANCH  18  21
ENDBRANCH  17  18
ENDBRANCH   1  17
TORSDOF 10
ENDMDL
MODEL 2
REMARK VINA RESULT:      -9.8      1.790      3.882
REMARK  Name = *****
REMARK                            x       y       z     vdW  Elec       q    Type
REMARK                         _______ _______ _______ _____ _____    ______ ____
ROOT
ATOM      1  C   LIG    1       28.301 -19.846   5.494  0.00  0.00    +0.158 C 
ENDROOT
BRANCH   1   2
ATOM      2  C   LIG    1       29.286 -19.621   6.636  0.00  0.00    -0.017 A 
ATOM      3  C   LIG    1       29.827 -20.708   7.345  0.00  0.00    +0.023 A 
ATOM      4  C   LIG    1       30.674 -20.526   8.453  0.00  0.00    +0.078 A 
ATOM      5  C   LIG    1       31.011 -19.222   8.842  0.00  0.00    +0.129 A 
ATOM      6  C   LIG    1       30.504 -18.129   8.137  0.00  0.00    +0.046 A 
ATOM      7  C   LIG    1       29.649 -18.327   7.044  0.00  0.00    +0.010 A 
BRANCH   4   8
ATOM      8  C   LIG    1       31.144 -21.757   9.151  0.00  0.00    +0.245 C 
ATOM      9  O   LIG    1       30.769 -22.029  10.295  0.00  0.00    -0.270 OA
ATOM     10  N   LIG    1       31.997 -22.581   8.490  0.00  0.00    -0.325 N 
ATOM     11  H   LIG    1       32.329 -23.420   8.941  0.00  0.00    +0.145 HD
ATOM     12  H   LIG    1       32.280 -22.370   7.537  0.00  0.00    +0.145 HD
ENDBRANCH   4   8
BRANCH   5  13
ATOM     13  O   LIG    1       31.842 -18.997   9.909  0.00  0.00    -0.506 OA
ATOM     14  H   LIG    1       32.143 -19.851  10.264  0.00  0.00    +0.292 HD
ENDBRANCH   5  13
ENDBRANCH   1   2
BRANCH   1  15
ATOM     15  O   LIG    1       28.184 -18.641   4.727  0.00  0.00    -0.386 OA
ATOM     16  H   LIG    1       27.319 -18.650   4.285  0.00  0.00    +0.210 HD
ENDBRANCH   1  15
BRANCH   1  17
ATOM     17  C   LIG    1       26.893 -20.284   5.982  0.00  0.00    +0.117 C 
BRANCH  17  18
ATOM     18  N   LIG    1       25.894 -20.357   4.894  0.00  0.00    -0.311 NA
ATOM     19  H   LIG    1       25.854 -19.439   4.439  0.00  0.00    +0.122 HD
BRANCH  18  21
ATOM     20  C   LIG    1       23.448 -19.880   4.726  0.00  0.00    +0.024 C 
ATOM     21  C   LIG    1       24.549 -20.741   5.357  0.00  0.00    +0.051 C 
BRANCH  21  22
ATOM     22  C   LIG    1       24.458 -20.698   6.904  0.00  0.00    +0.023 C 
BRANCH  22  23
ATOM     23  C   LIG    1       23.706 -21.876   7.547  0.00  0.00    +0.036 C 
BRANCH  23  24
ATOM     24  C   LIG    1       24.232 -23.226   7.101  0.00  0.00    -0.047 A 
ATOM     25  C   LIG    1       25.598 -23.525   7.208  0.00  0.00    +0.003 A 
ATOM     26  C   LIG    1       26.092 -24.764   6.791  0.00  0.00    +0.000 A 
ATOM     27  C   LIG    1       25.226 -25.720   6.264  0.00  0.00    +0.000 A 
ATOM     28  C   LIG    1       23.863 -25.444   6.173  0.00  0.00    +0.000 A 
ATOM     29  C   LIG    1       23.368 -24.208   6.595  0.00  0.00    +0.003 A 
ENDBRANCH  23  24
ENDBRANCH  22  23
ENDBRANCH  21  22
ENDBRANCH  18  21
ENDBRANCH  17  18
ENDBRANCH   1  17
TORSDOF 10
ENDMDL
MODEL 3
REMARK VINA RESULT:      -9.5      1.600      1.968
REMARK  Name = *****
REMARK                            x       y       z     vdW  Elec       q    Type
REMARK                         _______ _______ _______ _____ _____    ______ ____
ROOT
ATOM      1  C   LIG    1       27.469 -20.554   6.189  0.00  0.00    +0.158 C 
ENDROOT
BRANCH   1   2
ATOM      2  C   LIG    1       28.757 -20.194   6.922  0.00  0.00    -0.017 A 
ATOM      3  C   LIG    1       29.466 -21.164   7.651  0.00  0.00    +0.023 A 
ATOM      4  C   LIG    1       30.612 -20.841   8.401  0.00  0.00    +0.078 A 
ATOM      5  C   LIG    1       31.076 -19.518   8.394  0.00  0.00    +0.129 A 
ATOM      6  C   LIG    1       30.400 -18.544   7.656  0.00  0.00    +0.046 A 
ATOM      7  C   LIG    1       29.251 -18.879   6.928  0.00  0.00    +0.010 A 
BRANCH   4   8
ATOM      8  C   LIG    1       31.246 -21.948   9.172  0.00  0.00    +0.245 C 
ATOM      9  O   LIG    1       31.009 -22.114  10.371  0.00  0.00    -0.270 OA
ATOM     10  N   LIG    1       32.096 -22.779   8.516  0.00  0.00    -0.325 N 
ATOM     11  H   LIG    1       32.537 -23.537   9.015  0.00  0.00    +0.145 HD
ATOM     12  H   LIG    1       32.266 -22.659   7.521  0.00  0.00    +0.145 HD
ENDBRANCH   4   8
BRANCH   5  13
ATOM     13  O   LIG    1       32.194 -19.159   9.101  0.00  0.00    -0.506 OA
ATOM     14  H   LIG    1       32.980 -19.290   8.542  0.00  0.00    +0.292 HD
ENDBRANCH   5  13
ENDBRANCH   1   2
BRANCH   1  15
ATOM     15  O   LIG    1       27.345 -19.733   5.021  0.00  0.00    -0.386 OA
ATOM     16  H   LIG    1       27.860 -18.924   5.168  0.00  0.00    +0.210 HD
ENDBRANCH   1  15
BRANCH   1  17
ATOM     17  C   LIG    1       26.201 -20.389   7.072  0.00  0.00    +0.117 C 
BRANCH  17  18
ATOM     18  N   LIG    1       26.138 -21.356   8.190  0.00  0.00    -0.311 NA
ATOM     19  H   LIG    1       27.074 -21.756   8.314  0.00  0.00    +0.122 HD
BRANCH  18  21
ATOM     20  C   LIG    1       25.605 -23.417   6.883  0.00  0.00    +0.024 C 
ATOM     21  C   LIG    1       25.160 -22.437   7.975  0.00  0.00    +0.051 C 
BRANCH  21  22
ATOM     22  C   LIG    1       23.756 -21.863   7.655  0.00  0.00    +0.023 C 
BRANCH  22  23
ATOM     23  C   LIG    1       23.223 -22.186   6.249  0.00  0.00    +0.036 C 
BRANCH  23  24
ATOM     24  C   LIG    1       23.306 -21.008   5.300  0.00  0.00    -0.047 A 
ATOM     25  C   LIG    1       24.174 -21.044   4.199  0.00  0.00    +0.003 A 
ATOM     26  C   LIG    1       24.263 -19.957   3.325  0.00  0.00    +0.000 A 
ATOM     27  C   LIG    1       23.484 -18.822   3.539  0.00  0.00    +0.000 A 
ATOM     28  C   LIG    1       22.602 -18.781   4.617  0.00  0.00    +0.000 A 
ATOM     29  C   LIG    1       22.508 -19.869   5.488  0.00  0.00    +0.003 A 
ENDBRANCH  23  24
ENDBRANCH  22  23
ENDBRANCH  21  22
ENDBRANCH  18  21
ENDBRANCH  17  18
ENDBRANCH   1  17
TORSDOF 10
ENDMDL
MODEL 4
REMARK VINA RESULT:      -9.1      1.942      4.027
REMARK  Name = *****
REMARK                            x       y       z     vdW  Elec       q    Type
REMARK                         _______ _______ _______ _____ _____    ______ ____
ROOT
ATOM      1  C   LIG    1       28.077 -19.924   5.559  0.00  0.00    +0.158 C 
ENDROOT
BRANCH   1   2
ATOM      2  C   LIG    1       29.042 -20.232   6.698  0.00  0.00    -0.017 A 
ATOM      3  C   LIG    1       29.809 -19.213   7.288  0.00  0.00    +0.023 A 
ATOM      4  C   LIG    1       30.765 -19.483   8.285  0.00  0.00    +0.078 A 
ATOM      5  C   LIG    1       30.934 -20.804   8.722  0.00  0.00    +0.129 A 
ATOM      6  C   LIG    1       30.166 -21.828   8.165  0.00  0.00    +0.046 A 
ATOM      7  C   LIG    1       29.229 -21.544   7.162  0.00  0.00    +0.010 A 
BRANCH   4   8
ATOM      8  C   LIG    1       31.549 -18.323   8.797  0.00  0.00    +0.245 C 
ATOM      9  O   LIG    1       32.150 -17.565   8.031  0.00  0.00    -0.270 OA
ATOM     10  N   LIG    1       31.583 -18.116  10.139  0.00  0.00    -0.325 N 
ATOM     11  H   LIG    1       32.106 -17.337  10.510  0.00  0.00    +0.145 HD
ATOM     12  H   LIG    1       31.062 -18.723  10.765  0.00  0.00    +0.145 HD
ENDBRANCH   4   8
BRANCH   5  13
ATOM     13  O   LIG    1       31.846 -21.112   9.698  0.00  0.00    -0.506 OA
ATOM     14  H   LIG    1       32.175 -20.289  10.098  0.00  0.00    +0.292 HD
ENDBRANCH   5  13
ENDBRANCH   1   2
BRANCH   1  15
ATOM     15  O   LIG    1       28.280 -18.575   5.119  0.00  0.00    -0.386 OA
ATOM     16  H   LIG    1       27.501 -18.056   5.375  0.00  0.00    +0.210 HD
ENDBRANCH   1  15
BRANCH   1  17
ATOM     17  C   LIG    1       26.587 -20.117   5.956  0.00  0.00    +0.117 C 
BRANCH  17  18
ATOM     18  N   LIG    1       25.753 -20.649   4.856  0.00  0.00    -0.311 NA
ATOM     19  H   LIG    1       25.861 -20.027   4.048  0.00  0.00    +0.122 HD
BRANCH  18  21
ATOM     20  C   LIG    1       23.461 -19.734   4.474  0.00  0.00    +0.024 C 
ATOM     21  C   LIG    1       24.327 -20.767   5.206  0.00  0.00    +0.051 C 
BRANCH  21  22
ATOM     22  C   LIG    1       24.118 -20.669   6.738  0.00  0.00    +0.023 C 
BRANCH  22  23
ATOM     23  C   LIG    1       23.416 -21.877   7.380  0.00  0.00    +0.036 C 
BRANCH  23  24
ATOM     24  C   LIG    1       24.074 -23.197   7.032  0.00  0.00    -0.047 A 
ATOM     25  C   LIG    1       25.451 -23.377   7.231  0.00  0.00    +0.003 A 
ATOM     26  C   LIG    1       26.067 -24.587   6.903  0.00  0.00    +0.000 A 
ATOM     27  C   LIG    1       25.315 -25.634   6.375  0.00  0.00    +0.000 A 
ATOM     28  C   LIG    1       23.942 -25.477   6.193  0.00  0.00    +0.000 A 
ATOM     29  C   LIG    1       23.325 -24.269   6.525  0.00  0.00    +0.003 A 
ENDBRANCH  23  24
ENDBRANCH  22  23
ENDBRANCH  21  22
ENDBRANCH  18  21
ENDBRANCH  17  18
ENDBRANCH   1  17
TORSDOF 10
ENDMDL
MODEL 5
REMARK VINA RESULT:      -9.1      3.200      7.982
REMARK  Name = *****
REMARK                            x       y       z     vdW  Elec       q    Type
REMARK                         _______ _______ _______ _____ _____    ______ ____
ROOT
ATOM      1  C   LIG    1       26.961 -20.626   6.907  0.00  0.00    +0.158 C 
ENDROOT
BRANCH   1   2
ATOM      2  C   LIG    1       25.705 -21.490   6.916  0.00  0.00    -0.017 A 
ATOM      3  C   LIG    1       25.778 -22.871   6.663  0.00  0.00    +0.023 A 
ATOM      4  C   LIG    1       24.626 -23.675   6.586  0.00  0.00    +0.078 A 
ATOM      5  C   LIG    1       23.373 -23.086   6.799  0.00  0.00    +0.129 A 
ATOM      6  C   LIG    1       23.279 -21.721   7.077  0.00  0.00    +0.046 A 
ATOM      7  C   LIG    1       24.435 -20.931   7.134  0.00  0.00    +0.010 A 
BRANCH   4   8
ATOM      8  C   LIG    1       24.832 -25.116   6.263  0.00  0.00    +0.245 C 
ATOM      9  O   LIG    1       25.633 -25.808   6.896  0.00  0.00    -0.270 OA
ATOM     10  N   LIG    1       24.109 -25.654   5.247  0.00  0.00    -0.325 N 
ATOM     11  H   LIG    1       24.229 -26.627   5.010  0.00  0.00    +0.145 HD
ATOM     12  H   LIG    1       23.427 -25.089   4.747  0.00  0.00    +0.145 HD
ENDBRANCH   4   8
BRANCH   5  13
ATOM     13  O   LIG    1       22.225 -23.833   6.745  0.00  0.00    -0.506 OA
ATOM     14  H   LIG    1       21.584 -23.391   6.161  0.00  0.00    +0.292 HD
ENDBRANCH   5  13
ENDBRANCH   1   2
BRANCH   1  15
ATOM     15  O   LIG    1       27.326 -20.337   5.552  0.00  0.00    -0.386 OA
ATOM     16  H   LIG    1       26.813 -19.565   5.262  0.00  0.00    +0.210 HD
ENDBRANCH   1  15
BRANCH   1  17
ATOM     17  C   LIG    1       28.163 -21.292   7.634  0.00  0.00    +0.117 C 
BRANCH  17  18
ATOM     18  N   LIG    1       29.463 -21.013   6.987  0.00  0.00    -0.311 NA
ATOM     19  H   LIG    1       29.854 -21.903   6.663  0.00  0.00    +0.122 HD
BRANCH  18  21
ATOM     20  C   LIG    1       31.036 -21.302   8.905  0.00  0.00    +0.024 C 
ATOM     21  C   LIG    1       30.428 -20.341   7.876  0.00  0.00    +0.051 C 
BRANCH  21  22
ATOM     22  C   LIG    1       29.781 -19.122   8.582  0.00  0.00    +0.023 C 
BRANCH  22  23
ATOM     23  C   LIG    1       30.455 -17.770   8.297  0.00  0.00    +0.036 C 
BRANCH  23  24
ATOM     24  C   LIG    1       31.201 -17.217   9.495  0.00  0.00    -0.047 A 
ATOM     25  C   LIG    1       30.811 -17.567  10.796  0.00  0.00    +0.003 A 
ATOM     26  C   LIG    1       31.487 -17.054  11.906  0.00  0.00    +0.000 A 
ATOM     27  C   LIG    1       32.564 -16.188  11.730  0.00  0.00    +0.000 A 
ATOM     28  C   LIG    1       32.977 -15.850  10.443  0.00  0.00    +0.000 A 
ATOM     29  C   LIG    1       32.304 -16.366   9.333  0.00  0.00    +0.003 A 
ENDBRANCH  23  24
ENDBRANCH  22  23
ENDBRANCH  21  22
ENDBRANCH  18  21
ENDBRANCH  17  18
ENDBRANCH   1  17
TORSDOF 10
ENDMDL
MODEL 6
REMARK VINA RESULT:      -9.1      2.547      4.899
REMARK  Name = *****
REMARK                            x       y       z     vdW  Elec       q    Type
REMARK                         _______ _______ _______ _____ _____    ______ ____
ROOT
ATOM      1  C   LIG    1       28.016 -20.065   5.675  0.00  0.00    +0.158 C 
ENDROOT
BRANCH   1   2
ATOM      2  C   LIG    1       29.158 -19.832   6.658  0.00  0.00    -0.017 A 
ATOM      3  C   LIG    1       29.690 -20.894   7.409  0.00  0.00    +0.023 A 
ATOM      4  C   LIG    1       30.688 -20.693   8.381  0.00  0.00    +0.078 A 
ATOM      5  C   LIG    1       31.187 -19.399   8.581  0.00  0.00    +0.129 A 
ATOM      6  C   LIG    1       30.689 -18.333   7.829  0.00  0.00    +0.046 A 
ATOM      7  C   LIG    1       29.684 -18.548   6.876  0.00  0.00    +0.010 A 
BRANCH   4   8
ATOM      8  C   LIG    1       31.135 -21.892   9.145  0.00  0.00    +0.245 C 
ATOM      9  O   LIG    1       30.767 -22.087  10.307  0.00  0.00    -0.270 OA
ATOM     10  N   LIG    1       31.960 -22.775   8.526  0.00  0.00    -0.325 N 
ATOM     11  H   LIG    1       32.276 -23.594   9.022  0.00  0.00    +0.145 HD
ATOM     12  H   LIG    1       32.237 -22.628   7.559  0.00  0.00    +0.145 HD
ENDBRANCH   4   8
BRANCH   5  13
ATOM     13  O   LIG    1       32.167 -19.157   9.508  0.00  0.00    -0.506 OA
ATOM     14  H   LIG    1       32.115 -19.829  10.209  0.00  0.00    +0.292 HD
ENDBRANCH   5  13
ENDBRANCH   1   2
BRANCH   1  15
ATOM     15  O   LIG    1       27.881 -18.918   4.826  0.00  0.00    -0.386 OA
ATOM     16  H   LIG    1       28.333 -18.173   5.256  0.00  0.00    +0.210 HD
ENDBRANCH   1  15
BRANCH   1  17
ATOM     17  C   LIG    1       26.658 -20.348   6.377  0.00  0.00    +0.117 C 
BRANCH  17  18
ATOM     18  N   LIG    1       26.102 -21.681   6.056  0.00  0.00    -0.311 NA
ATOM     19  H   LIG    1       25.425 -21.567   5.296  0.00  0.00    +0.122 HD
BRANCH  18  21
ATOM     20  C   LIG    1       25.797 -21.655   8.535  0.00  0.00    +0.024 C 
ATOM     21  C   LIG    1       25.455 -22.338   7.205  0.00  0.00    +0.051 C 
BRANCH  21  22
ATOM     22  C   LIG    1       25.808 -23.846   7.258  0.00  0.00    +0.023 C 
BRANCH  22  23
ATOM     23  C   LIG    1       25.461 -24.643   5.990  0.00  0.00    +0.036 C 
BRANCH  23  24
ATOM     24  C   LIG    1       25.267 -26.123   6.256  0.00  0.00    -0.047 A 
ATOM     25  C   LIG    1       25.988 -26.760   7.276  0.00  0.00    +0.003 A 
ATOM     26  C   LIG    1       25.822 -28.125   7.522  0.00  0.00    +0.000 A 
ATOM     27  C   LIG    1       24.931 -28.870   6.754  0.00  0.00    +0.000 A 
ATOM     28  C   LIG    1       24.191 -28.246   5.751  0.00  0.00    +0.000 A 
ATOM     29  C   LIG    1       24.353 -26.880   5.509  0.00  0.00    +0.003 A 
ENDBRANCH  23  24
ENDBRANCH  22  23
ENDBRANCH  21  22
ENDBRANCH  18  21
ENDBRANCH  17  18
ENDBRANCH   1  17
TORSDOF 10
ENDMDL
MODEL 7
REMARK VINA RESULT:      -9.1      2.189      2.806
REMARK  Name = *****
REMARK                            x       y       z     vdW  Elec       q    Type
REMARK                         _______ _______ _______ _____ _____    ______ ____
ROOT
ATOM      1  C   LIG    1       28.142 -20.552   7.041  0.00  0.00    +0.158 C 
ENDROOT
BRANCH   1   2
ATOM      2  C   LIG    1       29.378 -19.759   7.452  0.00  0.00    -0.017 A 
ATOM      3  C   LIG    1       29.429 -19.093   8.688  0.00  0.00    +0.023 A 
ATOM      4  C   LIG    1       30.523 -18.290   9.057  0.00  0.00    +0.078 A 
ATOM      5  C   LIG    1       31.607 -18.177   8.176  0.00  0.00    +0.129 A 
ATOM      6  C   LIG    1       31.588 -18.849   6.953  0.00  0.00    +0.046 A 
ATOM      7  C   LIG    1       30.483 -19.633   6.594  0.00  0.00    +0.010 A 
BRANCH   4   8
ATOM      8  C   LIG    1       30.436 -17.596  10.374  0.00  0.00    +0.245 C 
ATOM      9  O   LIG    1       29.968 -16.459  10.471  0.00  0.00    -0.270 OA
ATOM     10  N   LIG    1       30.885 -18.253  11.474  0.00  0.00    -0.325 N 
ATOM     11  H   LIG    1       30.836 -17.806  12.377  0.00  0.00    +0.145 HD
ATOM     12  H   LIG    1       31.242 -19.202  11.396  0.00  0.00    +0.145 HD
ENDBRANCH   4   8
BRANCH   5  13
ATOM     13  O   LIG    1       32.700 -17.414   8.497  0.00  0.00    -0.506 OA
ATOM     14  H   LIG    1       32.420 -16.489   8.615  0.00  0.00    +0.292 HD
ENDBRANCH   5  13
ENDBRANCH   1   2
BRANCH   1  15
ATOM     15  O   LIG    1       27.757 -20.174   5.714  0.00  0.00    -0.386 OA
ATOM     16  H   LIG    1       27.626 -19.211   5.703  0.00  0.00    +0.210 HD
ENDBRANCH   1  15
BRANCH   1  17
ATOM     17  C   LIG    1       26.940 -20.346   8.004  0.00  0.00    +0.117 C 
BRANCH  17  18
ATOM     18  N   LIG    1       26.636 -21.541   8.821  0.00  0.00    -0.311 NA
ATOM     19  H   LIG    1       27.446 -22.167   8.781  0.00  0.00    +0.122 HD
BRANCH  18  21
ATOM     20  C   LIG    1       25.724 -23.251   7.246  0.00  0.00    +0.024 C 
ATOM     21  C   LIG    1       25.428 -22.262   8.380  0.00  0.00    +0.051 C 
BRANCH  21  22
ATOM     22  C   LIG    1       24.309 -21.273   7.965  0.00  0.00    +0.023 C 
BRANCH  22  23
ATOM     23  C   LIG    1       23.483 -21.698   6.740  0.00  0.00    +0.036 C 
BRANCH  23  24
ATOM     24  C   LIG    1       23.538 -20.688   5.611  0.00  0.00    -0.047 A 
ATOM     25  C   LIG    1       22.536 -19.716   5.481  0.00  0.00    +0.003 A 
ATOM     26  C   LIG    1       22.574 -18.787   4.438  0.00  0.00    +0.000 A 
ATOM     27  C   LIG    1       23.616 -18.817   3.513  0.00  0.00    +0.000 A 
ATOM     28  C   LIG    1       24.630 -19.764   3.644  0.00  0.00    +0.000 A 
ATOM     29  C   LIG    1       24.595 -20.689   4.690  0.00  0.00    +0.003 A 
ENDBRANCH  23  24
ENDBRANCH  22  23
ENDBRANCH  21  22
ENDBRANCH  18  21
ENDBRANCH  17  18
ENDBRANCH   1  17
TORSDOF 10
ENDMDL
MODEL 8
REMARK VINA RESULT:      -9.0      3.238      7.816
REMARK  Name = *****
REMARK                            x       y       z     vdW  Elec       q    Type
REMARK                         _______ _______ _______ _____ _____    ______ ____
ROOT
ATOM      1  C   LIG    1       26.347 -21.531   8.355  0.00  0.00    +0.158 C 
ENDROOT
BRANCH   1   2
ATOM      2  C   LIG    1       25.187 -21.495   7.366  0.00  0.00    -0.017 A 
ATOM      3  C   LIG    1       25.258 -20.711   6.201  0.00  0.00    +0.023 A 
ATOM      4  C   LIG    1       24.173 -20.596   5.313  0.00  0.00    +0.078 A 
ATOM      5  C   LIG    1       22.998 -21.310   5.584  0.00  0.00    +0.129 A 
ATOM      6  C   LIG    1       22.914 -22.114   6.723  0.00  0.00    +0.046 A 
ATOM      7  C   LIG    1       23.999 -22.204   7.606  0.00  0.00    +0.010 A 
BRANCH   4   8
ATOM      8  C   LIG    1       24.356 -19.695   4.140  0.00  0.00    +0.245 C 
ATOM      9  O   LIG    1       23.440 -18.975   3.734  0.00  0.00    -0.270 OA
ATOM     10  N   LIG    1       25.566 -19.684   3.524  0.00  0.00    -0.325 N 
ATOM     11  H   LIG    1       25.715 -19.082   2.729  0.00  0.00    +0.145 HD
ATOM     12  H   LIG    1       26.328 -20.255   3.879  0.00  0.00    +0.145 HD
ENDBRANCH   4   8
BRANCH   5  13
ATOM     13  O   LIG    1       21.919 -21.237   4.742  0.00  0.00    -0.506 OA
ATOM     14  H   LIG    1       21.447 -22.088   4.754  0.00  0.00    +0.292 HD
ENDBRANCH   5  13
ENDBRANCH   1   2
BRANCH   1  15
ATOM     15  O   LIG    1       26.213 -20.445   9.280  0.00  0.00    -0.386 OA
ATOM     16  H   LIG    1       25.696 -20.760  10.040  0.00  0.00    +0.210 HD
ENDBRANCH   1  15
BRANCH   1  17
ATOM     17  C   LIG    1       27.737 -21.453   7.666  0.00  0.00    +0.117 C 
BRANCH  17  18
ATOM     18  N   LIG    1       28.687 -20.563   8.368  0.00  0.00    -0.311 NA
ATOM     19  H   LIG    1       28.413 -19.594   8.177  0.00  0.00    +0.122 HD
BRANCH  18  21
ATOM     20  C   LIG    1       30.890 -21.537   9.028  0.00  0.00    +0.024 C 
ATOM     21  C   LIG    1       30.090 -20.771   7.968  0.00  0.00    +0.051 C 
BRANCH  21  22
ATOM     22  C   LIG    1       30.779 -19.424   7.630  0.00  0.00    +0.023 C 
BRANCH  22  23
ATOM     23  C   LIG    1       30.112 -18.179   8.237  0.00  0.00    +0.036 C 
BRANCH  23  24
ATOM     24  C   LIG    1       30.927 -17.556   9.353  0.00  0.00    -0.047 A 
ATOM     25  C   LIG    1       32.148 -16.927   9.073  0.00  0.00    +0.003 A 
ATOM     26  C   LIG    1       32.910 -16.360  10.098  0.00  0.00    +0.000 A 
ATOM     27  C   LIG    1       32.459 -16.412  11.415  0.00  0.00    +0.000 A 
ATOM     28  C   LIG    1       31.237 -17.015  11.705  0.00  0.00    +0.000 A 
ATOM     29  C   LIG    1       30.472 -17.577  10.680  0.00  0.00    +0.003 A 
ENDBRANCH  23  24
ENDBRANCH  22  23
ENDBRANCH  21  22
ENDBRANCH  18  21
ENDBRANCH  17  18
ENDBRANCH   1  17
TORSDOF 10
ENDMDL
MODEL 9
REMARK VINA RESULT:      -8.9      2.549      5.489
REMARK  Name = *****
REMARK                            x       y       z     vdW  Elec       q    Type
REMARK                         _______ _______ _______ _____ _____    ______ ____
ROOT
ATOM      1  C   LIG    1       26.034 -21.921   8.450  0.00  0.00    +0.158 C 
ENDROOT
BRANCH   1   2
ATOM      2  C   LIG    1       25.321 -23.030   7.684  0.00  0.00    -0.017 A 
ATOM      3  C   LIG    1       26.012 -24.183   7.276  0.00  0.00    +0.023 A 
ATOM      4  C   LIG    1       25.397 -25.183   6.499  0.00  0.00    +0.078 A 
ATOM      5  C   LIG    1       24.048 -25.037   6.151  0.00  0.00    +0.129 A 
ATOM      6  C   LIG    1       23.336 -23.910   6.567  0.00  0.00    +0.046 A 
ATOM      7  C   LIG    1       23.967 -22.916   7.326  0.00  0.00    +0.010 A 
BRANCH   4   8
ATOM      8  C   LIG    1       26.250 -26.334   6.088  0.00  0.00    +0.245 C 
ATOM      9  O   LIG    1       26.571 -26.507   4.909  0.00  0.00    -0.270 OA
ATOM     10  N   LIG    1       26.672 -27.195   7.050  0.00  0.00    -0.325 N 
ATOM     11  H   LIG    1       27.251 -27.981   6.796  0.00  0.00    +0.145 HD
ATOM     12  H   LIG    1       26.432 -27.033   8.024  0.00  0.00    +0.145 HD
ENDBRANCH   4   8
BRANCH   5  13
ATOM     13  O   LIG    1       23.405 -25.991   5.405  0.00  0.00    -0.506 OA
ATOM     14  H   LIG    1       23.607 -25.849   4.464  0.00  0.00    +0.292 HD
ENDBRANCH   5  13
ENDBRANCH   1   2
BRANCH   1  15
ATOM     15  O   LIG    1       25.267 -20.714   8.360  0.00  0.00    -0.386 OA
ATOM     16  H   LIG    1       24.374 -20.902   8.694  0.00  0.00    +0.210 HD
ENDBRANCH   1  15
BRANCH   1  17
ATOM     17  C   LIG    1       27.475 -21.654   7.932  0.00  0.00    +0.117 C 
BRANCH  17  18
ATOM     18  N   LIG    1       27.708 -20.243   7.554  0.00  0.00    -0.311 NA
ATOM     19  H   LIG    1       26.810 -19.751   7.602  0.00  0.00    +0.122 HD
BRANCH  18  21
ATOM     20  C   LIG    1       29.490 -19.128   6.206  0.00  0.00    +0.024 C 
ATOM     21  C   LIG    1       28.291 -20.085   6.210  0.00  0.00    +0.051 C 
BRANCH  21  22
ATOM     22  C   LIG    1       27.221 -19.625   5.188  0.00  0.00    +0.023 C 
BRANCH  22  23
ATOM     23  C   LIG    1       26.096 -20.638   4.919  0.00  0.00    +0.036 C 
BRANCH  23  24
ATOM     24  C   LIG    1       24.741 -19.984   4.740  0.00  0.00    -0.047 A 
ATOM     25  C   LIG    1       23.671 -20.329   5.579  0.00  0.00    +0.003 A 
ATOM     26  C   LIG    1       22.416 -19.738   5.414  0.00  0.00    +0.000 A 
ATOM     27  C   LIG    1       22.216 -18.791   4.412  0.00  0.00    +0.000 A 
ATOM     28  C   LIG    1       23.275 -18.422   3.586  0.00  0.00    +0.000 A 
ATOM     29  C   LIG    1       24.532 -19.010   3.753  0.00  0.00    +0.003 A 
ENDBRANCH  23  24
ENDBRANCH  22  23
ENDBRANCH  21  22
ENDBRANCH  18  21
ENDBRANCH  17  18
ENDBRANCH   1  17
TORSDOF 10
ENDMDL
