MODEL 1
REMARK VINA RESULT:      -5.1      0.000      0.000
REMARK  Name = *****
REMARK                            x       y       z     vdW  Elec       q    Type
REMARK                         _______ _______ _______ _____ _____    ______ ____
ROOT
ATOM      1  C   LIG    1       25.313 -20.545   5.361  0.00  0.00    +0.149 A 
ATOM      2  C   LIG    1       26.377 -19.743   4.932  0.00  0.00    +0.117 A 
ATOM      3  C   LIG    1       27.612 -19.798   5.576  0.00  0.00    +0.123 A 
ATOM      4  C   LIG    1       27.828 -20.654   6.646  0.00  0.00    +0.046 A 
ATOM      5  C   LIG    1       26.792 -21.485   7.062  0.00  0.00    +0.010 A 
ATOM      6  C   LIG    1       25.550 -21.445   6.414  0.00  0.00    +0.072 A 
ENDROOT
BRANCH   1   7
ATOM      7  N   LIG    1       23.972 -20.518   4.635  0.00  0.00    -0.381 NA
ATOM      8  C   LIG    1       23.929 -21.562   3.512  0.00  0.00    +0.361 C 
ATOM      9  C   LIG    1       22.906 -20.873   5.674  0.00  0.00    +0.361 C 
BRANCH   7  11
ATOM     10  C   LIG    1       22.274 -18.599   4.438  0.00  0.00    +0.076 C 
ATOM     11  C   LIG    1       23.640 -19.139   4.034  0.00  0.00    +0.282 C 
ENDBRANCH   7  11
ENDBRANCH   1   7
BRANCH   3  12
ATOM     12  O   LIG    1       28.598 -18.986   5.102  0.00  0.00    -0.507 OA
ATOM     13  H   LIG    1       28.259 -18.076   5.013  0.00  0.00    +0.292 HD
ENDBRANCH   3  12
TORSDOF 3
ENDMDL
MODEL 2
REMARK VINA RESULT:      -4.6      0.865      1.457
REMARK  Name = *****
REMARK                            x       y       z     vdW  Elec       q    Type
REMARK                         _______ _______ _______ _____ _____    ______ ____
ROOT
ATOM      1  C   LIG    1       25.796 -20.250   5.343  0.00  0.00    +0.149 A 
ATOM      2  C   LIG    1       26.860 -19.456   4.898  0.00  0.00    +0.117 A 
ATOM      3  C   LIG    1       28.096 -19.498   5.541  0.00  0.00    +0.123 A 
ATOM      4  C   LIG    1       28.313 -20.335   6.627  0.00  0.00    +0.046 A 
ATOM      5  C   LIG    1       27.279 -21.159   7.059  0.00  0.00    +0.010 A 
ATOM      6  C   LIG    1       26.035 -21.131   6.413  0.00  0.00    +0.072 A 
ENDROOT
BRANCH   1   7
ATOM      7  N   LIG    1       24.454 -20.237   4.619  0.00  0.00    -0.381 NA
ATOM      8  C   LIG    1       24.342 -19.029   3.682  0.00  0.00    +0.361 C 
ATOM      9  C   LIG    1       24.399 -21.515   3.778  0.00  0.00    +0.361 C 
BRANCH   7  11
ATOM     10  C   LIG    1       22.047 -21.010   5.079  0.00  0.00    +0.076 C 
ATOM     11  C   LIG    1       23.251 -20.224   5.581  0.00  0.00    +0.282 C 
ENDBRANCH   7  11
ENDBRANCH   1   7
BRANCH   3  12
ATOM     12  O   LIG    1       29.080 -18.695   5.051  0.00  0.00    -0.507 OA
ATOM     13  H   LIG    1       29.549 -19.152   4.329  0.00  0.00    +0.292 HD
ENDBRANCH   3  12
TORSDOF 3
ENDMDL
MODEL 3
REMARK VINA RESULT:      -3.9      6.610      7.577
REMARK  Name = *****
REMARK                            x       y       z     vdW  Elec       q    Type
REMARK                         _______ _______ _______ _____ _____    ______ ____
ROOT
ATOM      1  C   LIG    1       25.876 -13.351   3.860  0.00  0.00    +0.149 A 
ATOM      2  C   LIG    1       26.653 -12.717   4.838  0.00  0.00    +0.117 A 
ATOM      3  C   LIG    1       28.044 -12.784   4.794  0.00  0.00    +0.123 A 
ATOM      4  C   LIG    1       28.700 -13.466   3.778  0.00  0.00    +0.046 A 
ATOM      5  C   LIG    1       27.945 -14.070   2.778  0.00  0.00    +0.010 A 
ATOM      6  C   LIG    1       26.545 -14.000   2.807  0.00  0.00    +0.072 A 
ENDROOT
BRANCH   1   7
ATOM      7  N   LIG    1       24.355 -13.247   3.881  0.00  0.00    -0.381 NA
ATOM      8  C   LIG    1       23.716 -14.571   4.314  0.00  0.00    +0.361 C 
ATOM      9  C   LIG    1       24.005 -12.174   4.915  0.00  0.00    +0.361 C 
BRANCH   7  11
ATOM     10  C   LIG    1       24.174 -11.447   2.056  0.00  0.00    +0.076 C 
ATOM     11  C   LIG    1       23.761 -12.838   2.519  0.00  0.00    +0.282 C 
ENDBRANCH   7  11
ENDBRANCH   1   7
BRANCH   3  12
ATOM     12  O   LIG    1       28.730 -12.144   5.781  0.00  0.00    -0.507 OA
ATOM     13  H   LIG    1       28.764 -11.189   5.592  0.00  0.00    +0.292 HD
ENDBRANCH   3  12
TORSDOF 3
ENDMDL
MODEL 4
REMARK VINA RESULT:      -3.6      6.910      8.649
REMARK  Name = *****
REMARK                            x       y       z     vdW  Elec       q    Type
REMARK                         _______ _______ _______ _____ _____    ______ ____
ROOT
ATOM      1  C   LIG    1       26.076 -13.257   3.671  0.00  0.00    +0.149 A 
ATOM      2  C   LIG    1       25.160 -12.668   4.551  0.00  0.00    +0.117 A 
ATOM      3  C   LIG    1       24.040 -11.995   4.065  0.00  0.00    +0.123 A 
ATOM      4  C   LIG    1       23.792 -11.901   2.703  0.00  0.00    +0.046 A 
ATOM      5  C   LIG    1       24.672 -12.512   1.816  0.00  0.00    +0.010 A 
ATOM      6  C   LIG    1       25.796 -13.200   2.294  0.00  0.00    +0.072 A 
ENDROOT
BRANCH   1   7
ATOM      7  N   LIG    1       27.281 -14.028   4.198  0.00  0.00    -0.381 NA
ATOM      8  C   LIG    1       27.299 -14.048   5.730  0.00  0.00    +0.361 C 
ATOM      9  C   LIG    1       27.135 -15.465   3.691  0.00  0.00    +0.361 C 
BRANCH   7  11
ATOM     10  C   LIG    1       29.055 -12.180   4.405  0.00  0.00    +0.076 C 
ATOM     11  C   LIG    1       28.624 -13.460   3.700  0.00  0.00    +0.282 C 
ENDBRANCH   7  11
ENDBRANCH   1   7
BRANCH   3  12
ATOM     12  O   LIG    1       23.196 -11.447   4.983  0.00  0.00    -0.507 OA
ATOM     13  H   LIG    1       22.352 -11.935   4.987  0.00  0.00    +0.292 HD
ENDBRANCH   3  12
TORSDOF 3
ENDMDL
MODEL 5
REMARK VINA RESULT:      -3.6      6.784      8.475
REMARK  Name = *****
REMARK                            x       y       z     vdW  Elec       q    Type
REMARK                         _______ _______ _______ _____ _____    ______ ____
ROOT
ATOM      1  C   LIG    1       26.078 -13.065   3.667  0.00  0.00    +0.149 A 
ATOM      2  C   LIG    1       25.128 -12.606   4.588  0.00  0.00    +0.117 A 
ATOM      3  C   LIG    1       23.994 -11.920   4.155  0.00  0.00    +0.123 A 
ATOM      4  C   LIG    1       23.766 -11.684   2.807  0.00  0.00    +0.046 A 
ATOM      5  C   LIG    1       24.680 -12.166   1.876  0.00  0.00    +0.010 A 
ATOM      6  C   LIG    1       25.819 -12.866   2.299  0.00  0.00    +0.072 A 
ENDROOT
BRANCH   1   7
ATOM      7  N   LIG    1       27.300 -13.851   4.131  0.00  0.00    -0.381 NA
ATOM      8  C   LIG    1       28.597 -13.193   3.647  0.00  0.00    +0.361 C 
ATOM      9  C   LIG    1       27.280 -13.826   5.661  0.00  0.00    +0.361 C 
BRANCH   7  11
ATOM     10  C   LIG    1       25.893 -15.875   3.406  0.00  0.00    +0.076 C 
ATOM     11  C   LIG    1       27.288 -15.317   3.657  0.00  0.00    +0.282 C 
ENDBRANCH   7  11
ENDBRANCH   1   7
BRANCH   3  12
ATOM     12  O   LIG    1       23.117 -11.502   5.111  0.00  0.00    -0.507 OA
ATOM     13  H   LIG    1       23.269 -11.999   5.936  0.00  0.00    +0.292 HD
ENDBRANCH   3  12
TORSDOF 3
ENDMDL
MODEL 6
REMARK VINA RESULT:      -3.4      1.183      1.887
REMARK  Name = *****
REMARK                            x       y       z     vdW  Elec       q    Type
REMARK                         _______ _______ _______ _____ _____    ______ ____
ROOT
ATOM      1  C   LIG    1       25.772 -20.061   4.985  0.00  0.00    +0.149 A 
ATOM      2  C   LIG    1       26.479 -20.864   5.889  0.00  0.00    +0.117 A 
ATOM      3  C   LIG    1       27.818 -20.602   6.176  0.00  0.00    +0.123 A 
ATOM      4  C   LIG    1       28.484 -19.534   5.589  0.00  0.00    +0.046 A 
ATOM      5  C   LIG    1       27.786 -18.704   4.718  0.00  0.00    +0.010 A 
ATOM      6  C   LIG    1       26.437 -18.952   4.431  0.00  0.00    +0.072 A 
ENDROOT
BRANCH   1   7
ATOM      7  N   LIG    1       24.297 -20.319   4.698  0.00  0.00    -0.381 NA
ATOM      8  C   LIG    1       24.112 -21.572   3.834  0.00  0.00    +0.361 C 
ATOM      9  C   LIG    1       23.624 -20.555   6.052  0.00  0.00    +0.361 C 
BRANCH   7  11
ATOM     10  C   LIG    1       22.236 -18.790   4.573  0.00  0.00    +0.076 C 
ATOM     11  C   LIG    1       23.604 -19.134   3.998  0.00  0.00    +0.282 C 
ENDBRANCH   7  11
ENDBRANCH   1   7
BRANCH   3  12
ATOM     12  O   LIG    1       28.438 -21.429   7.062  0.00  0.00    -0.507 OA
ATOM     13  H   LIG    1       27.777 -21.830   7.655  0.00  0.00    +0.292 HD
ENDBRANCH   3  12
TORSDOF 3
ENDMDL
MODEL 7
REMARK VINA RESULT:      -3.1      5.078      6.548
REMARK  Name = *****
REMARK                            x       y       z     vdW  Elec       q    Type
REMARK                         _______ _______ _______ _____ _____    ______ ____
ROOT
ATOM      1  C   LIG    1       24.793 -14.844   3.932  0.00  0.00    +0.149 A 
ATOM      2  C   LIG    1       25.643 -15.854   3.466  0.00  0.00    +0.117 A 
ATOM      3  C   LIG    1       25.223 -17.183   3.442  0.00  0.00    +0.123 A 
ATOM      4  C   LIG    1       23.950 -17.542   3.865  0.00  0.00    +0.046 A 
ATOM      5  C   LIG    1       23.079 -16.547   4.296  0.00  0.00    +0.010 A 
ATOM      6  C   LIG    1       23.489 -15.206   4.314  0.00  0.00    +0.072 A 
ENDROOT
BRANCH   1   7
ATOM      7  N   LIG    1       25.233 -13.384   3.923  0.00  0.00    -0.381 NA
ATOM      8  C   LIG    1       24.130 -12.470   4.466  0.00  0.00    +0.361 C 
ATOM      9  C   LIG    1       26.448 -13.289   4.849  0.00  0.00    +0.361 C 
BRANCH   7  11
ATOM     10  C   LIG    1       24.560 -12.067   1.822  0.00  0.00    +0.076 C 
ATOM     11  C   LIG    1       25.637 -12.886   2.521  0.00  0.00    +0.282 C 
ENDBRANCH   7  11
ENDBRANCH   1   7
BRANCH   3  12
ATOM     12  O   LIG    1       26.107 -18.108   2.977  0.00  0.00    -0.507 OA
ATOM     13  H   LIG    1       26.055 -18.153   2.005  0.00  0.00    +0.292 HD
ENDBRANCH   3  12
TORSDOF 3
ENDMDL
MODEL 8
REMARK VINA RESULT:      -3.1      5.844      6.912
REMARK  Name = *****
REMARK                            x       y       z     vdW  Elec       q    Type
REMARK                         _______ _______ _______ _____ _____    ______ ____
ROOT
ATOM      1  C   LIG    1       25.599 -13.871   3.752  0.00  0.00    +0.149 A 
ATOM      2  C   LIG    1       25.913 -15.221   3.547  0.00  0.00    +0.117 A 
ATOM      3  C   LIG    1       27.208 -15.690   3.762  0.00  0.00    +0.123 A 
ATOM      4  C   LIG    1       28.217 -14.842   4.197  0.00  0.00    +0.046 A 
ATOM      5  C   LIG    1       27.914 -13.506   4.441  0.00  0.00    +0.010 A 
ATOM      6  C   LIG    1       26.613 -13.026   4.238  0.00  0.00    +0.072 A 
ENDROOT
BRANCH   1   7
ATOM      7  N   LIG    1       24.175 -13.361   3.557  0.00  0.00    -0.381 NA
ATOM      8  C   LIG    1       23.147 -14.441   3.911  0.00  0.00    +0.361 C 
ATOM      9  C   LIG    1       23.998 -12.183   4.518  0.00  0.00    +0.361 C 
BRANCH   7  11
ATOM     10  C   LIG    1       24.362 -11.449   1.850  0.00  0.00    +0.076 C 
ATOM     11  C   LIG    1       23.901 -12.876   2.120  0.00  0.00    +0.282 C 
ENDBRANCH   7  11
ENDBRANCH   1   7
BRANCH   3  12
ATOM     12  O   LIG    1       27.435 -17.014   3.538  0.00  0.00    -0.507 OA
ATOM     13  H   LIG    1       26.891 -17.318   2.789  0.00  0.00    +0.292 HD
ENDBRANCH   3  12
TORSDOF 3
ENDMDL
MODEL 9
REMARK VINA RESULT:      -3.0      4.883      6.458
REMARK  Name = *****
REMARK                            x       y       z     vdW  Elec       q    Type
REMARK                         _______ _______ _______ _____ _____    ______ ____
ROOT
ATOM      1  C   LIG    1       25.120 -15.169   3.702  0.00  0.00    +0.149 A 
ATOM      2  C   LIG    1       25.746 -16.374   3.360  0.00  0.00    +0.117 A 
ATOM      3  C   LIG    1       25.080 -17.589   3.513  0.00  0.00    +0.123 A 
ATOM      4  C   LIG    1       23.778 -17.640   3.992  0.00  0.00    +0.046 A 
ATOM      5  C   LIG    1       23.128 -16.450   4.302  0.00  0.00    +0.010 A 
ATOM      6  C   LIG    1       23.786 -15.222   4.142  0.00  0.00    +0.072 A 
ENDROOT
BRANCH   1   7
ATOM      7  N   LIG    1       25.830 -13.834   3.500  0.00  0.00    -0.381 NA
ATOM      8  C   LIG    1       25.022 -12.912   2.580  0.00  0.00    +0.361 C 
ATOM      9  C   LIG    1       25.933 -13.181   4.880  0.00  0.00    +0.361 C 
BRANCH   7  11
ATOM     10  C   LIG    1       28.335 -13.321   3.747  0.00  0.00    +0.076 C 
ATOM     11  C   LIG    1       27.248 -13.988   2.916  0.00  0.00    +0.282 C 
ENDBRANCH   7  11
ENDBRANCH   1   7
BRANCH   3  12
ATOM     12  O   LIG    1       25.756 -18.718   3.161  0.00  0.00    -0.507 OA
ATOM     13  H   LIG    1       25.874 -18.742   2.194  0.00  0.00    +0.292 HD
ENDBRANCH   3  12
TORSDOF 3
ENDMDL
