MODEL 1
REMARK VINA RESULT:      -4.9      0.000      0.000
REMARK  Name = *****
REMARK                            x       y       z     vdW  Elec       q    Type
REMARK                         _______ _______ _______ _____ _____    ______ ____
ROOT
ATOM      1  N   LIG    1       24.529 -17.473   3.767  0.00  0.00    -0.234 N 
ATOM      2  C   LIG    1       23.346 -18.139   4.057  0.00  0.00    +0.408 C 
ATOM      3  O   LIG    1       22.283 -17.691   4.452  0.00  0.00    -0.226 OA
ATOM      4  O   LIG    1       23.504 -19.485   3.831  0.00  0.00    -0.443 OA
ATOM      5  C   LIG    1       24.890 -19.752   3.581  0.00  0.00    +0.221 C 
ATOM      6  C   LIG    1       25.487 -18.404   3.249  0.00  0.00    +0.164 C 
ENDROOT
BRANCH   1  10
ATOM      7  C   LIG    1       27.615 -13.628   3.110  0.00  0.00    +0.044 C 
ATOM      8  C   LIG    1       26.258 -14.151   3.479  0.00  0.00    -0.049 A 
ATOM      9  C   LIG    1       26.007 -15.535   3.453  0.00  0.00    +0.027 A 
ATOM     10  C   LIG    1       24.754 -16.068   3.801  0.00  0.00    +0.040 A 
ATOM     11  C   LIG    1       23.750 -15.166   4.174  0.00  0.00    +0.024 A 
ATOM     12  C   LIG    1       23.983 -13.787   4.188  0.00  0.00    +0.002 A 
ATOM     13  C   LIG    1       25.231 -13.280   3.843  0.00  0.00    +0.003 A 
ENDBRANCH   1  10
BRANCH   5  14
ATOM     14  C   LIG    1       25.502 -20.383   4.831  0.00  0.00    +0.202 C 
BRANCH  14  15
ATOM     15  O   LIG    1       26.906 -20.133   4.861  0.00  0.00    -0.391 OA
ATOM     16  H   LIG    1       27.334 -20.976   5.103  0.00  0.00    +0.210 HD
ENDBRANCH  14  15
ENDBRANCH   5  14
TORSDOF 3
ENDMDL
MODEL 2
REMARK VINA RESULT:      -4.6      0.641      1.713
REMARK  Name = *****
REMARK                            x       y       z     vdW  Elec       q    Type
REMARK                         _______ _______ _______ _____ _____    ______ ____
ROOT
ATOM      1  N   LIG    1       24.875 -17.355   3.646  0.00  0.00    -0.234 N 
ATOM      2  C   LIG    1       23.601 -17.771   4.005  0.00  0.00    +0.408 C 
ATOM      3  O   LIG    1       22.659 -17.112   4.414  0.00  0.00    -0.226 OA
ATOM      4  O   LIG    1       23.491 -19.130   3.837  0.00  0.00    -0.443 OA
ATOM      5  C   LIG    1       24.790 -19.666   3.554  0.00  0.00    +0.221 C 
ATOM      6  C   LIG    1       25.617 -18.472   3.140  0.00  0.00    +0.164 C 
ENDROOT
BRANCH   1  10
ATOM      7  C   LIG    1       23.995 -12.477   4.062  0.00  0.00    +0.044 C 
ATOM      8  C   LIG    1       24.955 -13.603   3.811  0.00  0.00    -0.049 A 
ATOM      9  C   LIG    1       24.501 -14.934   3.846  0.00  0.00    +0.027 A 
ATOM     10  C   LIG    1       25.363 -16.018   3.607  0.00  0.00    +0.040 A 
ATOM     11  C   LIG    1       26.705 -15.727   3.336  0.00  0.00    +0.024 A 
ATOM     12  C   LIG    1       27.172 -14.409   3.315  0.00  0.00    +0.002 A 
ATOM     13  C   LIG    1       26.302 -13.350   3.551  0.00  0.00    +0.003 A 
ENDBRANCH   1  10
BRANCH   5  14
ATOM     14  C   LIG    1       25.323 -20.352   4.811  0.00  0.00    +0.202 C 
BRANCH  14  15
ATOM     15  O   LIG    1       26.746 -20.261   4.846  0.00  0.00    -0.391 OA
ATOM     16  H   LIG    1       27.043 -20.180   3.919  0.00  0.00    +0.210 HD
ENDBRANCH  14  15
ENDBRANCH   5  14
TORSDOF 3
ENDMDL
MODEL 3
REMARK VINA RESULT:      -4.1      2.436      5.560
REMARK  Name = *****
REMARK                            x       y       z     vdW  Elec       q    Type
REMARK                         _______ _______ _______ _____ _____    ______ ____
ROOT
ATOM      1  N   LIG    1       24.775 -15.611   3.726  0.00  0.00    -0.234 N 
ATOM      2  C   LIG    1       23.895 -14.717   4.321  0.00  0.00    +0.408 C 
ATOM      3  O   LIG    1       22.846 -14.936   4.903  0.00  0.00    -0.226 OA
ATOM      4  O   LIG    1       24.368 -13.435   4.178  0.00  0.00    -0.443 OA
ATOM      5  C   LIG    1       25.489 -13.454   3.285  0.00  0.00    +0.221 C 
ATOM      6  C   LIG    1       25.921 -14.901   3.239  0.00  0.00    +0.164 C 
ENDROOT
BRANCH   1  10
ATOM      7  C   LIG    1       22.099 -19.718   4.567  0.00  0.00    +0.044 C 
ATOM      8  C   LIG    1       23.381 -19.076   4.125  0.00  0.00    -0.049 A 
ATOM      9  C   LIG    1       23.498 -17.674   4.117  0.00  0.00    +0.027 A 
ATOM     10  C   LIG    1       24.684 -17.031   3.721  0.00  0.00    +0.040 A 
ATOM     11  C   LIG    1       25.754 -17.840   3.325  0.00  0.00    +0.024 A 
ATOM     12  C   LIG    1       25.644 -19.234   3.312  0.00  0.00    +0.002 A 
ATOM     13  C   LIG    1       24.463 -19.851   3.711  0.00  0.00    +0.003 A 
ENDBRANCH   1  10
BRANCH   5  14
ATOM     14  C   LIG    1       25.042 -12.923   1.923  0.00  0.00    +0.202 C 
BRANCH  14  15
ATOM     15  O   LIG    1       23.933 -12.041   2.088  0.00  0.00    -0.391 OA
ATOM     16  H   LIG    1       23.539 -12.248   2.957  0.00  0.00    +0.210 HD
ENDBRANCH  14  15
ENDBRANCH   5  14
TORSDOF 3
ENDMDL
MODEL 4
REMARK VINA RESULT:      -4.1      2.711      5.245
REMARK  Name = *****
REMARK                            x       y       z     vdW  Elec       q    Type
REMARK                         _______ _______ _______ _____ _____    ______ ____
ROOT
ATOM      1  N   LIG    1       24.826 -15.755   3.806  0.00  0.00    -0.234 N 
ATOM      2  C   LIG    1       26.160 -15.690   3.427  0.00  0.00    +0.408 C 
ATOM      3  O   LIG    1       26.949 -16.596   3.217  0.00  0.00    -0.226 OA
ATOM      4  O   LIG    1       26.542 -14.377   3.296  0.00  0.00    -0.443 OA
ATOM      5  C   LIG    1       25.494 -13.539   3.801  0.00  0.00    +0.221 C 
ATOM      6  C   LIG    1       24.277 -14.432   3.849  0.00  0.00    +0.164 C 
ENDROOT
BRANCH   1  10
ATOM      7  C   LIG    1       24.430 -20.706   3.534  0.00  0.00    +0.044 C 
ATOM      8  C   LIG    1       23.817 -19.373   3.851  0.00  0.00    -0.049 A 
ATOM      9  C   LIG    1       24.574 -18.198   3.698  0.00  0.00    +0.027 A 
ATOM     10  C   LIG    1       24.037 -16.928   3.973  0.00  0.00    +0.040 A 
ATOM     11  C   LIG    1       22.711 -16.872   4.417  0.00  0.00    +0.024 A 
ATOM     12  C   LIG    1       21.954 -18.034   4.590  0.00  0.00    +0.002 A 
ATOM     13  C   LIG    1       22.503 -19.281   4.308  0.00  0.00    +0.003 A 
ENDBRANCH   1  10
BRANCH   5  14
ATOM     14  C   LIG    1       25.903 -13.016   5.177  0.00  0.00    +0.202 C 
BRANCH  14  15
ATOM     15  O   LIG    1       27.319 -13.104   5.327  0.00  0.00    -0.391 OA
ATOM     16  H   LIG    1       27.710 -12.684   4.537  0.00  0.00    +0.210 HD
ENDBRANCH  14  15
ENDBRANCH   5  14
TORSDOF 3
ENDMDL
MODEL 5
REMARK VINA RESULT:      -3.7      2.816      5.792
REMARK  Name = *****
REMARK                            x       y       z     vdW  Elec       q    Type
REMARK                         _______ _______ _______ _____ _____    ______ ____
ROOT
ATOM      1  N   LIG    1       25.127 -15.256   3.676  0.00  0.00    -0.234 N 
ATOM      2  C   LIG    1       26.363 -14.628   3.643  0.00  0.00    +0.408 C 
ATOM      3  O   LIG    1       27.480 -15.116   3.686  0.00  0.00    -0.226 OA
ATOM      4  O   LIG    1       26.192 -13.268   3.547  0.00  0.00    -0.443 OA
ATOM      5  C   LIG    1       24.802 -12.965   3.727  0.00  0.00    +0.221 C 
ATOM      6  C   LIG    1       24.090 -14.280   3.512  0.00  0.00    +0.164 C 
ENDROOT
BRANCH   1  10
ATOM      7  C   LIG    1       21.990 -19.016   4.550  0.00  0.00    +0.044 C 
ATOM      8  C   LIG    1       23.343 -18.532   4.118  0.00  0.00    -0.049 A 
ATOM      9  C   LIG    1       23.619 -17.153   4.086  0.00  0.00    +0.027 A 
ATOM     10  C   LIG    1       24.875 -16.657   3.698  0.00  0.00    +0.040 A 
ATOM     11  C   LIG    1       25.853 -17.590   3.335  0.00  0.00    +0.024 A 
ATOM     12  C   LIG    1       25.586 -18.963   3.347  0.00  0.00    +0.002 A 
ATOM     13  C   LIG    1       24.337 -19.434   3.738  0.00  0.00    +0.003 A 
ENDBRANCH   1  10
BRANCH   5  14
ATOM     14  C   LIG    1       24.601 -12.403   5.134  0.00  0.00    +0.202 C 
BRANCH  14  15
ATOM     15  O   LIG    1       23.542 -11.447   5.126  0.00  0.00    -0.391 OA
ATOM     16  H   LIG    1       23.253 -11.343   6.053  0.00  0.00    +0.210 HD
ENDBRANCH  14  15
ENDBRANCH   5  14
TORSDOF 3
ENDMDL
MODEL 6
REMARK VINA RESULT:      -3.5      2.936      5.128
REMARK  Name = *****
REMARK                            x       y       z     vdW  Elec       q    Type
REMARK                         _______ _______ _______ _____ _____    ______ ____
ROOT
ATOM      1  N   LIG    1       24.994 -14.939   3.875  0.00  0.00    -0.234 N 
ATOM      2  C   LIG    1       24.568 -13.742   3.318  0.00  0.00    +0.408 C 
ATOM      3  O   LIG    1       23.517 -13.481   2.757  0.00  0.00    -0.226 OA
ATOM      4  O   LIG    1       25.539 -12.783   3.477  0.00  0.00    -0.443 OA
ATOM      5  C   LIG    1       26.730 -13.411   3.971  0.00  0.00    +0.221 C 
ATOM      6  C   LIG    1       26.268 -14.747   4.503  0.00  0.00    +0.164 C 
ENDROOT
BRANCH   1  10
ATOM      7  C   LIG    1       24.791 -19.881   3.351  0.00  0.00    +0.044 C 
ATOM      8  C   LIG    1       24.127 -18.591   3.736  0.00  0.00    -0.049 A 
ATOM      9  C   LIG    1       24.838 -17.381   3.642  0.00  0.00    +0.027 A 
ATOM     10  C   LIG    1       24.252 -16.149   3.982  0.00  0.00    +0.040 A 
ATOM     11  C   LIG    1       22.926 -16.167   4.428  0.00  0.00    +0.024 A 
ATOM     12  C   LIG    1       22.215 -17.366   4.542  0.00  0.00    +0.002 A 
ATOM     13  C   LIG    1       22.811 -18.574   4.197  0.00  0.00    +0.003 A 
ENDBRANCH   1  10
BRANCH   5  14
ATOM     14  C   LIG    1       27.729 -13.541   2.822  0.00  0.00    +0.202 C 
BRANCH  14  15
ATOM     15  O   LIG    1       29.060 -13.447   3.326  0.00  0.00    -0.391 OA
ATOM     16  H   LIG    1       29.655 -13.690   2.590  0.00  0.00    +0.210 HD
ENDBRANCH  14  15
ENDBRANCH   5  14
TORSDOF 3
ENDMDL
MODEL 7
REMARK VINA RESULT:      -2.8      3.177      5.759
REMARK  Name = *****
REMARK                            x       y       z     vdW  Elec       q    Type
REMARK                         _______ _______ _______ _____ _____    ______ ____
ROOT
ATOM      1  N   LIG    1       25.437 -14.935   3.343  0.00  0.00    -0.234 N 
ATOM      2  C   LIG    1       26.001 -13.996   2.492  0.00  0.00    +0.408 C 
ATOM      3  O   LIG    1       27.020 -14.069   1.825  0.00  0.00    -0.226 OA
ATOM      4  O   LIG    1       25.223 -12.864   2.467  0.00  0.00    -0.443 OA
ATOM      5  C   LIG    1       24.222 -12.970   3.488  0.00  0.00    +0.221 C 
ATOM      6  C   LIG    1       24.189 -14.439   3.843  0.00  0.00    +0.164 C 
ENDROOT
BRANCH   1  10
ATOM      7  C   LIG    1       24.516 -19.822   3.428  0.00  0.00    +0.044 C 
ATOM      8  C   LIG    1       25.468 -18.680   3.631  0.00  0.00    -0.049 A 
ATOM      9  C   LIG    1       25.042 -17.360   3.397  0.00  0.00    +0.027 A 
ATOM     10  C   LIG    1       25.897 -16.260   3.585  0.00  0.00    +0.040 A 
ATOM     11  C   LIG    1       27.204 -16.525   4.011  0.00  0.00    +0.024 A 
ATOM     12  C   LIG    1       27.644 -17.834   4.230  0.00  0.00    +0.002 A 
ATOM     13  C   LIG    1       26.781 -18.908   4.042  0.00  0.00    +0.003 A 
ENDBRANCH   1  10
BRANCH   5  14
ATOM     14  C   LIG    1       24.624 -12.083   4.665  0.00  0.00    +0.202 C 
BRANCH  14  15
ATOM     15  O   LIG    1       23.458 -11.543   5.285  0.00  0.00    -0.391 OA
ATOM     16  H   LIG    1       23.753 -10.778   5.815  0.00  0.00    +0.210 HD
ENDBRANCH  14  15
ENDBRANCH   5  14
TORSDOF 3
ENDMDL
MODEL 8
REMARK VINA RESULT:      -2.7      3.026      5.553
REMARK  Name = *****
REMARK                            x       y       z     vdW  Elec       q    Type
REMARK                         _______ _______ _______ _____ _____    ______ ____
ROOT
ATOM      1  N   LIG    1       25.126 -14.617   3.515  0.00  0.00    -0.234 N 
ATOM      2  C   LIG    1       25.917 -13.879   4.385  0.00  0.00    +0.408 C 
ATOM      3  O   LIG    1       26.070 -14.006   5.588  0.00  0.00    -0.226 OA
ATOM      4  O   LIG    1       26.576 -12.894   3.690  0.00  0.00    -0.443 OA
ATOM      5  C   LIG    1       26.054 -12.842   2.356  0.00  0.00    +0.221 C 
ATOM      6  C   LIG    1       25.332 -14.156   2.174  0.00  0.00    +0.164 C 
ENDROOT
BRANCH   1  10
ATOM      7  C   LIG    1       24.664 -19.569   3.581  0.00  0.00    +0.044 C 
ATOM      8  C   LIG    1       24.097 -18.211   3.876  0.00  0.00    -0.049 A 
ATOM      9  C   LIG    1       24.845 -17.058   3.579  0.00  0.00    +0.027 A 
ATOM     10  C   LIG    1       24.348 -15.767   3.829  0.00  0.00    +0.040 A 
ATOM     11  C   LIG    1       23.072 -15.665   4.396  0.00  0.00    +0.024 A 
ATOM     12  C   LIG    1       22.326 -16.805   4.711  0.00  0.00    +0.002 A 
ATOM     13  C   LIG    1       22.834 -18.074   4.453  0.00  0.00    +0.003 A 
ENDBRANCH   1  10
BRANCH   5  14
ATOM     14  C   LIG    1       25.128 -11.633   2.237  0.00  0.00    +0.202 C 
BRANCH  14  15
ATOM     15  O   LIG    1       23.774 -12.068   2.133  0.00  0.00    -0.391 OA
ATOM     16  H   LIG    1       23.797 -13.044   2.100  0.00  0.00    +0.210 HD
ENDBRANCH  14  15
ENDBRANCH   5  14
TORSDOF 3
ENDMDL
MODEL 9
REMARK VINA RESULT:      -2.5      3.526      5.815
REMARK  Name = *****
REMARK                            x       y       z     vdW  Elec       q    Type
REMARK                         _______ _______ _______ _____ _____    ______ ____
ROOT
ATOM      1  N   LIG    1       26.552 -15.059   3.215  0.00  0.00    -0.234 N 
ATOM      2  C   LIG    1       27.449 -14.014   3.390  0.00  0.00    +0.408 C 
ATOM      3  O   LIG    1       28.526 -14.008   3.963  0.00  0.00    -0.226 OA
ATOM      4  O   LIG    1       26.959 -12.876   2.797  0.00  0.00    -0.443 OA
ATOM      5  C   LIG    1       25.605 -13.114   2.391  0.00  0.00    +0.221 C 
ATOM      6  C   LIG    1       25.459 -14.617   2.399  0.00  0.00    +0.164 C 
ENDROOT
BRANCH   1  10
ATOM      7  C   LIG    1       29.286 -18.514   5.521  0.00  0.00    +0.044 C 
ATOM      8  C   LIG    1       28.054 -18.139   4.751  0.00  0.00    -0.049 A 
ATOM      9  C   LIG    1       27.858 -16.807   4.346  0.00  0.00    +0.027 A 
ATOM     10  C   LIG    1       26.723 -16.414   3.614  0.00  0.00    +0.040 A 
ATOM     11  C   LIG    1       25.782 -17.402   3.304  0.00  0.00    +0.024 A 
ATOM     12  C   LIG    1       25.957 -18.726   3.716  0.00  0.00    +0.002 A 
ATOM     13  C   LIG    1       27.089 -19.096   4.437  0.00  0.00    +0.003 A 
ENDBRANCH   1  10
BRANCH   5  14
ATOM     14  C   LIG    1       24.668 -12.420   3.379  0.00  0.00    +0.202 C 
BRANCH  14  15
ATOM     15  O   LIG    1       23.682 -11.673   2.667  0.00  0.00    -0.391 OA
ATOM     16  H   LIG    1       23.014 -12.315   2.359  0.00  0.00    +0.210 HD
ENDBRANCH  14  15
ENDBRANCH   5  14
TORSDOF 3
ENDMDL
