MODEL 1
REMARK VINA RESULT:      13.9      0.000      0.000
REMARK  Name = *****
REMARK                            x       y       z     vdW  Elec       q    Type
REMARK                         _______ _______ _______ _____ _____    ______ ____
ROOT
ATOM      1  C   LIG    1       20.700 -18.060   3.622  0.00  0.00    +0.011 C 
ATOM      2  C   LIG    1       21.923 -17.909   4.526  0.00  0.00    +0.026 C 
ATOM      3  C   LIG    1       23.306 -18.216   3.873  0.00  0.00    +0.134 C 
ATOM      4  C   LIG    1       24.034 -16.815   3.799  0.00  0.00    +0.014 C 
ATOM      5  C   LIG    1       25.561 -16.983   3.768  0.00  0.00    +0.015 C 
ATOM      6  C   LIG    1       23.542 -16.126   5.084  0.00  0.00    +0.003 C 
ATOM      7  C   LIG    1       23.759 -14.598   5.217  0.00  0.00    +0.004 C 
ATOM      8  C   LIG    1       23.944 -13.809   3.901  0.00  0.00    +0.072 C 
ATOM      9  C   LIG    1       23.369 -14.547   2.705  0.00  0.00    +0.138 C 
ATOM     10  O   LIG    1       22.786 -13.918   1.815  0.00  0.00    -0.297 OA
ATOM     11  C   LIG    1       25.308 -13.073   3.573  0.00  0.00    +0.017 C 
ATOM     12  C   LIG    1       24.935 -11.623   3.142  0.00  0.00    +0.021 C 
ATOM     13  C   LIG    1       26.278 -13.002   4.765  0.00  0.00    -0.056 C 
ATOM     14  C   LIG    1       27.502 -12.450   4.592  0.00  0.00    +0.051 C 
ATOM     15  C   LIG    1       28.256 -13.180   3.503  0.00  0.00    +0.179 C 
ATOM     16  O   LIG    1       29.475 -13.244   3.501  0.00  0.00    -0.288 OA
ATOM     17  C   LIG    1       27.445 -13.728   2.377  0.00  0.00    +0.047 C 
ATOM     18  C   LIG    1       26.183 -14.083   5.809  0.00  0.00    +0.032 C 
ATOM     19  C   LIG    1       26.102 -13.650   2.395  0.00  0.00    -0.012 C 
ATOM     20  C   LIG    1       24.764 -14.216   6.311  0.00  0.00    +0.009 C 
ATOM     21  C   LIG    1       23.605 -16.032   2.533  0.00  0.00    +0.084 C 
ATOM     22  C   LIG    1       22.037 -16.477   5.080  0.00  0.00    +0.011 C 
ENDROOT
BRANCH   3  23
ATOM     23  C   LIG    1       24.083 -19.230   4.774  0.00  0.00    +0.190 C 
ATOM     24  O   LIG    1       25.297 -19.425   4.663  0.00  0.00    -0.292 OA
BRANCH  23  25
ATOM     25  C   LIG    1       23.289 -19.981   5.835  0.00  0.00    +0.233 C 
BRANCH  25  26
ATOM     26  O   LIG    1       22.970 -21.287   5.388  0.00  0.00    -0.387 OA
ATOM     27  H   LIG    1       23.819 -21.728   5.194  0.00  0.00    +0.210 HD
ENDBRANCH  25  26
ENDBRANCH  23  25
ENDBRANCH   3  23
BRANCH   3  28
ATOM     28  O   LIG    1       23.166 -18.753   2.563  0.00  0.00    -0.380 OA
ATOM     29  H   LIG    1       23.062 -19.723   2.634  0.00  0.00    +0.211 HD
ENDBRANCH   3  28
TORSDOF 4
ENDMDL
MODEL 2
REMARK VINA RESULT:      15.2      1.813      6.295
REMARK  Name = *****
REMARK                            x       y       z     vdW  Elec       q    Type
REMARK                         _______ _______ _______ _____ _____    ______ ____
ROOT
ATOM      1  C   LIG    1       24.112 -12.195   2.920  0.00  0.00    +0.011 C 
ATOM      2  C   LIG    1       25.233 -13.217   3.108  0.00  0.00    +0.026 C 
ATOM      3  C   LIG    1       25.488 -13.702   4.568  0.00  0.00    +0.134 C 
ATOM      4  C   LIG    1       25.031 -15.215   4.574  0.00  0.00    +0.014 C 
ATOM      5  C   LIG    1       25.742 -16.006   5.682  0.00  0.00    +0.015 C 
ATOM      6  C   LIG    1       25.436 -15.680   3.164  0.00  0.00    +0.003 C 
ATOM      7  C   LIG    1       24.854 -17.019   2.645  0.00  0.00    +0.004 C 
ATOM      8  C   LIG    1       23.545 -17.506   3.308  0.00  0.00    +0.072 C 
ATOM      9  C   LIG    1       22.778 -16.371   3.963  0.00  0.00    +0.138 C 
ATOM     10  O   LIG    1       21.544 -16.345   3.900  0.00  0.00    -0.297 OA
ATOM     11  C   LIG    1       23.507 -18.845   4.154  0.00  0.00    +0.017 C 
ATOM     12  C   LIG    1       22.290 -19.664   3.628  0.00  0.00    +0.021 C 
ATOM     13  C   LIG    1       24.777 -19.703   4.019  0.00  0.00    -0.056 C 
ATOM     14  C   LIG    1       24.888 -20.842   4.742  0.00  0.00    +0.051 C 
ATOM     15  C   LIG    1       24.761 -20.539   6.218  0.00  0.00    +0.179 C 
ATOM     16  O   LIG    1       25.311 -21.229   7.061  0.00  0.00    -0.288 OA
ATOM     17  C   LIG    1       23.850 -19.421   6.598  0.00  0.00    +0.047 C 
ATOM     18  C   LIG    1       26.067 -18.995   3.700  0.00  0.00    +0.032 C 
ATOM     19  C   LIG    1       23.253 -18.669   5.656  0.00  0.00    -0.012 C 
ATOM     20  C   LIG    1       25.908 -18.120   2.479  0.00  0.00    +0.009 C 
ATOM     21  C   LIG    1       23.502 -15.334   4.794  0.00  0.00    +0.084 C 
ATOM     22  C   LIG    1       24.972 -14.494   2.289  0.00  0.00    +0.011 C 
ENDROOT
BRANCH   3  23
ATOM     23  C   LIG    1       27.007 -13.549   4.901  0.00  0.00    +0.190 C 
ATOM     24  O   LIG    1       27.418 -13.303   6.039  0.00  0.00    -0.292 OA
BRANCH  23  25
ATOM     25  C   LIG    1       27.999 -13.737   3.761  0.00  0.00    +0.233 C 
BRANCH  25  26
ATOM     26  O   LIG    1       28.895 -12.640   3.694  0.00  0.00    -0.387 OA
ATOM     27  H   LIG    1       29.089 -12.386   4.616  0.00  0.00    +0.210 HD
ENDBRANCH  25  26
ENDBRANCH  23  25
ENDBRANCH   3  23
BRANCH   3  28
ATOM     28  O   LIG    1       24.717 -12.966   5.512  0.00  0.00    -0.380 OA
ATOM     29  H   LIG    1       23.769 -13.114   5.322  0.00  0.00    +0.211 HD
ENDBRANCH   3  28
TORSDOF 4
ENDMDL
