MODEL 1
REMARK VINA RESULT:      -4.8      0.000      0.000
REMARK  Name = *****
REMARK                            x       y       z     vdW  Elec       q    Type
REMARK                         _______ _______ _______ _____ _____    ______ ____
ROOT
ATOM      1  O   LIG    1       23.964 -18.933   3.606  0.00  0.00    -0.489 OA
ENDROOT
BRANCH   1   5
ATOM      2  C   LIG    1       25.566 -15.052   3.711  0.00  0.00    -0.045 A 
ATOM      3  C   LIG    1       24.238 -15.263   4.091  0.00  0.00    +0.007 A 
ATOM      4  C   LIG    1       23.695 -16.549   4.066  0.00  0.00    +0.046 A 
ATOM      5  C   LIG    1       24.456 -17.651   3.664  0.00  0.00    +0.121 A 
ATOM      6  C   LIG    1       25.792 -17.450   3.308  0.00  0.00    +0.046 A 
ATOM      7  C   LIG    1       26.336 -16.153   3.325  0.00  0.00    +0.007 A 
BRANCH   2   8
ATOM      8  C   LIG    1       26.132 -13.654   3.749  0.00  0.00    +0.063 C 
BRANCH   8   9
ATOM      9  C   LIG    1       26.611 -13.240   5.140  0.00  0.00    +0.164 C 
BRANCH   9  11
ATOM     10  C   LIG    1       28.509 -13.094   3.750  0.00  0.00    +0.193 C 
ATOM     11  O   LIG    1       28.002 -12.919   5.066  0.00  0.00    -0.383 OA
ENDBRANCH   9  11
ENDBRANCH   8   9
ENDBRANCH   2   8
ENDBRANCH   1   5
BRANCH   1  12
ATOM     12  C   LIG    1       24.992 -19.944   3.618  0.00  0.00    +0.261 C 
BRANCH  12  13
ATOM     13  C   LIG    1       24.837 -20.879   4.827  0.00  0.00    +0.166 C 
BRANCH  13  14
ATOM     14  O   LIG    1       23.569 -20.624   5.451  0.00  0.00    -0.387 OA
ATOM     15  H   LIG    1       22.908 -20.725   4.740  0.00  0.00    +0.210 HD
ENDBRANCH  13  14
BRANCH  13  16
ATOM     16  C   LIG    1       25.968 -20.586   5.841  0.00  0.00    +0.115 C 
BRANCH  16  17
ATOM     17  N   LIG    1       27.205 -20.135   5.190  0.00  0.00    -0.311 NA
ATOM     18  H   LIG    1       27.559 -20.911   4.621  0.00  0.00    +0.122 HD
BRANCH  17  19
ATOM     19  C   LIG    1       28.231 -19.680   6.139  0.00  0.00    +0.048 C 
ATOM     20  C   LIG    1       29.147 -18.679   5.428  0.00  0.00    +0.024 C 
ATOM     21  C   LIG    1       29.066 -20.816   6.738  0.00  0.00    +0.024 C 
ENDBRANCH  17  19
ENDBRANCH  16  17
ENDBRANCH  13  16
ENDBRANCH  12  13
ENDBRANCH   1  12
TORSDOF 10
ENDMDL
MODEL 2
REMARK VINA RESULT:      -4.7      2.692      6.731
REMARK  Name = *****
REMARK                            x       y       z     vdW  Elec       q    Type
REMARK                         _______ _______ _______ _____ _____    ______ ____
ROOT
ATOM      1  O   LIG    1       26.034 -16.627   2.954  0.00  0.00    -0.489 OA
ENDROOT
BRANCH   1   5
ATOM      2  C   LIG    1       24.081 -20.078   4.338  0.00  0.00    -0.045 A 
ATOM      3  C   LIG    1       23.347 -18.910   4.113  0.00  0.00    +0.007 A 
ATOM      4  C   LIG    1       23.983 -17.758   3.647  0.00  0.00    +0.046 A 
ATOM      5  C   LIG    1       25.358 -17.739   3.396  0.00  0.00    +0.121 A 
ATOM      6  C   LIG    1       26.092 -18.911   3.594  0.00  0.00    +0.046 A 
ATOM      7  C   LIG    1       25.453 -20.069   4.072  0.00  0.00    +0.007 A 
BRANCH   2   8
ATOM      8  C   LIG    1       23.371 -21.312   4.838  0.00  0.00    +0.063 C 
BRANCH   8   9
ATOM      9  C   LIG    1       22.948 -21.207   6.303  0.00  0.00    +0.164 C 
BRANCH   9  11
ATOM     10  C   LIG    1       25.178 -21.571   6.974  0.00  0.00    +0.193 C 
ATOM     11  O   LIG    1       24.052 -20.708   7.061  0.00  0.00    -0.383 OA
ENDBRANCH   9  11
ENDBRANCH   8   9
ENDBRANCH   2   8
ENDBRANCH   1   5
BRANCH   1  12
ATOM     12  C   LIG    1       27.060 -16.179   3.862  0.00  0.00    +0.261 C 
BRANCH  12  13
ATOM     13  C   LIG    1       27.487 -14.737   3.551  0.00  0.00    +0.166 C 
BRANCH  13  14
ATOM     14  O   LIG    1       27.370 -13.952   4.748  0.00  0.00    -0.387 OA
ATOM     15  H   LIG    1       26.895 -13.143   4.480  0.00  0.00    +0.210 HD
ENDBRANCH  13  14
BRANCH  13  16
ATOM     16  C   LIG    1       26.549 -14.153   2.469  0.00  0.00    +0.115 C 
BRANCH  16  17
ATOM     17  N   LIG    1       25.883 -12.919   2.907  0.00  0.00    -0.311 NA
ATOM     18  H   LIG    1       26.256 -12.675   3.830  0.00  0.00    +0.122 HD
BRANCH  17  19
ATOM     19  C   LIG    1       24.419 -13.033   2.953  0.00  0.00    +0.048 C 
ATOM     20  C   LIG    1       23.829 -11.649   3.242  0.00  0.00    +0.024 C 
ATOM     21  C   LIG    1       23.909 -14.042   3.986  0.00  0.00    +0.024 C 
ENDBRANCH  17  19
ENDBRANCH  16  17
ENDBRANCH  13  16
ENDBRANCH  12  13
ENDBRANCH   1  12
TORSDOF 10
ENDMDL
MODEL 3
REMARK VINA RESULT:      -4.7      2.374      6.881
REMARK  Name = *****
REMARK                            x       y       z     vdW  Elec       q    Type
REMARK                         _______ _______ _______ _____ _____    ______ ____
ROOT
ATOM      1  O   LIG    1       26.445 -16.321   2.934  0.00  0.00    -0.489 OA
ENDROOT
BRANCH   1   5
ATOM      2  C   LIG    1       25.669 -20.068   4.664  0.00  0.00    -0.045 A 
ATOM      3  C   LIG    1       26.898 -19.443   4.889  0.00  0.00    +0.007 A 
ATOM      4  C   LIG    1       27.167 -18.195   4.325  0.00  0.00    +0.046 A 
ATOM      5  C   LIG    1       26.224 -17.541   3.526  0.00  0.00    +0.121 A 
ATOM      6  C   LIG    1       24.983 -18.149   3.319  0.00  0.00    +0.046 A 
ATOM      7  C   LIG    1       24.716 -19.410   3.880  0.00  0.00    +0.007 A 
BRANCH   2   8
ATOM      8  C   LIG    1       25.399 -21.415   5.287  0.00  0.00    +0.063 C 
BRANCH   8   9
ATOM      9  C   LIG    1       25.047 -21.328   6.772  0.00  0.00    +0.164 C 
BRANCH   9  11
ATOM     10  C   LIG    1       22.751 -21.572   6.297  0.00  0.00    +0.193 C 
ATOM     11  O   LIG    1       23.745 -20.752   6.898  0.00  0.00    -0.383 OA
ENDBRANCH   9  11
ENDBRANCH   8   9
ENDBRANCH   2   8
ENDBRANCH   1   5
BRANCH   1  12
ATOM     12  C   LIG    1       27.222 -15.419   3.748  0.00  0.00    +0.261 C 
BRANCH  12  13
ATOM     13  C   LIG    1       27.502 -14.103   3.008  0.00  0.00    +0.166 C 
BRANCH  13  14
ATOM     14  O   LIG    1       28.633 -13.460   3.617  0.00  0.00    -0.387 OA
ATOM     15  H   LIG    1       28.277 -13.000   4.400  0.00  0.00    +0.210 HD
ENDBRANCH  13  14
BRANCH  13  16
ATOM     16  C   LIG    1       26.267 -13.179   3.132  0.00  0.00    +0.115 C 
BRANCH  16  17
ATOM     17  N   LIG    1       25.032 -13.827   2.671  0.00  0.00    -0.311 NA
ATOM     18  H   LIG    1       24.827 -13.474   1.731  0.00  0.00    +0.122 HD
BRANCH  17  19
ATOM     19  C   LIG    1       23.889 -13.606   3.568  0.00  0.00    +0.048 C 
ATOM     20  C   LIG    1       24.205 -12.417   4.480  0.00  0.00    +0.024 C 
ATOM     21  C   LIG    1       23.523 -14.829   4.415  0.00  0.00    +0.024 C 
ENDBRANCH  17  19
ENDBRANCH  16  17
ENDBRANCH  13  16
ENDBRANCH  12  13
ENDBRANCH   1  12
TORSDOF 10
ENDMDL
MODEL 4
REMARK VINA RESULT:      -4.7      2.805      6.374
REMARK  Name = *****
REMARK                            x       y       z     vdW  Elec       q    Type
REMARK                         _______ _______ _______ _____ _____    ______ ____
ROOT
ATOM      1  O   LIG    1       23.074 -15.212   4.101  0.00  0.00    -0.489 OA
ENDROOT
BRANCH   1   5
ATOM      2  C   LIG    1       23.490 -19.390   4.197  0.00  0.00    -0.045 A 
ATOM      3  C   LIG    1       24.540 -18.600   3.722  0.00  0.00    +0.007 A 
ATOM      4  C   LIG    1       24.417 -17.211   3.690  0.00  0.00    +0.046 A 
ATOM      5  C   LIG    1       23.252 -16.574   4.128  0.00  0.00    +0.121 A 
ATOM      6  C   LIG    1       22.208 -17.356   4.628  0.00  0.00    +0.046 A 
ATOM      7  C   LIG    1       22.328 -18.757   4.652  0.00  0.00    +0.007 A 
BRANCH   2   8
ATOM      8  C   LIG    1       23.646 -20.890   4.226  0.00  0.00    +0.063 C 
BRANCH   8   9
ATOM      9  C   LIG    1       23.566 -21.473   5.636  0.00  0.00    +0.164 C 
BRANCH   9  11
ATOM     10  C   LIG    1       25.805 -21.334   6.358  0.00  0.00    +0.193 C 
ATOM     11  O   LIG    1       24.500 -20.782   6.468  0.00  0.00    -0.383 OA
ENDBRANCH   9  11
ENDBRANCH   8   9
ENDBRANCH   2   8
ENDBRANCH   1   5
BRANCH   1  12
ATOM     12  C   LIG    1       24.258 -14.470   4.459  0.00  0.00    +0.261 C 
BRANCH  12  13
ATOM     13  C   LIG    1       24.610 -13.432   3.383  0.00  0.00    +0.166 C 
BRANCH  13  14
ATOM     14  O   LIG    1       23.468 -13.238   2.535  0.00  0.00    -0.387 OA
ATOM     15  H   LIG    1       23.823 -12.868   1.705  0.00  0.00    +0.210 HD
ENDBRANCH  13  14
BRANCH  13  16
ATOM     16  C   LIG    1       25.788 -13.963   2.533  0.00  0.00    +0.115 C 
BRANCH  16  17
ATOM     17  N   LIG    1       27.011 -13.167   2.707  0.00  0.00    -0.311 NA
ATOM     18  H   LIG    1       27.474 -13.105   1.795  0.00  0.00    +0.122 HD
BRANCH  17  19
ATOM     19  C   LIG    1       27.926 -13.719   3.716  0.00  0.00    +0.048 C 
ATOM     20  C   LIG    1       27.615 -15.208   3.897  0.00  0.00    +0.024 C 
ATOM     21  C   LIG    1       27.856 -13.004   5.070  0.00  0.00    +0.024 C 
ENDBRANCH  17  19
ENDBRANCH  16  17
ENDBRANCH  13  16
ENDBRANCH  12  13
ENDBRANCH   1  12
TORSDOF 10
ENDMDL
MODEL 5
REMARK VINA RESULT:      -4.6      2.157      3.494
REMARK  Name = *****
REMARK                            x       y       z     vdW  Elec       q    Type
REMARK                         _______ _______ _______ _____ _____    ______ ____
ROOT
ATOM      1  O   LIG    1       24.517 -18.824   3.684  0.00  0.00    -0.489 OA
ENDROOT
BRANCH   1   5
ATOM      2  C   LIG    1       25.331 -14.704   3.715  0.00  0.00    -0.045 A 
ATOM      3  C   LIG    1       26.321 -15.602   3.309  0.00  0.00    +0.007 A 
ATOM      4  C   LIG    1       26.062 -16.973   3.289  0.00  0.00    +0.046 A 
ATOM      5  C   LIG    1       24.817 -17.483   3.670  0.00  0.00    +0.121 A 
ATOM      6  C   LIG    1       23.815 -16.588   4.052  0.00  0.00    +0.046 A 
ATOM      7  C   LIG    1       24.079 -15.207   4.081  0.00  0.00    +0.007 A 
BRANCH   2   8
ATOM      8  C   LIG    1       25.633 -13.226   3.726  0.00  0.00    +0.063 C 
BRANCH   8   9
ATOM      9  C   LIG    1       25.535 -12.585   2.342  0.00  0.00    +0.164 C 
BRANCH   9  11
ATOM     10  C   LIG    1       23.748 -11.552   3.481  0.00  0.00    +0.193 C 
ATOM     11  O   LIG    1       24.253 -11.964   2.218  0.00  0.00    -0.383 OA
ENDBRANCH   9  11
ENDBRANCH   8   9
ENDBRANCH   2   8
ENDBRANCH   1   5
BRANCH   1  12
ATOM     12  C   LIG    1       25.681 -19.674   3.669  0.00  0.00    +0.261 C 
BRANCH  12  13
ATOM     13  C   LIG    1       26.137 -20.020   5.094  0.00  0.00    +0.166 C 
BRANCH  13  14
ATOM     14  O   LIG    1       27.562 -20.195   5.096  0.00  0.00    -0.387 OA
ATOM     15  H   LIG    1       27.722 -21.003   5.618  0.00  0.00    +0.210 HD
ENDBRANCH  13  14
BRANCH  13  16
ATOM     16  C   LIG    1       25.463 -21.341   5.534  0.00  0.00    +0.115 C 
BRANCH  16  17
ATOM     17  N   LIG    1       24.180 -21.571   4.857  0.00  0.00    -0.311 NA
ATOM     18  H   LIG    1       24.136 -20.940   4.050  0.00  0.00    +0.122 HD
BRANCH  17  19
ATOM     19  C   LIG    1       23.016 -21.375   5.732  0.00  0.00    +0.048 C 
ATOM     20  C   LIG    1       21.961 -20.566   4.971  0.00  0.00    +0.024 C 
ATOM     21  C   LIG    1       23.349 -20.681   7.057  0.00  0.00    +0.024 C 
ENDBRANCH  17  19
ENDBRANCH  16  17
ENDBRANCH  13  16
ENDBRANCH  12  13
ENDBRANCH   1  12
TORSDOF 10
ENDMDL
MODEL 6
REMARK VINA RESULT:      -4.0      2.642      6.004
REMARK  Name = *****
REMARK                            x       y       z     vdW  Elec       q    Type
REMARK                         _______ _______ _______ _____ _____    ______ ____
ROOT
ATOM      1  O   LIG    1       21.739 -18.224   4.281  0.00  0.00    -0.489 OA
ENDROOT
BRANCH   1   5
ATOM      2  C   LIG    1       24.892 -20.687   5.559  0.00  0.00    -0.045 A 
ATOM      3  C   LIG    1       23.747 -20.560   6.351  0.00  0.00    +0.007 A 
ATOM      4  C   LIG    1       22.690 -19.750   5.935  0.00  0.00    +0.046 A 
ATOM      5  C   LIG    1       22.745 -19.048   4.727  0.00  0.00    +0.121 A 
ATOM      6  C   LIG    1       23.875 -19.191   3.918  0.00  0.00    +0.046 A 
ATOM      7  C   LIG    1       24.943 -20.001   4.342  0.00  0.00    +0.007 A 
BRANCH   2   8
ATOM      8  C   LIG    1       26.021 -21.572   6.026  0.00  0.00    +0.063 C 
BRANCH   8   9
ATOM      9  C   LIG    1       26.927 -20.893   7.053  0.00  0.00    +0.164 C 
BRANCH   9  11
ATOM     10  C   LIG    1       29.155 -20.195   6.731  0.00  0.00    +0.193 C 
ATOM     11  O   LIG    1       28.274 -21.307   6.814  0.00  0.00    -0.383 OA
ENDBRANCH   9  11
ENDBRANCH   8   9
ENDBRANCH   2   8
ENDBRANCH   1   5
BRANCH   1  12
ATOM     12  C   LIG    1       22.216 -16.976   3.738  0.00  0.00    +0.261 C 
BRANCH  12  13
ATOM     13  C   LIG    1       22.876 -16.114   4.824  0.00  0.00    +0.166 C 
BRANCH  13  14
ATOM     14  O   LIG    1       21.882 -15.748   5.793  0.00  0.00    -0.387 OA
ATOM     15  H   LIG    1       22.382 -15.462   6.580  0.00  0.00    +0.210 HD
ENDBRANCH  13  14
BRANCH  13  16
ATOM     16  C   LIG    1       23.446 -14.831   4.173  0.00  0.00    +0.115 C 
BRANCH  16  17
ATOM     17  N   LIG    1       24.893 -14.917   3.932  0.00  0.00    -0.311 NA
ATOM     18  H   LIG    1       25.286 -15.564   4.624  0.00  0.00    +0.122 HD
BRANCH  17  19
ATOM     19  C   LIG    1       25.572 -13.616   3.994  0.00  0.00    +0.048 C 
ATOM     20  C   LIG    1       26.298 -13.378   2.666  0.00  0.00    +0.024 C 
ATOM     21  C   LIG    1       26.561 -13.490   5.158  0.00  0.00    +0.024 C 
ENDBRANCH  17  19
ENDBRANCH  16  17
ENDBRANCH  13  16
ENDBRANCH  12  13
ENDBRANCH   1  12
TORSDOF 10
ENDMDL
MODEL 7
REMARK VINA RESULT:      -3.8      2.710      6.007
REMARK  Name = *****
REMARK                            x       y       z     vdW  Elec       q    Type
REMARK                         _______ _______ _______ _____ _____    ______ ____
ROOT
ATOM      1  O   LIG    1       22.038 -19.398   4.635  0.00  0.00    -0.489 OA
ENDROOT
BRANCH   1   5
ATOM      2  C   LIG    1       25.621 -20.923   6.207  0.00  0.00    -0.045 A 
ATOM      3  C   LIG    1       24.482 -20.861   7.014  0.00  0.00    +0.007 A 
ATOM      4  C   LIG    1       23.284 -20.362   6.502  0.00  0.00    +0.046 A 
ATOM      5  C   LIG    1       23.189 -19.914   5.181  0.00  0.00    +0.121 A 
ATOM      6  C   LIG    1       24.317 -19.996   4.362  0.00  0.00    +0.046 A 
ATOM      7  C   LIG    1       25.527 -20.491   4.880  0.00  0.00    +0.007 A 
BRANCH   2   8
ATOM      8  C   LIG    1       26.905 -21.469   6.780  0.00  0.00    +0.063 C 
BRANCH   8   9
ATOM      9  C   LIG    1       27.945 -20.385   7.062  0.00  0.00    +0.164 C 
BRANCH   9  11
ATOM     10  C   LIG    1       29.082 -18.888   5.641  0.00  0.00    +0.193 C 
ATOM     11  O   LIG    1       28.785 -20.251   5.913  0.00  0.00    -0.383 OA
ENDBRANCH   9  11
ENDBRANCH   8   9
ENDBRANCH   2   8
ENDBRANCH   1   5
BRANCH   1  12
ATOM     12  C   LIG    1       22.243 -18.161   3.923  0.00  0.00    +0.261 C 
BRANCH  12  13
ATOM     13  C   LIG    1       22.762 -17.060   4.858  0.00  0.00    +0.166 C 
BRANCH  13  14
ATOM     14  O   LIG    1       21.643 -16.313   5.360  0.00  0.00    -0.387 OA
ATOM     15  H   LIG    1       22.014 -15.718   6.039  0.00  0.00    +0.210 HD
ENDBRANCH  13  14
BRANCH  13  16
ATOM     16  C   LIG    1       23.687 -16.111   4.060  0.00  0.00    +0.115 C 
BRANCH  16  17
ATOM     17  N   LIG    1       23.498 -14.701   4.426  0.00  0.00    -0.311 NA
ATOM     18  H   LIG    1       22.500 -14.486   4.333  0.00  0.00    +0.122 HD
BRANCH  17  19
ATOM     19  C   LIG    1       24.305 -13.776   3.617  0.00  0.00    +0.048 C 
ATOM     20  C   LIG    1       25.771 -14.215   3.688  0.00  0.00    +0.024 C 
ATOM     21  C   LIG    1       24.179 -12.310   4.045  0.00  0.00    +0.024 C 
ENDBRANCH  17  19
ENDBRANCH  16  17
ENDBRANCH  13  16
ENDBRANCH  12  13
ENDBRANCH   1  12
TORSDOF 10
ENDMDL
MODEL 8
REMARK VINA RESULT:      -3.8      2.296      3.572
REMARK  Name = *****
REMARK                            x       y       z     vdW  Elec       q    Type
REMARK                         _______ _______ _______ _____ _____    ______ ____
ROOT
ATOM      1  O   LIG    1       27.659 -18.563   4.470  0.00  0.00    -0.489 OA
ENDROOT
BRANCH   1   5
ATOM      2  C   LIG    1       26.438 -14.700   3.363  0.00  0.00    -0.045 A 
ATOM      3  C   LIG    1       27.648 -14.876   4.038  0.00  0.00    +0.007 A 
ATOM      4  C   LIG    1       28.069 -16.155   4.407  0.00  0.00    +0.046 A 
ATOM      5  C   LIG    1       27.299 -17.285   4.114  0.00  0.00    +0.121 A 
ATOM      6  C   LIG    1       26.100 -17.118   3.417  0.00  0.00    +0.046 A 
ATOM      7  C   LIG    1       25.672 -15.829   3.054  0.00  0.00    +0.007 A 
BRANCH   2   8
ATOM      8  C   LIG    1       26.005 -13.309   2.972  0.00  0.00    +0.063 C 
BRANCH   8   9
ATOM      9  C   LIG    1       24.549 -13.242   2.513  0.00  0.00    +0.164 C 
BRANCH   9  11
ATOM     10  C   LIG    1       24.021 -12.177   4.549  0.00  0.00    +0.193 C 
ATOM     11  O   LIG    1       23.928 -12.113   3.132  0.00  0.00    -0.383 OA
ENDBRANCH   9  11
ENDBRANCH   8   9
ENDBRANCH   2   8
ENDBRANCH   1   5
BRANCH   1  12
ATOM     12  C   LIG    1       28.705 -18.610   5.461  0.00  0.00    +0.261 C 
BRANCH  12  13
ATOM     13  C   LIG    1       28.483 -19.765   6.449  0.00  0.00    +0.166 C 
BRANCH  13  14
ATOM     14  O   LIG    1       29.159 -20.932   5.956  0.00  0.00    -0.387 OA
ATOM     15  H   LIG    1       30.010 -20.609   5.605  0.00  0.00    +0.210 HD
ENDBRANCH  13  14
BRANCH  13  16
ATOM     16  C   LIG    1       26.969 -20.062   6.550  0.00  0.00    +0.115 C 
BRANCH  16  17
ATOM     17  N   LIG    1       26.486 -20.906   5.448  0.00  0.00    -0.311 NA
ATOM     18  H   LIG    1       26.761 -20.458   4.568  0.00  0.00    +0.122 HD
BRANCH  17  19
ATOM     19  C   LIG    1       25.035 -21.135   5.482  0.00  0.00    +0.048 C 
ATOM     20  C   LIG    1       24.385 -20.323   4.358  0.00  0.00    +0.024 C 
ATOM     21  C   LIG    1       24.385 -20.781   6.824  0.00  0.00    +0.024 C 
ENDBRANCH  17  19
ENDBRANCH  16  17
ENDBRANCH  13  16
ENDBRANCH  12  13
ENDBRANCH   1  12
TORSDOF 10
ENDMDL
MODEL 9
REMARK VINA RESULT:      -3.8      1.816      2.112
REMARK  Name = *****
REMARK                            x       y       z     vdW  Elec       q    Type
REMARK                         _______ _______ _______ _____ _____    ______ ____
ROOT
ATOM      1  O   LIG    1       26.020 -17.908   3.161  0.00  0.00    -0.489 OA
ENDROOT
BRANCH   1   5
ATOM      2  C   LIG    1       25.460 -13.843   4.056  0.00  0.00    -0.045 A 
ATOM      3  C   LIG    1       24.366 -14.712   4.069  0.00  0.00    +0.007 A 
ATOM      4  C   LIG    1       24.539 -16.066   3.780  0.00  0.00    +0.046 A 
ATOM      5  C   LIG    1       25.800 -16.587   3.470  0.00  0.00    +0.121 A 
ATOM      6  C   LIG    1       26.901 -15.728   3.480  0.00  0.00    +0.046 A 
ATOM      7  C   LIG    1       26.725 -14.362   3.764  0.00  0.00    +0.007 A 
BRANCH   2   8
ATOM      8  C   LIG    1       25.250 -12.383   4.376  0.00  0.00    +0.063 C 
BRANCH   8   9
ATOM      9  C   LIG    1       23.835 -11.900   4.060  0.00  0.00    +0.164 C 
BRANCH   9  11
ATOM     10  C   LIG    1       25.007 -11.591   2.039  0.00  0.00    +0.193 C 
ATOM     11  O   LIG    1       23.728 -11.694   2.649  0.00  0.00    -0.383 OA
ENDBRANCH   9  11
ENDBRANCH   8   9
ENDBRANCH   2   8
ENDBRANCH   1   5
BRANCH   1  12
ATOM     12  C   LIG    1       24.935 -18.777   3.543  0.00  0.00    +0.261 C 
BRANCH  12  13
ATOM     13  C   LIG    1       25.455 -20.044   4.237  0.00  0.00    +0.166 C 
BRANCH  13  14
ATOM     14  O   LIG    1       24.525 -20.425   5.263  0.00  0.00    -0.387 OA
ATOM     15  H   LIG    1       24.027 -21.178   4.892  0.00  0.00    +0.210 HD
ENDBRANCH  13  14
BRANCH  13  16
ATOM     16  C   LIG    1       26.827 -19.740   4.884  0.00  0.00    +0.115 C 
BRANCH  16  17
ATOM     17  N   LIG    1       26.873 -20.112   6.305  0.00  0.00    -0.311 NA
ATOM     18  H   LIG    1       26.210 -19.512   6.806  0.00  0.00    +0.122 HD
BRANCH  17  19
ATOM     19  C   LIG    1       28.216 -20.003   6.892  0.00  0.00    +0.048 C 
ATOM     20  C   LIG    1       29.061 -19.075   6.013  0.00  0.00    +0.024 C 
ATOM     21  C   LIG    1       28.928 -21.349   7.062  0.00  0.00    +0.024 C 
ENDBRANCH  17  19
ENDBRANCH  16  17
ENDBRANCH  13  16
ENDBRANCH  12  13
ENDBRANCH   1  12
TORSDOF 10
ENDMDL
