MODEL 1
REMARK VINA RESULT:     -10.6      0.000      0.000
REMARK  Name = *****
REMARK                            x       y       z     vdW  Elec       q    Type
REMARK                         _______ _______ _______ _____ _____    ______ ____
ROOT
ATOM      1  C   LIG    1       25.388 -21.472   5.775  0.00  0.00    +0.011 C 
ATOM      2  C   LIG    1       24.331 -22.278   6.596  0.00  0.00    +0.008 C 
ATOM      3  C   LIG    1       23.019 -21.482   6.769  0.00  0.00    +0.005 C 
ATOM      4  C   LIG    1       22.455 -20.929   5.463  0.00  0.00    +0.000 C 
ATOM      5  C   LIG    1       23.499 -20.158   4.667  0.00  0.00    +0.000 C 
ATOM      6  C   LIG    1       24.771 -20.973   4.455  0.00  0.00    +0.005 C 
ENDROOT
BRANCH   1   7
ATOM      7  C   LIG    1       26.010 -20.333   6.639  0.00  0.00    +0.120 C 
BRANCH   7  10
ATOM      8  O   LIG    1       27.960 -18.988   4.964  0.00  0.00    -0.275 OA
ATOM      9  C   LIG    1       28.289 -19.735   5.873  0.00  0.00    +0.226 C 
ATOM     10  N   LIG    1       27.462 -20.404   6.725  0.00  0.00    -0.241 N 
ATOM     11  C   LIG    1       28.142 -21.012   7.750  0.00  0.00    +0.226 C 
ATOM     12  O   LIG    1       27.652 -21.524   8.758  0.00  0.00    -0.275 OA
ATOM     13  C   LIG    1       29.625 -20.928   7.471  0.00  0.00    +0.091 C 
ATOM     14  C   LIG    1       30.542 -20.214   8.491  0.00  0.00    +0.002 C 
ATOM     15  C   LIG    1       31.592 -19.573   7.569  0.00  0.00    +0.008 C 
ATOM     16  C   LIG    1       30.540 -18.827   6.742  0.00  0.00    +0.002 C 
ATOM     17  C   LIG    1       29.797 -18.030   7.838  0.00  0.00    +0.004 C 
ATOM     18  C   LIG    1       29.885 -18.950   9.063  0.00  0.00    +0.004 C 
ATOM     19  C   LIG    1       29.718 -20.020   6.241  0.00  0.00    +0.091 C 
ENDBRANCH   7  10
ENDBRANCH   1   7
BRANCH   2  20
ATOM     20  C   LIG    1       24.040 -23.687   5.996  0.00  0.00    +0.088 C 
BRANCH  20  21
ATOM     21  N   LIG    1       25.237 -24.434   5.582  0.00  0.00    -0.299 NA
ATOM     22  C   LIG    1       26.047 -24.982   6.693  0.00  0.00    +0.103 C 
ATOM     23  C   LIG    1       25.500 -26.268   7.346  0.00  0.00    +0.122 C 
ATOM     24  N   LIG    1       25.339 -27.304   6.312  0.00  0.00    -0.312 N 
ATOM     25  C   LIG    1       24.406 -26.856   5.254  0.00  0.00    +0.122 C 
ATOM     26  C   LIG    1       24.912 -25.527   4.627  0.00  0.00    +0.103 C 
BRANCH  24  27
ATOM     27  C   LIG    1       25.246 -28.607   6.734  0.00  0.00    +0.138 A 
ATOM     28  C   LIG    1       25.788 -29.034   8.023  0.00  0.00    +0.031 A 
ATOM     29  C   LIG    1       25.628 -30.413   8.177  0.00  0.00    +0.041 A 
ATOM     30  C   LIG    1       26.090 -31.114   9.305  0.00  0.00    +0.017 A 
ATOM     31  C   LIG    1       26.748 -30.401  10.307  0.00  0.00    +0.001 A 
ATOM     32  C   LIG    1       26.923 -29.027  10.196  0.00  0.00    +0.001 A 
ATOM     33  S   LIG    1       24.823 -31.012   6.788  0.00  0.00    +0.014 S 
ATOM     34  C   LIG    1       26.453 -28.337   9.068  0.00  0.00    +0.012 A 
ATOM     35  N   LIG    1       24.727 -29.579   5.985  0.00  0.00    -0.194 NA
ENDBRANCH  24  27
ENDBRANCH  20  21
ENDBRANCH   2  20
TORSDOF 5
ENDMDL
MODEL 2
REMARK VINA RESULT:     -10.3      1.522      2.084
REMARK  Name = *****
REMARK                            x       y       z     vdW  Elec       q    Type
REMARK                         _______ _______ _______ _____ _____    ______ ____
ROOT
ATOM      1  C   LIG    1       25.238 -21.903   5.677  0.00  0.00    +0.011 C 
ATOM      2  C   LIG    1       24.828 -23.278   6.295  0.00  0.00    +0.008 C 
ATOM      3  C   LIG    1       23.516 -23.171   7.101  0.00  0.00    +0.005 C 
ATOM      4  C   LIG    1       22.375 -22.503   6.339  0.00  0.00    +0.000 C 
ATOM      5  C   LIG    1       22.791 -21.171   5.731  0.00  0.00    +0.000 C 
ATOM      6  C   LIG    1       24.059 -21.299   4.892  0.00  0.00    +0.005 C 
ENDROOT
BRANCH   1   7
ATOM      7  C   LIG    1       25.807 -20.951   6.772  0.00  0.00    +0.120 C 
BRANCH   7  10
ATOM      8  O   LIG    1       27.423 -19.403   4.926  0.00  0.00    -0.275 OA
ATOM      9  C   LIG    1       27.919 -20.083   5.812  0.00  0.00    +0.226 C 
ATOM     10  N   LIG    1       27.258 -20.835   6.737  0.00  0.00    -0.241 N 
ATOM     11  C   LIG    1       28.092 -21.330   7.706  0.00  0.00    +0.226 C 
ATOM     12  O   LIG    1       27.757 -21.881   8.756  0.00  0.00    -0.275 OA
ATOM     13  C   LIG    1       29.524 -21.065   7.302  0.00  0.00    +0.091 C 
ATOM     14  C   LIG    1       30.423 -20.219   8.234  0.00  0.00    +0.002 C 
ATOM     15  C   LIG    1       31.302 -19.469   7.221  0.00  0.00    +0.008 C 
ATOM     16  C   LIG    1       30.099 -18.879   6.480  0.00  0.00    +0.002 C 
ATOM     17  C   LIG    1       29.352 -18.161   7.626  0.00  0.00    +0.004 C 
ATOM     18  C   LIG    1       29.658 -19.038   8.849  0.00  0.00    +0.004 C 
ATOM     19  C   LIG    1       29.398 -20.177   6.061  0.00  0.00    +0.091 C 
ENDBRANCH   7  10
ENDBRANCH   1   7
BRANCH   2  20
ATOM     20  C   LIG    1       24.725 -24.415   5.234  0.00  0.00    +0.088 C 
BRANCH  20  21
ATOM     21  N   LIG    1       25.855 -25.356   5.234  0.00  0.00    -0.299 NA
ATOM     22  C   LIG    1       26.310 -25.788   6.575  0.00  0.00    +0.103 C 
ATOM     23  C   LIG    1       25.443 -26.867   7.257  0.00  0.00    +0.122 C 
ATOM     24  N   LIG    1       25.356 -28.045   6.377  0.00  0.00    -0.312 N 
ATOM     25  C   LIG    1       24.757 -27.687   5.072  0.00  0.00    +0.122 C 
ATOM     26  C   LIG    1       25.585 -26.557   4.399  0.00  0.00    +0.103 C 
BRANCH  24  27
ATOM     27  C   LIG    1       24.976 -29.232   6.949  0.00  0.00    +0.138 A 
ATOM     28  C   LIG    1       25.186 -30.510   6.271  0.00  0.00    +0.031 A 
ATOM     29  C   LIG    1       24.646 -31.550   7.032  0.00  0.00    +0.041 A 
ATOM     30  C   LIG    1       24.664 -32.892   6.611  0.00  0.00    +0.017 A 
ATOM     31  C   LIG    1       25.235 -33.194   5.375  0.00  0.00    +0.001 A 
ATOM     32  C   LIG    1       25.787 -32.190   4.589  0.00  0.00    +0.001 A 
ATOM     33  S   LIG    1       23.996 -30.877   8.466  0.00  0.00    +0.014 S 
ATOM     34  C   LIG    1       25.769 -30.855   5.022  0.00  0.00    +0.012 A 
ATOM     35  N   LIG    1       24.334 -29.306   8.115  0.00  0.00    -0.194 NA
ENDBRANCH  24  27
ENDBRANCH  20  21
ENDBRANCH   2  20
TORSDOF 5
ENDMDL
MODEL 3
REMARK VINA RESULT:      -8.6      3.610      9.056
REMARK  Name = *****
REMARK                            x       y       z     vdW  Elec       q    Type
REMARK                         _______ _______ _______ _____ _____    ______ ____
ROOT
ATOM      1  C   LIG    1       24.571 -29.933   8.951  0.00  0.00    +0.011 C 
ATOM      2  C   LIG    1       25.433 -29.846   7.652  0.00  0.00    +0.008 C 
ATOM      3  C   LIG    1       25.849 -31.246   7.151  0.00  0.00    +0.005 C 
ATOM      4  C   LIG    1       24.688 -32.227   7.022  0.00  0.00    +0.000 C 
ATOM      5  C   LIG    1       23.847 -32.292   8.290  0.00  0.00    +0.000 C 
ATOM      6  C   LIG    1       23.396 -30.908   8.746  0.00  0.00    +0.005 C 
ENDROOT
BRANCH   1   7
ATOM      7  C   LIG    1       25.459 -30.282  10.184  0.00  0.00    +0.120 C 
BRANCH   7  10
ATOM      8  O   LIG    1       23.576 -29.555  12.268  0.00  0.00    -0.275 OA
ATOM      9  C   LIG    1       24.609 -28.930  12.079  0.00  0.00    +0.226 C 
ATOM     10  N   LIG    1       25.565 -29.191  11.142  0.00  0.00    -0.241 N 
ATOM     11  C   LIG    1       26.688 -28.421  11.309  0.00  0.00    +0.226 C 
ATOM     12  O   LIG    1       27.770 -28.562  10.736  0.00  0.00    -0.275 OA
ATOM     13  C   LIG    1       26.407 -27.364  12.352  0.00  0.00    +0.091 C 
ATOM     14  C   LIG    1       27.284 -27.313  13.625  0.00  0.00    +0.002 C 
ATOM     15  C   LIG    1       26.266 -26.863  14.685  0.00  0.00    +0.008 C 
ATOM     16  C   LIG    1       25.310 -28.022  14.388  0.00  0.00    +0.002 C 
ATOM     17  C   LIG    1       26.235 -29.243  14.588  0.00  0.00    +0.004 C 
ATOM     18  C   LIG    1       27.610 -28.719  14.150  0.00  0.00    +0.004 C 
ATOM     19  C   LIG    1       25.032 -27.749  12.905  0.00  0.00    +0.091 C 
ENDBRANCH   7  10
ENDBRANCH   1   7
BRANCH   2  20
ATOM     20  C   LIG    1       24.737 -29.043   6.512  0.00  0.00    +0.088 C 
BRANCH  20  21
ATOM     21  N   LIG    1       25.592 -28.041   5.859  0.00  0.00    -0.299 NA
ATOM     22  C   LIG    1       24.899 -27.162   4.890  0.00  0.00    +0.103 C 
ATOM     23  C   LIG    1       24.069 -26.016   5.505  0.00  0.00    +0.122 C 
ATOM     24  N   LIG    1       24.940 -25.194   6.362  0.00  0.00    -0.312 N 
ATOM     25  C   LIG    1       25.533 -26.006   7.447  0.00  0.00    +0.122 C 
ATOM     26  C   LIG    1       26.324 -27.202   6.845  0.00  0.00    +0.103 C 
BRANCH  24  27
ATOM     27  C   LIG    1       24.504 -23.931   6.676  0.00  0.00    +0.138 A 
ATOM     28  C   LIG    1       25.439 -22.872   7.055  0.00  0.00    +0.031 A 
ATOM     29  C   LIG    1       24.736 -21.713   7.393  0.00  0.00    +0.041 A 
ATOM     30  C   LIG    1       25.370 -20.538   7.837  0.00  0.00    +0.017 A 
ATOM     31  C   LIG    1       26.760 -20.537   7.956  0.00  0.00    +0.001 A 
ATOM     32  C   LIG    1       27.497 -21.668   7.624  0.00  0.00    +0.001 A 
ATOM     33  S   LIG    1       23.065 -22.024   7.181  0.00  0.00    +0.014 S 
ATOM     34  C   LIG    1       26.854 -22.832   7.177  0.00  0.00    +0.012 A 
ATOM     35  N   LIG    1       23.215 -23.598   6.727  0.00  0.00    -0.194 NA
ENDBRANCH  24  27
ENDBRANCH  20  21
ENDBRANCH   2  20
TORSDOF 5
ENDMDL
MODEL 4
REMARK VINA RESULT:      -8.6      3.563      9.367
REMARK  Name = *****
REMARK                            x       y       z     vdW  Elec       q    Type
REMARK                         _______ _______ _______ _____ _____    ______ ____
ROOT
ATOM      1  C   LIG    1       25.250 -29.738   8.645  0.00  0.00    +0.011 C 
ATOM      2  C   LIG    1       25.561 -29.819   7.116  0.00  0.00    +0.008 C 
ATOM      3  C   LIG    1       25.392 -31.257   6.578  0.00  0.00    +0.005 C 
ATOM      4  C   LIG    1       24.058 -31.901   6.944  0.00  0.00    +0.000 C 
ATOM      5  C   LIG    1       23.761 -31.802   8.434  0.00  0.00    +0.000 C 
ATOM      6  C   LIG    1       23.878 -30.369   8.944  0.00  0.00    +0.005 C 
ENDROOT
BRANCH   1   7
ATOM      7  C   LIG    1       26.413 -30.354   9.480  0.00  0.00    +0.120 C 
BRANCH   7  10
ATOM      8  O   LIG    1       26.725 -27.743  10.706  0.00  0.00    -0.275 OA
ATOM      9  C   LIG    1       26.519 -28.751  11.366  0.00  0.00    +0.226 C 
ATOM     10  N   LIG    1       26.345 -30.018  10.896  0.00  0.00    -0.241 N 
ATOM     11  C   LIG    1       25.949 -30.893  11.875  0.00  0.00    +0.226 C 
ATOM     12  O   LIG    1       25.544 -32.045  11.714  0.00  0.00    -0.275 OA
ATOM     13  C   LIG    1       26.054 -30.206  13.217  0.00  0.00    +0.091 C 
ATOM     14  C   LIG    1       24.785 -30.066  14.090  0.00  0.00    +0.002 C 
ATOM     15  C   LIG    1       25.022 -28.706  14.767  0.00  0.00    +0.008 C 
ATOM     16  C   LIG    1       25.191 -27.972  13.434  0.00  0.00    +0.002 C 
ATOM     17  C   LIG    1       23.867 -28.325  12.719  0.00  0.00    +0.004 C 
ATOM     18  C   LIG    1       23.546 -29.730  13.248  0.00  0.00    +0.004 C 
ATOM     19  C   LIG    1       26.380 -28.752  12.862  0.00  0.00    +0.091 C 
ENDBRANCH   7  10
ENDBRANCH   1   7
BRANCH   2  20
ATOM     20  C   LIG    1       24.719 -28.817   6.270  0.00  0.00    +0.088 C 
BRANCH  20  21
ATOM     21  N   LIG    1       25.509 -27.793   5.570  0.00  0.00    -0.299 NA
ATOM     22  C   LIG    1       24.726 -26.875   4.714  0.00  0.00    +0.103 C 
ATOM     23  C   LIG    1       23.973 -25.750   5.457  0.00  0.00    +0.122 C 
ATOM     24  N   LIG    1       24.935 -24.966   6.249  0.00  0.00    -0.312 N 
ATOM     25  C   LIG    1       25.633 -25.822   7.234  0.00  0.00    +0.122 C 
ATOM     26  C   LIG    1       26.347 -26.996   6.506  0.00  0.00    +0.103 C 
BRANCH  24  27
ATOM     27  C   LIG    1       24.545 -23.715   6.656  0.00  0.00    +0.138 A 
ATOM     28  C   LIG    1       25.517 -22.716   7.098  0.00  0.00    +0.031 A 
ATOM     29  C   LIG    1       24.856 -21.561   7.524  0.00  0.00    +0.041 A 
ATOM     30  C   LIG    1       25.533 -20.442   8.042  0.00  0.00    +0.017 A 
ATOM     31  C   LIG    1       26.923 -20.494   8.145  0.00  0.00    +0.001 A 
ATOM     32  C   LIG    1       27.619 -21.622   7.727  0.00  0.00    +0.001 A 
ATOM     33  S   LIG    1       23.174 -21.802   7.308  0.00  0.00    +0.014 S 
ATOM     34  C   LIG    1       26.934 -22.731   7.207  0.00  0.00    +0.012 A 
ATOM     35  N   LIG    1       23.268 -23.344   6.744  0.00  0.00    -0.194 NA
ENDBRANCH  24  27
ENDBRANCH  20  21
ENDBRANCH   2  20
TORSDOF 5
ENDMDL
MODEL 5
REMARK VINA RESULT:      -8.5      4.137      9.879
REMARK  Name = *****
REMARK                            x       y       z     vdW  Elec       q    Type
REMARK                         _______ _______ _______ _____ _____    ______ ____
ROOT
ATOM      1  C   LIG    1       24.102 -31.205   6.910  0.00  0.00    +0.011 C 
ATOM      2  C   LIG    1       25.401 -30.498   6.407  0.00  0.00    +0.008 C 
ATOM      3  C   LIG    1       26.386 -31.503   5.771  0.00  0.00    +0.005 C 
ATOM      4  C   LIG    1       25.755 -32.399   4.710  0.00  0.00    +0.000 C 
ATOM      5  C   LIG    1       24.483 -33.072   5.208  0.00  0.00    +0.000 C 
ATOM      6  C   LIG    1       23.494 -32.064   5.785  0.00  0.00    +0.005 C 
ENDROOT
BRANCH   1   7
ATOM      7  C   LIG    1       24.378 -32.004   8.220  0.00  0.00    +0.120 C 
BRANCH   7  10
ATOM      8  O   LIG    1       22.351 -30.572   9.723  0.00  0.00    -0.275 OA
ATOM      9  C   LIG    1       23.537 -30.512  10.011  0.00  0.00    +0.226 C 
ATOM     10  N   LIG    1       24.566 -31.150   9.385  0.00  0.00    -0.241 N 
ATOM     11  C   LIG    1       25.753 -31.025  10.062  0.00  0.00    +0.226 C 
ATOM     12  O   LIG    1       26.797 -31.639   9.838  0.00  0.00    -0.275 OA
ATOM     13  C   LIG    1       25.577 -30.019  11.176  0.00  0.00    +0.091 C 
ATOM     14  C   LIG    1       25.833 -30.463  12.635  0.00  0.00    +0.002 C 
ATOM     15  C   LIG    1       24.786 -29.635  13.399  0.00  0.00    +0.008 C 
ATOM     16  C   LIG    1       23.620 -30.175  12.566  0.00  0.00    +0.002 C 
ATOM     17  C   LIG    1       23.781 -31.699  12.763  0.00  0.00    +0.004 C 
ATOM     18  C   LIG    1       25.299 -31.878  12.904  0.00  0.00    +0.004 C 
ATOM     19  C   LIG    1       24.074 -29.724  11.173  0.00  0.00    +0.091 C 
ENDBRANCH   7  10
ENDBRANCH   1   7
BRANCH   2  20
ATOM     20  C   LIG    1       25.112 -29.321   5.427  0.00  0.00    +0.088 C 
BRANCH  20  21
ATOM     21  N   LIG    1       26.082 -28.218   5.493  0.00  0.00    -0.299 NA
ATOM     22  C   LIG    1       25.858 -27.128   4.516  0.00  0.00    +0.103 C 
ATOM     23  C   LIG    1       24.737 -26.131   4.877  0.00  0.00    +0.122 C 
ATOM     24  N   LIG    1       25.020 -25.543   6.197  0.00  0.00    -0.312 N 
ATOM     25  C   LIG    1       25.095 -26.592   7.238  0.00  0.00    +0.122 C 
ATOM     26  C   LIG    1       26.180 -27.639   6.859  0.00  0.00    +0.103 C 
BRANCH  24  27
ATOM     27  C   LIG    1       24.377 -24.373   6.517  0.00  0.00    +0.138 A 
ATOM     28  C   LIG    1       25.117 -23.182   6.929  0.00  0.00    +0.031 A 
ATOM     29  C   LIG    1       24.228 -22.158   7.265  0.00  0.00    +0.041 A 
ATOM     30  C   LIG    1       24.651 -20.903   7.737  0.00  0.00    +0.017 A 
ATOM     31  C   LIG    1       26.020 -20.676   7.887  0.00  0.00    +0.001 A 
ATOM     32  C   LIG    1       26.938 -21.666   7.559  0.00  0.00    +0.001 A 
ATOM     33  S   LIG    1       22.634 -22.735   7.011  0.00  0.00    +0.014 S 
ATOM     34  C   LIG    1       26.504 -22.913   7.084  0.00  0.00    +0.012 A 
ATOM     35  N   LIG    1       23.050 -24.256   6.542  0.00  0.00    -0.194 NA
ENDBRANCH  24  27
ENDBRANCH  20  21
ENDBRANCH   2  20
TORSDOF 5
ENDMDL
MODEL 6
REMARK VINA RESULT:      -8.1      3.596      6.611
REMARK  Name = *****
REMARK                            x       y       z     vdW  Elec       q    Type
REMARK                         _______ _______ _______ _____ _____    ______ ____
ROOT
ATOM      1  C   LIG    1       25.353 -26.935   6.281  0.00  0.00    +0.011 C 
ATOM      2  C   LIG    1       24.957 -28.010   7.343  0.00  0.00    +0.008 C 
ATOM      3  C   LIG    1       24.056 -29.106   6.733  0.00  0.00    +0.005 C 
ATOM      4  C   LIG    1       24.610 -29.720   5.451  0.00  0.00    +0.000 C 
ATOM      5  C   LIG    1       25.005 -28.661   4.430  0.00  0.00    +0.000 C 
ATOM      6  C   LIG    1       25.939 -27.613   5.028  0.00  0.00    +0.005 C 
ENDROOT
BRANCH   1   7
ATOM      7  C   LIG    1       24.151 -25.992   5.971  0.00  0.00    +0.120 C 
BRANCH   7  10
ATOM      8  O   LIG    1       26.603 -24.462   6.225  0.00  0.00    -0.275 OA
ATOM      9  C   LIG    1       25.523 -24.028   6.600  0.00  0.00    +0.226 C 
ATOM     10  N   LIG    1       24.315 -24.653   6.518  0.00  0.00    -0.241 N 
ATOM     11  C   LIG    1       23.272 -23.828   6.856  0.00  0.00    +0.226 C 
ATOM     12  O   LIG    1       22.072 -24.056   6.700  0.00  0.00    -0.275 OA
ATOM     13  C   LIG    1       23.829 -22.547   7.433  0.00  0.00    +0.091 C 
ATOM     14  C   LIG    1       23.485 -21.203   6.748  0.00  0.00    +0.002 C 
ATOM     15  C   LIG    1       24.781 -20.405   6.963  0.00  0.00    +0.008 C 
ATOM     16  C   LIG    1       25.654 -21.472   6.294  0.00  0.00    +0.002 C 
ATOM     17  C   LIG    1       24.976 -21.601   4.912  0.00  0.00    +0.004 C 
ATOM     18  C   LIG    1       23.497 -21.323   5.217  0.00  0.00    +0.004 C 
ATOM     19  C   LIG    1       25.338 -22.664   7.204  0.00  0.00    +0.091 C 
ENDBRANCH   7  10
ENDBRANCH   1   7
BRANCH   2  20
ATOM     20  C   LIG    1       26.190 -28.649   8.051  0.00  0.00    +0.088 C 
BRANCH  20  21
ATOM     21  N   LIG    1       25.867 -29.761   8.957  0.00  0.00    -0.299 NA
ATOM     22  C   LIG    1       27.034 -30.405   9.599  0.00  0.00    +0.103 C 
ATOM     23  C   LIG    1       27.644 -29.642  10.794  0.00  0.00    +0.122 C 
ATOM     24  N   LIG    1       26.599 -29.419  11.808  0.00  0.00    -0.312 N 
ATOM     25  C   LIG    1       25.475 -28.636  11.247  0.00  0.00    +0.122 C 
ATOM     26  C   LIG    1       24.889 -29.363  10.005  0.00  0.00    +0.103 C 
BRANCH  24  27
ATOM     27  C   LIG    1       27.012 -29.120  13.082  0.00  0.00    +0.138 A 
ATOM     28  C   LIG    1       27.206 -27.738  13.518  0.00  0.00    +0.031 A 
ATOM     29  C   LIG    1       27.695 -27.713  14.826  0.00  0.00    +0.041 A 
ATOM     30  C   LIG    1       28.016 -26.520  15.499  0.00  0.00    +0.017 A 
ATOM     31  C   LIG    1       27.848 -25.311  14.824  0.00  0.00    +0.001 A 
ATOM     32  C   LIG    1       27.359 -25.291  13.523  0.00  0.00    +0.001 A 
ATOM     33  S   LIG    1       27.824 -29.331  15.376  0.00  0.00    +0.014 S 
ATOM     34  C   LIG    1       27.037 -26.487  12.865  0.00  0.00    +0.012 A 
ATOM     35  N   LIG    1       27.329 -30.050  13.981  0.00  0.00    -0.194 NA
ENDBRANCH  24  27
ENDBRANCH  20  21
ENDBRANCH   2  20
TORSDOF 5
ENDMDL
MODEL 7
REMARK VINA RESULT:      -7.9      3.570      6.480
REMARK  Name = *****
REMARK                            x       y       z     vdW  Elec       q    Type
REMARK                         _______ _______ _______ _____ _____    ______ ____
ROOT
ATOM      1  C   LIG    1       25.425 -26.640   6.477  0.00  0.00    +0.011 C 
ATOM      2  C   LIG    1       24.648 -27.925   6.907  0.00  0.00    +0.008 C 
ATOM      3  C   LIG    1       24.265 -28.792   5.688  0.00  0.00    +0.005 C 
ATOM      4  C   LIG    1       25.433 -29.094   4.753  0.00  0.00    +0.000 C 
ATOM      5  C   LIG    1       26.189 -27.834   4.353  0.00  0.00    +0.000 C 
ATOM      6  C   LIG    1       26.610 -27.012   5.567  0.00  0.00    +0.005 C 
ENDROOT
BRANCH   1   7
ATOM      7  C   LIG    1       24.458 -25.595   5.841  0.00  0.00    +0.120 C 
BRANCH   7  10
ATOM      8  O   LIG    1       26.706 -23.911   6.568  0.00  0.00    -0.275 OA
ATOM      9  C   LIG    1       25.555 -23.620   6.858  0.00  0.00    +0.226 C 
ATOM     10  N   LIG    1       24.430 -24.327   6.557  0.00  0.00    -0.241 N 
ATOM     11  C   LIG    1       23.281 -23.642   6.861  0.00  0.00    +0.226 C 
ATOM     12  O   LIG    1       22.133 -23.947   6.535  0.00  0.00    -0.275 OA
ATOM     13  C   LIG    1       23.643 -22.403   7.647  0.00  0.00    +0.091 C 
ATOM     14  C   LIG    1       23.248 -21.016   7.088  0.00  0.00    +0.002 C 
ATOM     15  C   LIG    1       24.428 -20.147   7.550  0.00  0.00    +0.008 C 
ATOM     16  C   LIG    1       25.469 -21.043   6.872  0.00  0.00    +0.002 C 
ATOM     17  C   LIG    1       24.963 -21.051   5.412  0.00  0.00    +0.004 C 
ATOM     18  C   LIG    1       23.439 -20.938   5.567  0.00  0.00    +0.004 C 
ATOM     19  C   LIG    1       25.173 -22.365   7.590  0.00  0.00    +0.091 C 
ENDBRANCH   7  10
ENDBRANCH   1   7
BRANCH   2  20
ATOM     20  C   LIG    1       25.417 -28.776   7.963  0.00  0.00    +0.088 C 
BRANCH  20  21
ATOM     21  N   LIG    1       24.858 -30.116   8.192  0.00  0.00    -0.299 NA
ATOM     22  C   LIG    1       25.844 -31.147   8.587  0.00  0.00    +0.103 C 
ATOM     23  C   LIG    1       26.294 -31.109  10.063  0.00  0.00    +0.122 C 
ATOM     24  N   LIG    1       25.110 -31.219  10.931  0.00  0.00    -0.312 N 
ATOM     25  C   LIG    1       24.163 -30.110  10.679  0.00  0.00    +0.122 C 
ATOM     26  C   LIG    1       23.747 -30.098   9.181  0.00  0.00    +0.103 C 
BRANCH  24  27
ATOM     27  C   LIG    1       25.318 -31.595  12.235  0.00  0.00    +0.138 A 
ATOM     28  C   LIG    1       24.341 -32.405  12.962  0.00  0.00    +0.031 A 
ATOM     29  C   LIG    1       24.758 -32.585  14.283  0.00  0.00    +0.041 A 
ATOM     30  C   LIG    1       23.999 -33.292  15.233  0.00  0.00    +0.017 A 
ATOM     31  C   LIG    1       22.771 -33.825  14.840  0.00  0.00    +0.001 A 
ATOM     32  C   LIG    1       22.322 -33.673  13.534  0.00  0.00    +0.001 A 
ATOM     33  S   LIG    1       26.269 -31.801  14.475  0.00  0.00    +0.014 S 
ATOM     34  C   LIG    1       23.091 -32.971  12.593  0.00  0.00    +0.012 A 
ATOM     35  N   LIG    1       26.372 -31.200  12.947  0.00  0.00    -0.194 NA
ENDBRANCH  24  27
ENDBRANCH  20  21
ENDBRANCH   2  20
TORSDOF 5
ENDMDL
MODEL 8
REMARK VINA RESULT:      -7.8      3.719      6.539
REMARK  Name = *****
REMARK                            x       y       z     vdW  Elec       q    Type
REMARK                         _______ _______ _______ _____ _____    ______ ____
ROOT
ATOM      1  C   LIG    1       25.409 -26.855   6.566  0.00  0.00    +0.011 C 
ATOM      2  C   LIG    1       24.777 -28.107   7.253  0.00  0.00    +0.008 C 
ATOM      3  C   LIG    1       24.214 -29.101   6.215  0.00  0.00    +0.005 C 
ATOM      4  C   LIG    1       25.202 -29.470   5.112  0.00  0.00    +0.000 C 
ATOM      5  C   LIG    1       25.820 -28.240   4.460  0.00  0.00    +0.000 C 
ATOM      6  C   LIG    1       26.422 -27.291   5.491  0.00  0.00    +0.005 C 
ENDROOT
BRANCH   1   7
ATOM      7  C   LIG    1       24.300 -25.902   6.023  0.00  0.00    +0.120 C 
BRANCH   7  10
ATOM      8  O   LIG    1       26.649 -24.251   6.443  0.00  0.00    -0.275 OA
ATOM      9  C   LIG    1       25.528 -23.879   6.759  0.00  0.00    +0.226 C 
ATOM     10  N   LIG    1       24.361 -24.564   6.596  0.00  0.00    -0.241 N 
ATOM     11  C   LIG    1       23.259 -23.800   6.882  0.00  0.00    +0.226 C 
ATOM     12  O   LIG    1       22.083 -24.087   6.652  0.00  0.00    -0.275 OA
ATOM     13  C   LIG    1       23.712 -22.501   7.508  0.00  0.00    +0.091 C 
ATOM     14  C   LIG    1       23.339 -21.166   6.822  0.00  0.00    +0.002 C 
ATOM     15  C   LIG    1       24.577 -20.305   7.124  0.00  0.00    +0.008 C 
ATOM     16  C   LIG    1       25.542 -21.315   6.494  0.00  0.00    +0.002 C 
ATOM     17  C   LIG    1       24.954 -21.457   5.072  0.00  0.00    +0.004 C 
ATOM     18  C   LIG    1       23.448 -21.260   5.293  0.00  0.00    +0.004 C 
ATOM     19  C   LIG    1       25.237 -22.537   7.368  0.00  0.00    +0.091 C 
ENDBRANCH   7  10
ENDBRANCH   1   7
BRANCH   2  20
ATOM     20  C   LIG    1       25.760 -28.829   8.223  0.00  0.00    +0.088 C 
BRANCH  20  21
ATOM     21  N   LIG    1       25.324 -30.166   8.652  0.00  0.00    -0.299 NA
ATOM     22  C   LIG    1       26.040 -30.712   9.827  0.00  0.00    +0.103 C 
ATOM     23  C   LIG    1       25.596 -30.155  11.196  0.00  0.00    +0.122 C 
ATOM     24  N   LIG    1       24.150 -30.385  11.364  0.00  0.00    -0.312 N 
ATOM     25  C   LIG    1       23.380 -29.719  10.290  0.00  0.00    +0.122 C 
ATOM     26  C   LIG    1       23.859 -30.225   8.901  0.00  0.00    +0.103 C 
BRANCH  24  27
ATOM     27  C   LIG    1       23.648 -30.326  12.640  0.00  0.00    +0.138 A 
ATOM     28  C   LIG    1       23.382 -29.048  13.299  0.00  0.00    +0.031 A 
ATOM     29  C   LIG    1       22.947 -29.267  14.609  0.00  0.00    +0.041 A 
ATOM     30  C   LIG    1       22.652 -28.220  15.500  0.00  0.00    +0.017 A 
ATOM     31  C   LIG    1       22.814 -26.906  15.059  0.00  0.00    +0.001 A 
ATOM     32  C   LIG    1       23.241 -26.645  13.763  0.00  0.00    +0.001 A 
ATOM     33  S   LIG    1       22.875 -30.959  14.869  0.00  0.00    +0.014 S 
ATOM     34  C   LIG    1       23.526 -27.698  12.881  0.00  0.00    +0.012 A 
ATOM     35  N   LIG    1       23.433 -31.408  13.387  0.00  0.00    -0.194 NA
ENDBRANCH  24  27
ENDBRANCH  20  21
ENDBRANCH   2  20
TORSDOF 5
ENDMDL
MODEL 9
REMARK VINA RESULT:      -7.7      4.724     10.418
REMARK  Name = *****
REMARK                            x       y       z     vdW  Elec       q    Type
REMARK                         _______ _______ _______ _____ _____    ______ ____
ROOT
ATOM      1  C   LIG    1       24.651 -32.135   6.613  0.00  0.00    +0.011 C 
ATOM      2  C   LIG    1       25.910 -31.492   5.950  0.00  0.00    +0.008 C 
ATOM      3  C   LIG    1       26.499 -32.400   4.850  0.00  0.00    +0.005 C 
ATOM      4  C   LIG    1       25.473 -32.876   3.826  0.00  0.00    +0.000 C 
ATOM      5  C   LIG    1       24.244 -33.488   4.486  0.00  0.00    +0.000 C 
ATOM      6  C   LIG    1       23.638 -32.560   5.533  0.00  0.00    +0.005 C 
ENDROOT
BRANCH   1   7
ATOM      7  C   LIG    1       25.059 -33.295   7.571  0.00  0.00    +0.120 C 
BRANCH   7  10
ATOM      8  O   LIG    1       26.974 -32.349   9.536  0.00  0.00    -0.275 OA
ATOM      9  C   LIG    1       25.803 -32.561   9.818  0.00  0.00    +0.226 C 
ATOM     10  N   LIG    1       24.822 -32.991   8.976  0.00  0.00    -0.241 N 
ATOM     11  C   LIG    1       23.578 -32.953   9.554  0.00  0.00    +0.226 C 
ATOM     12  O   LIG    1       22.496 -33.104   8.985  0.00  0.00    -0.275 OA
ATOM     13  C   LIG    1       23.733 -32.655  11.028  0.00  0.00    +0.091 C 
ATOM     14  C   LIG    1       23.052 -31.397  11.615  0.00  0.00    +0.002 C 
ATOM     15  C   LIG    1       24.064 -30.969  12.690  0.00  0.00    +0.008 C 
ATOM     16  C   LIG    1       25.224 -30.889  11.693  0.00  0.00    +0.002 C 
ATOM     17  C   LIG    1       24.659 -29.906  10.644  0.00  0.00    +0.004 C 
ATOM     18  C   LIG    1       23.152 -30.196  10.664  0.00  0.00    +0.004 C 
ATOM     19  C   LIG    1       25.222 -32.336  11.185  0.00  0.00    +0.091 C 
ENDBRANCH   7  10
ENDBRANCH   1   7
BRANCH   2  20
ATOM     20  C   LIG    1       25.641 -30.062   5.392  0.00  0.00    +0.088 C 
BRANCH  20  21
ATOM     21  N   LIG    1       24.568 -29.329   6.080  0.00  0.00    -0.299 NA
ATOM     22  C   LIG    1       24.950 -28.736   7.382  0.00  0.00    +0.103 C 
ATOM     23  C   LIG    1       25.762 -27.426   7.305  0.00  0.00    +0.122 C 
ATOM     24  N   LIG    1       25.002 -26.432   6.529  0.00  0.00    -0.312 N 
ATOM     25  C   LIG    1       24.734 -26.923   5.159  0.00  0.00    +0.122 C 
ATOM     26  C   LIG    1       23.968 -28.274   5.219  0.00  0.00    +0.103 C 
BRANCH  24  27
ATOM     27  C   LIG    1       25.356 -25.114   6.676  0.00  0.00    +0.138 A 
ATOM     28  C   LIG    1       24.351 -24.053   6.727  0.00  0.00    +0.031 A 
ATOM     29  C   LIG    1       24.975 -22.806   6.807  0.00  0.00    +0.041 A 
ATOM     30  C   LIG    1       24.261 -21.595   6.831  0.00  0.00    +0.017 A 
ATOM     31  C   LIG    1       22.868 -21.643   6.759  0.00  0.00    +0.001 A 
ATOM     32  C   LIG    1       22.208 -22.863   6.683  0.00  0.00    +0.001 A 
ATOM     33  S   LIG    1       26.669 -23.061   6.849  0.00  0.00    +0.014 S 
ATOM     34  C   LIG    1       22.931 -24.065   6.666  0.00  0.00    +0.012 A 
ATOM     35  N   LIG    1       26.622 -24.700   6.712  0.00  0.00    -0.194 NA
ENDBRANCH  24  27
ENDBRANCH  20  21
ENDBRANCH   2  20
TORSDOF 5
ENDMDL
