MODEL 1
REMARK VINA RESULT:      -6.8      0.000      0.000
REMARK  Name = *****
REMARK                            x       y       z     vdW  Elec       q    Type
REMARK                         _______ _______ _______ _____ _____    ______ ____
ROOT
ATOM      1  C   LIG    1       22.453 -19.379   5.066  0.00  0.00    -0.000 C 
ENDROOT
BRANCH   1   2
ATOM      2  C   LIG    1       22.389 -20.902   5.284  0.00  0.00    -0.000 C 
BRANCH   2   3
ATOM      3  C   LIG    1       23.038 -21.489   6.581  0.00  0.00    -0.000 C 
BRANCH   3   4
ATOM      4  C   LIG    1       22.563 -22.897   6.972  0.00  0.00    -0.000 C 
BRANCH   4   5
ATOM      5  C   LIG    1       23.499 -24.079   6.593  0.00  0.00    -0.000 C 
BRANCH   5   6
ATOM      6  C   LIG    1       24.884 -23.671   6.068  0.00  0.00    -0.000 C 
BRANCH   6   7
ATOM      7  C   LIG    1       26.010 -24.646   6.460  0.00  0.00    -0.000 C 
BRANCH   7   8
ATOM      8  C   LIG    1       25.575 -26.087   6.798  0.00  0.00    +0.000 C 
BRANCH   8   9
ATOM      9  C   LIG    1       26.066 -27.218   5.882  0.00  0.00    +0.002 C 
BRANCH   9  10
ATOM     10  C   LIG    1       25.052 -27.974   5.031  0.00  0.00    +0.028 C 
BRANCH  10  11
ATOM     11  C   LIG    1       24.645 -29.349   5.530  0.00  0.00    +0.156 C 
BRANCH  11  12
ATOM     12  O   LIG    1       23.212 -29.420   5.514  0.00  0.00    -0.395 OA
ATOM     13  H   LIG    1       22.883 -28.889   6.209  0.00  0.00    +0.209 HD
ENDBRANCH  11  12
ENDBRANCH  10  11
ENDBRANCH   9  10
ENDBRANCH   8   9
ENDBRANCH   7   8
ENDBRANCH   6   7
ENDBRANCH   5   6
ENDBRANCH   4   5
ENDBRANCH   3   4
ENDBRANCH   2   3
ENDBRANCH   1   2
BRANCH   1  14
ATOM     14  C   LIG    1       23.345 -18.873   3.888  0.00  0.00    -0.000 C 
BRANCH  14  15
ATOM     15  C   LIG    1       24.882 -19.077   3.777  0.00  0.00    -0.000 C 
BRANCH  15  16
ATOM     16  C   LIG    1       25.568 -20.390   4.225  0.00  0.00    -0.000 C 
BRANCH  16  17
ATOM     17  C   LIG    1       26.687 -20.060   5.278  0.00  0.00    -0.000 C 
BRANCH  17  18
ATOM     18  C   LIG    1       26.411 -20.465   6.741  0.00  0.00    -0.000 C 
BRANCH  18  19
ATOM     19  C   LIG    1       27.536 -21.244   7.499  0.00  0.00    -0.000 C 
BRANCH  19  20
ATOM     20  C   LIG    1       29.026 -20.766   7.473  0.00  0.00    -0.000 C 
BRANCH  20  21
ATOM     21  C   LIG    1       29.278 -19.300   7.909  0.00  0.00    -0.000 C 
BRANCH  21  22
ATOM     22  C   LIG    1       30.636 -18.996   8.604  0.00  0.00    -0.000 C 
BRANCH  22  24
ATOM     23  C   LIG    1       32.051 -17.217   9.967  0.00  0.00    +0.004 C 
ATOM     24  C   LIG    1       30.920 -17.513   8.983  0.00  0.00    -0.003 C 
ENDBRANCH  22  24
ENDBRANCH  21  22
ENDBRANCH  20  21
ENDBRANCH  19  20
ENDBRANCH  18  19
ENDBRANCH  17  18
ENDBRANCH  16  17
ENDBRANCH  15  16
ENDBRANCH  14  15
ENDBRANCH   1  14
TORSDOF 21
ENDMDL
MODEL 2
REMARK VINA RESULT:      -6.7      3.218      8.294
REMARK  Name = *****
REMARK                            x       y       z     vdW  Elec       q    Type
REMARK                         _______ _______ _______ _____ _____    ______ ____
ROOT
ATOM      1  C   LIG    1       22.886 -21.539   6.613  0.00  0.00    -0.000 C 
ENDROOT
BRANCH   1   2
ATOM      2  C   LIG    1       22.460 -20.790   5.338  0.00  0.00    -0.000 C 
BRANCH   2   3
ATOM      3  C   LIG    1       23.527 -19.909   4.608  0.00  0.00    -0.000 C 
BRANCH   3   4
ATOM      4  C   LIG    1       24.851 -20.618   4.284  0.00  0.00    -0.000 C 
BRANCH   4   5
ATOM      5  C   LIG    1       26.109 -20.135   5.060  0.00  0.00    -0.000 C 
BRANCH   5   6
ATOM      6  C   LIG    1       26.237 -20.674   6.492  0.00  0.00    -0.000 C 
BRANCH   6   7
ATOM      7  C   LIG    1       27.655 -20.548   7.079  0.00  0.00    -0.000 C 
BRANCH   7   8
ATOM      8  C   LIG    1       28.722 -19.926   6.155  0.00  0.00    +0.000 C 
BRANCH   8   9
ATOM      9  C   LIG    1       29.675 -18.884   6.759  0.00  0.00    +0.002 C 
BRANCH   9  10
ATOM     10  C   LIG    1       31.096 -19.302   7.120  0.00  0.00    +0.028 C 
BRANCH  10  11
ATOM     11  C   LIG    1       31.738 -18.573   8.286  0.00  0.00    +0.156 C 
BRANCH  11  12
ATOM     12  O   LIG    1       32.055 -19.543   9.295  0.00  0.00    -0.395 OA
ATOM     13  H   LIG    1       31.907 -19.157  10.133  0.00  0.00    +0.209 HD
ENDBRANCH  11  12
ENDBRANCH  10  11
ENDBRANCH   9  10
ENDBRANCH   8   9
ENDBRANCH   7   8
ENDBRANCH   6   7
ENDBRANCH   5   6
ENDBRANCH   4   5
ENDBRANCH   3   4
ENDBRANCH   2   3
ENDBRANCH   1   2
BRANCH   1  14
ATOM     14  C   LIG    1       22.581 -23.070   6.668  0.00  0.00    -0.000 C 
BRANCH  14  15
ATOM     15  C   LIG    1       23.652 -24.195   6.710  0.00  0.00    -0.000 C 
BRANCH  15  16
ATOM     16  C   LIG    1       24.791 -24.282   5.667  0.00  0.00    -0.000 C 
BRANCH  16  17
ATOM     17  C   LIG    1       26.089 -24.838   6.357  0.00  0.00    -0.000 C 
BRANCH  17  18
ATOM     18  C   LIG    1       26.142 -26.356   6.627  0.00  0.00    -0.000 C 
BRANCH  18  19
ATOM     19  C   LIG    1       25.500 -27.303   5.561  0.00  0.00    -0.000 C 
BRANCH  19  20
ATOM     20  C   LIG    1       24.250 -28.183   5.891  0.00  0.00    -0.000 C 
BRANCH  20  21
ATOM     21  C   LIG    1       24.541 -29.578   6.502  0.00  0.00    -0.000 C 
BRANCH  21  22
ATOM     22  C   LIG    1       24.489 -29.693   8.052  0.00  0.00    -0.000 C 
BRANCH  22  24
ATOM     23  C   LIG    1       26.464 -28.538   9.390  0.00  0.00    +0.004 C 
ATOM     24  C   LIG    1       25.850 -29.806   8.800  0.00  0.00    -0.003 C 
ENDBRANCH  22  24
ENDBRANCH  21  22
ENDBRANCH  20  21
ENDBRANCH  19  20
ENDBRANCH  18  19
ENDBRANCH  17  18
ENDBRANCH  16  17
ENDBRANCH  15  16
ENDBRANCH  14  15
ENDBRANCH   1  14
TORSDOF 21
ENDMDL
MODEL 3
REMARK VINA RESULT:      -6.7      1.224      2.470
REMARK  Name = *****
REMARK                            x       y       z     vdW  Elec       q    Type
REMARK                         _______ _______ _______ _____ _____    ______ ____
ROOT
ATOM      1  C   LIG    1       23.211 -20.627   7.079  0.00  0.00    -0.000 C 
ENDROOT
BRANCH   1   2
ATOM      2  C   LIG    1       23.448 -22.068   7.564  0.00  0.00    -0.000 C 
BRANCH   2   3
ATOM      3  C   LIG    1       23.336 -23.226   6.518  0.00  0.00    -0.000 C 
BRANCH   3   4
ATOM      4  C   LIG    1       24.656 -23.628   5.841  0.00  0.00    -0.000 C 
BRANCH   4   5
ATOM      5  C   LIG    1       25.765 -24.205   6.765  0.00  0.00    -0.000 C 
BRANCH   5   6
ATOM      6  C   LIG    1       25.885 -25.736   6.761  0.00  0.00    -0.000 C 
BRANCH   6   7
ATOM      7  C   LIG    1       25.633 -26.375   5.383  0.00  0.00    -0.000 C 
BRANCH   7   8
ATOM      8  C   LIG    1       24.605 -27.525   5.344  0.00  0.00    +0.000 C 
BRANCH   8   9
ATOM      9  C   LIG    1       25.117 -28.953   5.584  0.00  0.00    +0.002 C 
BRANCH   9  10
ATOM     10  C   LIG    1       24.703 -29.684   6.856  0.00  0.00    +0.028 C 
BRANCH  10  11
ATOM     11  C   LIG    1       24.380 -31.161   6.711  0.00  0.00    +0.156 C 
BRANCH  11  12
ATOM     12  O   LIG    1       23.294 -31.287   5.781  0.00  0.00    -0.395 OA
ATOM     13  H   LIG    1       23.294 -32.157   5.443  0.00  0.00    +0.209 HD
ENDBRANCH  11  12
ENDBRANCH  10  11
ENDBRANCH   9  10
ENDBRANCH   8   9
ENDBRANCH   7   8
ENDBRANCH   6   7
ENDBRANCH   5   6
ENDBRANCH   4   5
ENDBRANCH   3   4
ENDBRANCH   2   3
ENDBRANCH   1   2
BRANCH   1  14
ATOM     14  C   LIG    1       22.584 -20.455   5.659  0.00  0.00    -0.000 C 
BRANCH  14  15
ATOM     15  C   LIG    1       22.522 -19.121   4.864  0.00  0.00    -0.000 C 
BRANCH  15  16
ATOM     16  C   LIG    1       23.489 -18.819   3.694  0.00  0.00    -0.000 C 
BRANCH  16  17
ATOM     17  C   LIG    1       24.642 -19.887   3.683  0.00  0.00    -0.000 C 
BRANCH  17  18
ATOM     18  C   LIG    1       25.939 -19.525   4.436  0.00  0.00    -0.000 C 
BRANCH  18  19
ATOM     19  C   LIG    1       26.572 -20.623   5.353  0.00  0.00    -0.000 C 
BRANCH  19  20
ATOM     20  C   LIG    1       26.713 -20.420   6.898  0.00  0.00    -0.000 C 
BRANCH  20  21
ATOM     21  C   LIG    1       27.878 -21.183   7.581  0.00  0.00    -0.000 C 
BRANCH  21  22
ATOM     22  C   LIG    1       29.130 -20.349   7.975  0.00  0.00    -0.000 C 
BRANCH  22  24
ATOM     23  C   LIG    1       31.367 -19.181   7.163  0.00  0.00    +0.004 C 
ATOM     24  C   LIG    1       30.031 -19.835   6.814  0.00  0.00    -0.003 C 
ENDBRANCH  22  24
ENDBRANCH  21  22
ENDBRANCH  20  21
ENDBRANCH  19  20
ENDBRANCH  18  19
ENDBRANCH  17  18
ENDBRANCH  16  17
ENDBRANCH  15  16
ENDBRANCH  14  15
ENDBRANCH   1  14
TORSDOF 21
ENDMDL
MODEL 4
REMARK VINA RESULT:      -6.7      3.502      8.359
REMARK  Name = *****
REMARK                            x       y       z     vdW  Elec       q    Type
REMARK                         _______ _______ _______ _____ _____    ______ ____
ROOT
ATOM      1  C   LIG    1       22.792 -23.103   6.662  0.00  0.00    -0.000 C 
ENDROOT
BRANCH   1   2
ATOM      2  C   LIG    1       23.265 -21.989   7.612  0.00  0.00    -0.000 C 
BRANCH   2   3
ATOM      3  C   LIG    1       23.603 -20.589   6.998  0.00  0.00    -0.000 C 
BRANCH   3   4
ATOM      4  C   LIG    1       24.416 -20.625   5.695  0.00  0.00    -0.000 C 
BRANCH   4   5
ATOM      5  C   LIG    1       25.964 -20.648   5.839  0.00  0.00    -0.000 C 
BRANCH   5   6
ATOM      6  C   LIG    1       26.482 -20.713   7.284  0.00  0.00    -0.000 C 
BRANCH   6   7
ATOM      7  C   LIG    1       27.887 -20.111   7.468  0.00  0.00    -0.000 C 
BRANCH   7   8
ATOM      8  C   LIG    1       28.618 -19.681   6.179  0.00  0.00    +0.000 C 
BRANCH   8   9
ATOM      9  C   LIG    1       29.896 -18.842   6.325  0.00  0.00    +0.002 C 
BRANCH   9  10
ATOM     10  C   LIG    1       31.079 -19.424   7.091  0.00  0.00    +0.028 C 
BRANCH  10  11
ATOM     11  C   LIG    1       31.541 -18.646   8.310  0.00  0.00    +0.156 C 
BRANCH  11  12
ATOM     12  O   LIG    1       32.116 -19.577   9.238  0.00  0.00    -0.395 OA
ATOM     13  H   LIG    1       31.422 -20.017   9.683  0.00  0.00    +0.209 HD
ENDBRANCH  11  12
ENDBRANCH  10  11
ENDBRANCH   9  10
ENDBRANCH   8   9
ENDBRANCH   7   8
ENDBRANCH   6   7
ENDBRANCH   5   6
ENDBRANCH   4   5
ENDBRANCH   3   4
ENDBRANCH   2   3
ENDBRANCH   1   2
BRANCH   1  14
ATOM     14  C   LIG    1       23.695 -24.373   6.559  0.00  0.00    -0.000 C 
BRANCH  14  15
ATOM     15  C   LIG    1       25.248 -24.369   6.549  0.00  0.00    -0.000 C 
BRANCH  15  16
ATOM     16  C   LIG    1       26.071 -25.679   6.504  0.00  0.00    -0.000 C 
BRANCH  16  17
ATOM     17  C   LIG    1       25.740 -26.456   5.178  0.00  0.00    -0.000 C 
BRANCH  17  18
ATOM     18  C   LIG    1       25.435 -27.963   5.309  0.00  0.00    -0.000 C 
BRANCH  18  19
ATOM     19  C   LIG    1       24.327 -28.390   6.326  0.00  0.00    -0.000 C 
BRANCH  19  20
ATOM     20  C   LIG    1       24.395 -29.754   7.090  0.00  0.00    -0.000 C 
BRANCH  20  21
ATOM     21  C   LIG    1       24.925 -29.692   8.546  0.00  0.00    -0.000 C 
BRANCH  21  22
ATOM     22  C   LIG    1       26.047 -28.658   8.844  0.00  0.00    -0.000 C 
BRANCH  22  24
ATOM     23  C   LIG    1       26.878 -27.963  11.263  0.00  0.00    +0.004 C 
ATOM     24  C   LIG    1       26.950 -28.930  10.083  0.00  0.00    -0.003 C 
ENDBRANCH  22  24
ENDBRANCH  21  22
ENDBRANCH  20  21
ENDBRANCH  19  20
ENDBRANCH  18  19
ENDBRANCH  17  18
ENDBRANCH  16  17
ENDBRANCH  15  16
ENDBRANCH  14  15
ENDBRANCH   1  14
TORSDOF 21
ENDMDL
MODEL 5
REMARK VINA RESULT:      -6.6      3.042      8.450
REMARK  Name = *****
REMARK                            x       y       z     vdW  Elec       q    Type
REMARK                         _______ _______ _______ _____ _____    ______ ____
ROOT
ATOM      1  C   LIG    1       22.632 -20.420   5.197  0.00  0.00    -0.000 C 
ENDROOT
BRANCH   1   2
ATOM      2  C   LIG    1       23.524 -19.572   4.273  0.00  0.00    -0.000 C 
BRANCH   2   3
ATOM      3  C   LIG    1       24.905 -20.165   3.834  0.00  0.00    -0.000 C 
BRANCH   3   4
ATOM      4  C   LIG    1       26.095 -19.783   4.727  0.00  0.00    -0.000 C 
BRANCH   4   5
ATOM      5  C   LIG    1       26.561 -20.847   5.761  0.00  0.00    -0.000 C 
BRANCH   5   6
ATOM      6  C   LIG    1       26.682 -20.341   7.205  0.00  0.00    -0.000 C 
BRANCH   6   7
ATOM      7  C   LIG    1       28.024 -20.689   7.876  0.00  0.00    -0.000 C 
BRANCH   7   8
ATOM      8  C   LIG    1       29.276 -20.603   6.978  0.00  0.00    +0.000 C 
BRANCH   8   9
ATOM      9  C   LIG    1       29.938 -19.229   6.801  0.00  0.00    +0.002 C 
BRANCH   9  10
ATOM     10  C   LIG    1       30.275 -18.405   8.039  0.00  0.00    +0.028 C 
BRANCH  10  11
ATOM     11  C   LIG    1       31.734 -18.383   8.458  0.00  0.00    +0.156 C 
BRANCH  11  12
ATOM     12  O   LIG    1       32.027 -19.631   9.104  0.00  0.00    -0.395 OA
ATOM     13  H   LIG    1       31.833 -19.545  10.014  0.00  0.00    +0.209 HD
ENDBRANCH  11  12
ENDBRANCH  10  11
ENDBRANCH   9  10
ENDBRANCH   8   9
ENDBRANCH   7   8
ENDBRANCH   6   7
ENDBRANCH   5   6
ENDBRANCH   4   5
ENDBRANCH   3   4
ENDBRANCH   2   3
ENDBRANCH   1   2
BRANCH   1  14
ATOM     14  C   LIG    1       23.044 -20.493   6.702  0.00  0.00    -0.000 C 
BRANCH  14  15
ATOM     15  C   LIG    1       23.342 -21.801   7.486  0.00  0.00    -0.000 C 
BRANCH  15  16
ATOM     16  C   LIG    1       23.391 -23.181   6.788  0.00  0.00    -0.000 C 
BRANCH  16  17
ATOM     17  C   LIG    1       24.850 -23.760   6.880  0.00  0.00    -0.000 C 
BRANCH  17  18
ATOM     18  C   LIG    1       25.328 -24.640   5.707  0.00  0.00    -0.000 C 
BRANCH  18  19
ATOM     19  C   LIG    1       24.494 -25.922   5.379  0.00  0.00    -0.000 C 
BRANCH  19  20
ATOM     20  C   LIG    1       25.183 -27.273   4.993  0.00  0.00    -0.000 C 
BRANCH  20  21
ATOM     21  C   LIG    1       25.391 -28.286   6.148  0.00  0.00    -0.000 C 
BRANCH  21  22
ATOM     22  C   LIG    1       24.203 -29.235   6.474  0.00  0.00    -0.000 C 
BRANCH  22  24
ATOM     23  C   LIG    1       25.698 -31.194   5.496  0.00  0.00    +0.004 C 
ATOM     24  C   LIG    1       24.415 -30.753   6.199  0.00  0.00    -0.003 C 
ENDBRANCH  22  24
ENDBRANCH  21  22
ENDBRANCH  20  21
ENDBRANCH  19  20
ENDBRANCH  18  19
ENDBRANCH  17  18
ENDBRANCH  16  17
ENDBRANCH  15  16
ENDBRANCH  14  15
ENDBRANCH   1  14
TORSDOF 21
ENDMDL
MODEL 6
REMARK VINA RESULT:      -6.5      1.509      2.446
REMARK  Name = *****
REMARK                            x       y       z     vdW  Elec       q    Type
REMARK                         _______ _______ _______ _____ _____    ______ ____
ROOT
ATOM      1  C   LIG    1       23.782 -20.807   6.201  0.00  0.00    -0.000 C 
ENDROOT
BRANCH   1   2
ATOM      2  C   LIG    1       22.852 -21.979   5.839  0.00  0.00    -0.000 C 
BRANCH   2   3
ATOM      3  C   LIG    1       22.701 -23.147   6.870  0.00  0.00    -0.000 C 
BRANCH   3   4
ATOM      4  C   LIG    1       23.455 -24.437   6.513  0.00  0.00    -0.000 C 
BRANCH   4   5
ATOM      5  C   LIG    1       24.996 -24.318   6.338  0.00  0.00    -0.000 C 
BRANCH   5   6
ATOM      6  C   LIG    1       25.810 -25.469   6.948  0.00  0.00    -0.000 C 
BRANCH   6   7
ATOM      7  C   LIG    1       26.494 -26.369   5.902  0.00  0.00    -0.000 C 
BRANCH   7   8
ATOM      8  C   LIG    1       25.569 -27.321   5.115  0.00  0.00    +0.000 C 
BRANCH   8   9
ATOM      9  C   LIG    1       24.351 -27.903   5.847  0.00  0.00    +0.002 C 
BRANCH   9  10
ATOM     10  C   LIG    1       24.571 -28.941   6.942  0.00  0.00    +0.028 C 
BRANCH  10  11
ATOM     11  C   LIG    1       24.437 -30.396   6.528  0.00  0.00    +0.156 C 
BRANCH  11  12
ATOM     12  O   LIG    1       23.303 -30.506   5.655  0.00  0.00    -0.395 OA
ATOM     13  H   LIG    1       23.586 -30.335   4.781  0.00  0.00    +0.209 HD
ENDBRANCH  11  12
ENDBRANCH  10  11
ENDBRANCH   9  10
ENDBRANCH   8   9
ENDBRANCH   7   8
ENDBRANCH   6   7
ENDBRANCH   5   6
ENDBRANCH   4   5
ENDBRANCH   3   4
ENDBRANCH   2   3
ENDBRANCH   1   2
BRANCH   1  14
ATOM     14  C   LIG    1       24.186 -20.665   7.703  0.00  0.00    -0.000 C 
BRANCH  14  15
ATOM     15  C   LIG    1       25.512 -21.180   8.326  0.00  0.00    -0.000 C 
BRANCH  15  16
ATOM     16  C   LIG    1       26.792 -20.312   8.362  0.00  0.00    -0.000 C 
BRANCH  16  17
ATOM     17  C   LIG    1       27.524 -20.405   6.974  0.00  0.00    -0.000 C 
BRANCH  17  18
ATOM     18  C   LIG    1       28.843 -21.204   6.931  0.00  0.00    -0.000 C 
BRANCH  18  19
ATOM     19  C   LIG    1       29.994 -20.752   7.889  0.00  0.00    -0.000 C 
BRANCH  19  20
ATOM     20  C   LIG    1       30.962 -19.582   7.513  0.00  0.00    -0.000 C 
BRANCH  20  21
ATOM     21  C   LIG    1       30.658 -18.210   8.168  0.00  0.00    -0.000 C 
BRANCH  21  22
ATOM     22  C   LIG    1       31.854 -17.463   8.824  0.00  0.00    -0.000 C 
BRANCH  22  24
ATOM     23  C   LIG    1       30.494 -17.596  11.095  0.00  0.00    +0.004 C 
ATOM     24  C   LIG    1       31.715 -17.089  10.329  0.00  0.00    -0.003 C 
ENDBRANCH  22  24
ENDBRANCH  21  22
ENDBRANCH  20  21
ENDBRANCH  19  20
ENDBRANCH  18  19
ENDBRANCH  17  18
ENDBRANCH  16  17
ENDBRANCH  15  16
ENDBRANCH  14  15
ENDBRANCH   1  14
TORSDOF 21
ENDMDL
MODEL 7
REMARK VINA RESULT:      -6.5      1.284      2.345
REMARK  Name = *****
REMARK                            x       y       z     vdW  Elec       q    Type
REMARK                         _______ _______ _______ _____ _____    ______ ____
ROOT
ATOM      1  C   LIG    1       24.094 -19.971   4.307  0.00  0.00    -0.000 C 
ENDROOT
BRANCH   1   2
ATOM      2  C   LIG    1       23.318 -20.259   5.604  0.00  0.00    -0.000 C 
BRANCH   2   3
ATOM      3  C   LIG    1       22.897 -21.737   5.900  0.00  0.00    -0.000 C 
BRANCH   3   4
ATOM      4  C   LIG    1       23.246 -22.249   7.306  0.00  0.00    -0.000 C 
BRANCH   4   5
ATOM      5  C   LIG    1       24.715 -22.052   7.775  0.00  0.00    -0.000 C 
BRANCH   5   6
ATOM      6  C   LIG    1       25.776 -22.718   6.887  0.00  0.00    -0.000 C 
BRANCH   6   7
ATOM      7  C   LIG    1       25.627 -24.247   6.779  0.00  0.00    -0.000 C 
BRANCH   7   8
ATOM      8  C   LIG    1       25.187 -24.793   5.405  0.00  0.00    +0.000 C 
BRANCH   8   9
ATOM      9  C   LIG    1       25.357 -26.297   5.143  0.00  0.00    +0.002 C 
BRANCH   9  10
ATOM     10  C   LIG    1       24.356 -27.272   5.752  0.00  0.00    +0.028 C 
BRANCH  10  11
ATOM     11  C   LIG    1       24.497 -28.727   5.341  0.00  0.00    +0.156 C 
BRANCH  11  12
ATOM     12  O   LIG    1       23.202 -29.339   5.428  0.00  0.00    -0.395 OA
ATOM     13  H   LIG    1       22.743 -28.958   6.146  0.00  0.00    +0.209 HD
ENDBRANCH  11  12
ENDBRANCH  10  11
ENDBRANCH   9  10
ENDBRANCH   8   9
ENDBRANCH   7   8
ENDBRANCH   6   7
ENDBRANCH   5   6
ENDBRANCH   4   5
ENDBRANCH   3   4
ENDBRANCH   2   3
ENDBRANCH   1   2
BRANCH   1  14
ATOM     14  C   LIG    1       25.616 -20.323   4.302  0.00  0.00    -0.000 C 
BRANCH  14  15
ATOM     15  C   LIG    1       26.729 -19.491   4.996  0.00  0.00    -0.000 C 
BRANCH  15  16
ATOM     16  C   LIG    1       27.832 -20.154   5.855  0.00  0.00    -0.000 C 
BRANCH  16  17
ATOM     17  C   LIG    1       28.988 -19.119   6.109  0.00  0.00    -0.000 C 
BRANCH  17  18
ATOM     18  C   LIG    1       30.328 -19.680   6.626  0.00  0.00    -0.000 C 
BRANCH  18  19
ATOM     19  C   LIG    1       31.034 -18.908   7.789  0.00  0.00    -0.000 C 
BRANCH  19  20
ATOM     20  C   LIG    1       30.275 -17.843   8.647  0.00  0.00    -0.000 C 
BRANCH  20  21
ATOM     21  C   LIG    1       30.440 -17.963  10.184  0.00  0.00    -0.000 C 
BRANCH  21  22
ATOM     22  C   LIG    1       30.678 -16.644  10.971  0.00  0.00    -0.000 C 
BRANCH  22  24
ATOM     23  C   LIG    1       32.930 -15.800   9.857  0.00  0.00    +0.004 C 
ATOM     24  C   LIG    1       32.152 -16.165  11.120  0.00  0.00    -0.003 C 
ENDBRANCH  22  24
ENDBRANCH  21  22
ENDBRANCH  20  21
ENDBRANCH  19  20
ENDBRANCH  18  19
ENDBRANCH  17  18
ENDBRANCH  16  17
ENDBRANCH  15  16
ENDBRANCH  14  15
ENDBRANCH   1  14
TORSDOF 21
ENDMDL
MODEL 8
REMARK VINA RESULT:      -6.4      1.795      3.677
REMARK  Name = *****
REMARK                            x       y       z     vdW  Elec       q    Type
REMARK                         _______ _______ _______ _____ _____    ______ ____
ROOT
ATOM      1  C   LIG    1       23.883 -22.276   7.377  0.00  0.00    -0.000 C 
ENDROOT
BRANCH   1   2
ATOM      2  C   LIG    1       24.724 -23.043   6.341  0.00  0.00    -0.000 C 
BRANCH   2   3
ATOM      3  C   LIG    1       25.786 -24.067   6.863  0.00  0.00    -0.000 C 
BRANCH   3   4
ATOM      4  C   LIG    1       25.437 -25.545   6.635  0.00  0.00    -0.000 C 
BRANCH   4   5
ATOM      5  C   LIG    1       26.264 -26.299   5.556  0.00  0.00    -0.000 C 
BRANCH   5   6
ATOM      6  C   LIG    1       25.823 -27.745   5.289  0.00  0.00    -0.000 C 
BRANCH   6   7
ATOM      7  C   LIG    1       24.362 -28.032   5.681  0.00  0.00    -0.000 C 
BRANCH   7   8
ATOM      8  C   LIG    1       24.069 -29.442   6.235  0.00  0.00    +0.000 C 
BRANCH   8   9
ATOM      9  C   LIG    1       25.158 -30.120   7.080  0.00  0.00    +0.002 C 
BRANCH   9  10
ATOM     10  C   LIG    1       25.280 -29.762   8.556  0.00  0.00    +0.028 C 
BRANCH  10  11
ATOM     11  C   LIG    1       26.252 -28.648   8.902  0.00  0.00    +0.156 C 
BRANCH  11  12
ATOM     12  O   LIG    1       27.430 -29.246   9.461  0.00  0.00    -0.395 OA
ATOM     13  H   LIG    1       27.177 -30.009   9.936  0.00  0.00    +0.209 HD
ENDBRANCH  11  12
ENDBRANCH  10  11
ENDBRANCH   9  10
ENDBRANCH   8   9
ENDBRANCH   7   8
ENDBRANCH   6   7
ENDBRANCH   5   6
ENDBRANCH   4   5
ENDBRANCH   3   4
ENDBRANCH   2   3
ENDBRANCH   1   2
BRANCH   1  14
ATOM     14  C   LIG    1       23.242 -20.931   6.910  0.00  0.00    -0.000 C 
BRANCH  14  15
ATOM     15  C   LIG    1       22.607 -20.679   5.514  0.00  0.00    -0.000 C 
BRANCH  15  16
ATOM     16  C   LIG    1       22.486 -19.258   4.914  0.00  0.00    -0.000 C 
BRANCH  16  17
ATOM     17  C   LIG    1       23.556 -19.079   3.777  0.00  0.00    -0.000 C 
BRANCH  17  18
ATOM     18  C   LIG    1       24.705 -20.107   3.730  0.00  0.00    -0.000 C 
BRANCH  18  19
ATOM     19  C   LIG    1       26.094 -19.664   4.295  0.00  0.00    -0.000 C 
BRANCH  19  20
ATOM     20  C   LIG    1       26.648 -20.225   5.646  0.00  0.00    -0.000 C 
BRANCH  20  21
ATOM     21  C   LIG    1       28.135 -19.915   5.955  0.00  0.00    -0.000 C 
BRANCH  21  22
ATOM     22  C   LIG    1       28.562 -19.933   7.451  0.00  0.00    -0.000 C 
BRANCH  22  24
ATOM     23  C   LIG    1       31.155 -19.414   7.273  0.00  0.00    +0.004 C 
ATOM     24  C   LIG    1       30.035 -20.331   7.761  0.00  0.00    -0.003 C 
ENDBRANCH  22  24
ENDBRANCH  21  22
ENDBRANCH  20  21
ENDBRANCH  19  20
ENDBRANCH  18  19
ENDBRANCH  17  18
ENDBRANCH  16  17
ENDBRANCH  15  16
ENDBRANCH  14  15
ENDBRANCH   1  14
TORSDOF 21
ENDMDL
MODEL 9
REMARK VINA RESULT:      -6.4      3.405      7.878
REMARK  Name = *****
REMARK                            x       y       z     vdW  Elec       q    Type
REMARK                         _______ _______ _______ _____ _____    ______ ____
ROOT
ATOM      1  C   LIG    1       22.718 -23.027   6.799  0.00  0.00    -0.000 C 
ENDROOT
BRANCH   1   2
ATOM      2  C   LIG    1       23.374 -21.866   7.569  0.00  0.00    -0.000 C 
BRANCH   2   3
ATOM      3  C   LIG    1       23.216 -20.418   6.996  0.00  0.00    -0.000 C 
BRANCH   3   4
ATOM      4  C   LIG    1       22.801 -20.340   5.519  0.00  0.00    -0.000 C 
BRANCH   4   5
ATOM      5  C   LIG    1       23.917 -19.974   4.500  0.00  0.00    -0.000 C 
BRANCH   5   6
ATOM      6  C   LIG    1       25.191 -20.826   4.595  0.00  0.00    -0.000 C 
BRANCH   6   7
ATOM      7  C   LIG    1       26.363 -20.115   5.296  0.00  0.00    -0.000 C 
BRANCH   7   8
ATOM      8  C   LIG    1       26.808 -20.709   6.649  0.00  0.00    +0.000 C 
BRANCH   8   9
ATOM      9  C   LIG    1       28.303 -21.005   6.845  0.00  0.00    +0.002 C 
BRANCH   9  10
ATOM     10  C   LIG    1       29.195 -19.933   7.460  0.00  0.00    +0.028 C 
BRANCH  10  11
ATOM     11  C   LIG    1       30.267 -19.349   6.558  0.00  0.00    +0.156 C 
BRANCH  11  12
ATOM     12  O   LIG    1       31.544 -19.782   7.048  0.00  0.00    -0.395 OA
ATOM     13  H   LIG    1       31.412 -20.525   7.599  0.00  0.00    +0.209 HD
ENDBRANCH  11  12
ENDBRANCH  10  11
ENDBRANCH   9  10
ENDBRANCH   8   9
ENDBRANCH   7   8
ENDBRANCH   6   7
ENDBRANCH   5   6
ENDBRANCH   4   5
ENDBRANCH   3   4
ENDBRANCH   2   3
ENDBRANCH   1   2
BRANCH   1  14
ATOM     14  C   LIG    1       23.588 -24.305   6.576  0.00  0.00    -0.000 C 
BRANCH  14  15
ATOM     15  C   LIG    1       25.131 -24.318   6.398  0.00  0.00    -0.000 C 
BRANCH  15  16
ATOM     16  C   LIG    1       25.901 -25.607   6.022  0.00  0.00    -0.000 C 
BRANCH  16  17
ATOM     17  C   LIG    1       24.894 -26.667   5.448  0.00  0.00    -0.000 C 
BRANCH  17  18
ATOM     18  C   LIG    1       25.336 -28.145   5.486  0.00  0.00    -0.000 C 
BRANCH  18  19
ATOM     19  C   LIG    1       24.478 -29.134   6.342  0.00  0.00    -0.000 C 
BRANCH  19  20
ATOM     20  C   LIG    1       24.857 -29.481   7.819  0.00  0.00    -0.000 C 
BRANCH  20  21
ATOM     21  C   LIG    1       25.896 -28.549   8.494  0.00  0.00    -0.000 C 
BRANCH  21  22
ATOM     22  C   LIG    1       26.651 -29.114   9.730  0.00  0.00    -0.000 C 
BRANCH  22  24
ATOM     23  C   LIG    1       26.916 -27.497  11.813  0.00  0.00    +0.004 C 
ATOM     24  C   LIG    1       26.166 -28.640  11.132  0.00  0.00    -0.003 C 
ENDBRANCH  22  24
ENDBRANCH  21  22
ENDBRANCH  20  21
ENDBRANCH  19  20
ENDBRANCH  18  19
ENDBRANCH  17  18
ENDBRANCH  16  17
ENDBRANCH  15  16
ENDBRANCH  14  15
ENDBRANCH   1  14
TORSDOF 21
ENDMDL
