MODEL 1
REMARK VINA RESULT:      -6.4      0.000      0.000
REMARK  Name = *****
REMARK                            x       y       z     vdW  Elec       q    Type
REMARK                         _______ _______ _______ _____ _____    ______ ____
ROOT
ATOM      1  C   LIG    1       25.763 -28.904  10.826  0.00  0.00    +0.025 A 
ATOM      2  C   LIG    1       26.353 -27.948  11.612  0.00  0.00    +0.029 A 
ATOM      3  C   LIG    1       25.644 -27.423  12.702  0.00  0.00    +0.057 A 
ATOM      4  I   LIG    1       26.957 -25.805  13.602  0.00  0.00    -0.040 I 
ATOM      5  C   LIG    1       24.400 -28.004  13.141  0.00  0.00    +0.147 A 
ATOM      6  C   LIG    1       24.073 -29.224  12.540  0.00  0.00    +0.057 A 
ATOM      7  I   LIG    1       24.415 -31.173  13.815  0.00  0.00    -0.040 I 
ATOM      8  C   LIG    1       24.642 -29.585  11.309  0.00  0.00    +0.029 A 
ENDROOT
BRANCH   1   9
ATOM      9  C   LIG    1       26.298 -29.435   9.535  0.00  0.00    +0.197 C 
ATOM     10  O   LIG    1       27.341 -30.002   9.565  0.00  0.00    -0.286 OA
BRANCH   9  12
ATOM     11  C   LIG    1       24.693 -30.141   7.727  0.00  0.00    +0.117 A 
ATOM     12  C   LIG    1       25.574 -29.222   8.293  0.00  0.00    +0.071 A 
ATOM     13  C   LIG    1       25.560 -28.066   7.420  0.00  0.00    +0.031 A 
ATOM     14  C   LIG    1       24.583 -28.335   6.476  0.00  0.00    +0.136 A 
ATOM     15  C   LIG    1       24.206 -27.475   5.448  0.00  0.00    +0.047 A 
ATOM     16  C   LIG    1       24.952 -26.306   5.304  0.00  0.00    +0.004 A 
ATOM     17  C   LIG    1       25.968 -25.997   6.207  0.00  0.00    +0.001 A 
ATOM     18  C   LIG    1       26.231 -26.824   7.312  0.00  0.00    +0.012 A 
ATOM     19  O   LIG    1       24.049 -29.557   6.673  0.00  0.00    -0.459 OA
BRANCH  11  20
ATOM     20  C   LIG    1       24.250 -31.560   7.923  0.00  0.00    +0.075 C 
BRANCH  20  21
ATOM     21  C   LIG    1       24.754 -32.601   6.926  0.00  0.00    +0.007 C 
BRANCH  21  23
ATOM     22  C   LIG    1       25.967 -31.920   4.772  0.00  0.00    +0.004 C 
ATOM     23  C   LIG    1       26.087 -32.275   6.249  0.00  0.00    -0.003 C 
ENDBRANCH  21  23
ENDBRANCH  20  21
ENDBRANCH  11  20
ENDBRANCH   9  12
ENDBRANCH   1   9
BRANCH   5  24
ATOM     24  O   LIG    1       23.528 -27.359  14.009  0.00  0.00    -0.489 OA
BRANCH  24  25
ATOM     25  C   LIG    1       22.577 -26.362  13.530  0.00  0.00    +0.244 C 
BRANCH  25  26
ATOM     26  C   LIG    1       21.080 -26.874  13.349  0.00  0.00    +0.125 C 
BRANCH  26  27
ATOM     27  N   LIG    1       20.385 -27.752  14.332  0.00  0.00    -0.300 NA
BRANCH  27  28
ATOM     28  C   LIG    1       20.532 -29.198  14.050  0.00  0.00    +0.081 C 
ATOM     29  C   LIG    1       20.542 -29.650  12.583  0.00  0.00    +0.020 C 
ENDBRANCH  27  28
BRANCH  27  30
ATOM     30  C   LIG    1       18.949 -27.544  14.429  0.00  0.00    +0.081 C 
ATOM     31  C   LIG    1       18.554 -26.221  13.944  0.00  0.00    +0.020 C 
ENDBRANCH  27  30
ENDBRANCH  26  27
ENDBRANCH  25  26
ENDBRANCH  24  25
ENDBRANCH   5  24
TORSDOF 11
ENDMDL
MODEL 2
REMARK VINA RESULT:      -6.2      2.167      3.952
REMARK  Name = *****
REMARK                            x       y       z     vdW  Elec       q    Type
REMARK                         _______ _______ _______ _____ _____    ______ ____
ROOT
ATOM      1  C   LIG    1       24.124 -30.817  10.267  0.00  0.00    +0.025 A 
ATOM      2  C   LIG    1       24.511 -31.694  11.248  0.00  0.00    +0.029 A 
ATOM      3  C   LIG    1       23.928 -31.602  12.520  0.00  0.00    +0.057 A 
ATOM      4  I   LIG    1       24.969 -33.148  13.816  0.00  0.00    -0.040 I 
ATOM      5  C   LIG    1       22.791 -30.751  12.766  0.00  0.00    +0.147 A 
ATOM      6  C   LIG    1       22.205 -30.201  11.623  0.00  0.00    +0.057 A 
ATOM      7  I   LIG    1       20.199 -31.175  10.871  0.00  0.00    -0.040 I 
ATOM      8  C   LIG    1       22.936 -30.097  10.429  0.00  0.00    +0.029 A 
ENDROOT
BRANCH   1   9
ATOM      9  C   LIG    1       24.763 -30.659   8.925  0.00  0.00    +0.197 C 
ATOM     10  O   LIG    1       24.778 -31.607   8.210  0.00  0.00    -0.286 OA
BRANCH   9  12
ATOM     11  C   LIG    1       26.380 -28.759   9.264  0.00  0.00    +0.117 A 
ATOM     12  C   LIG    1       25.372 -29.397   8.543  0.00  0.00    +0.071 A 
ATOM     13  C   LIG    1       25.128 -28.568   7.380  0.00  0.00    +0.031 A 
ATOM     14  C   LIG    1       26.090 -27.573   7.433  0.00  0.00    +0.136 A 
ATOM     15  C   LIG    1       26.250 -26.563   6.488  0.00  0.00    +0.047 A 
ATOM     16  C   LIG    1       25.293 -26.497   5.476  0.00  0.00    +0.004 A 
ATOM     17  C   LIG    1       24.284 -27.454   5.389  0.00  0.00    +0.001 A 
ATOM     18  C   LIG    1       24.233 -28.536   6.283  0.00  0.00    +0.012 A 
ATOM     19  O   LIG    1       26.851 -27.701   8.539  0.00  0.00    -0.459 OA
BRANCH  11  20
ATOM     20  C   LIG    1       27.087 -28.881  10.580  0.00  0.00    +0.075 C 
BRANCH  20  21
ATOM     21  C   LIG    1       26.751 -27.857  11.661  0.00  0.00    +0.007 C 
BRANCH  21  23
ATOM     22  C   LIG    1       25.660 -28.608  13.857  0.00  0.00    +0.004 C 
ATOM     23  C   LIG    1       25.453 -28.113  12.431  0.00  0.00    -0.003 C 
ENDBRANCH  21  23
ENDBRANCH  20  21
ENDBRANCH  11  20
ENDBRANCH   9  12
ENDBRANCH   1   9
BRANCH   5  24
ATOM     24  O   LIG    1       22.368 -30.405  14.044  0.00  0.00    -0.489 OA
BRANCH  24  25
ATOM     25  C   LIG    1       20.959 -30.170  14.341  0.00  0.00    +0.244 C 
BRANCH  25  26
ATOM     26  C   LIG    1       20.594 -28.692  14.806  0.00  0.00    +0.125 C 
BRANCH  26  27
ATOM     27  N   LIG    1       19.862 -27.715  13.952  0.00  0.00    -0.300 NA
BRANCH  27  28
ATOM     28  C   LIG    1       20.717 -27.035  12.952  0.00  0.00    +0.081 C 
ATOM     29  C   LIG    1       22.156 -26.683  13.355  0.00  0.00    +0.020 C 
ENDBRANCH  27  28
BRANCH  27  30
ATOM     30  C   LIG    1       19.217 -26.631  14.676  0.00  0.00    +0.081 C 
ATOM     31  C   LIG    1       18.096 -26.063  13.928  0.00  0.00    +0.020 C 
ENDBRANCH  27  30
ENDBRANCH  26  27
ENDBRANCH  25  26
ENDBRANCH  24  25
ENDBRANCH   5  24
TORSDOF 11
ENDMDL
MODEL 3
REMARK VINA RESULT:      -6.2      2.799      7.776
REMARK  Name = *****
REMARK                            x       y       z     vdW  Elec       q    Type
REMARK                         _______ _______ _______ _____ _____    ______ ____
ROOT
ATOM      1  C   LIG    1       24.766 -29.421  11.622  0.00  0.00    +0.025 A 
ATOM      2  C   LIG    1       23.555 -30.046  11.471  0.00  0.00    +0.029 A 
ATOM      3  C   LIG    1       23.083 -30.325  10.180  0.00  0.00    +0.057 A 
ATOM      4  I   LIG    1       21.015 -31.226  10.433  0.00  0.00    -0.040 I 
ATOM      5  C   LIG    1       23.923 -30.162   9.021  0.00  0.00    +0.147 A 
ATOM      6  C   LIG    1       25.271 -29.910   9.298  0.00  0.00    +0.057 A 
ATOM      7  I   LIG    1       26.773 -31.704   9.041  0.00  0.00    -0.040 I 
ATOM      8  C   LIG    1       25.655 -29.392  10.544  0.00  0.00    +0.029 A 
ENDROOT
BRANCH   1   9
ATOM      9  C   LIG    1       25.330 -28.893  12.902  0.00  0.00    +0.197 C 
ATOM     10  O   LIG    1       26.079 -29.592  13.500  0.00  0.00    -0.286 OA
BRANCH   9  12
ATOM     11  C   LIG    1       23.615 -27.193  13.614  0.00  0.00    +0.117 A 
ATOM     12  C   LIG    1       24.934 -27.586  13.398  0.00  0.00    +0.071 A 
ATOM     13  C   LIG    1       25.756 -26.463  13.800  0.00  0.00    +0.031 A 
ATOM     14  C   LIG    1       24.874 -25.541  14.339  0.00  0.00    +0.136 A 
ATOM     15  C   LIG    1       25.237 -24.312  14.884  0.00  0.00    +0.047 A 
ATOM     16  C   LIG    1       26.578 -23.948  14.773  0.00  0.00    +0.004 A 
ATOM     17  C   LIG    1       27.506 -24.824  14.212  0.00  0.00    +0.001 A 
ATOM     18  C   LIG    1       27.128 -26.111  13.795  0.00  0.00    +0.012 A 
ATOM     19  O   LIG    1       23.604 -25.985  14.252  0.00  0.00    -0.459 OA
BRANCH  11  20
ATOM     20  C   LIG    1       22.224 -27.689  13.355  0.00  0.00    +0.075 C 
BRANCH  20  21
ATOM     21  C   LIG    1       21.115 -26.647  13.227  0.00  0.00    +0.007 C 
BRANCH  21  23
ATOM     22  C   LIG    1       18.660 -26.045  13.660  0.00  0.00    +0.004 C 
ATOM     23  C   LIG    1       19.838 -26.942  14.018  0.00  0.00    -0.003 C 
ENDBRANCH  21  23
ENDBRANCH  20  21
ENDBRANCH  11  20
ENDBRANCH   9  12
ENDBRANCH   1   9
BRANCH   5  24
ATOM     24  O   LIG    1       23.427 -30.143   7.723  0.00  0.00    -0.489 OA
BRANCH  24  25
ATOM     25  C   LIG    1       24.298 -29.889   6.580  0.00  0.00    +0.244 C 
BRANCH  25  26
ATOM     26  C   LIG    1       24.102 -28.478   5.869  0.00  0.00    +0.125 C 
BRANCH  26  27
ATOM     27  N   LIG    1       24.508 -27.182   6.483  0.00  0.00    -0.300 NA
BRANCH  27  28
ATOM     28  C   LIG    1       24.073 -25.994   5.713  0.00  0.00    +0.081 C 
ATOM     29  C   LIG    1       23.813 -24.692   6.483  0.00  0.00    +0.020 C 
ENDBRANCH  27  28
BRANCH  27  30
ATOM     30  C   LIG    1       25.942 -27.006   6.645  0.00  0.00    +0.081 C 
ATOM     31  C   LIG    1       26.646 -27.029   5.362  0.00  0.00    +0.020 C 
ENDBRANCH  27  30
ENDBRANCH  26  27
ENDBRANCH  25  26
ENDBRANCH  24  25
ENDBRANCH   5  24
TORSDOF 11
ENDMDL
MODEL 4
REMARK VINA RESULT:      -6.2      0.957      3.211
REMARK  Name = *****
REMARK                            x       y       z     vdW  Elec       q    Type
REMARK                         _______ _______ _______ _____ _____    ______ ____
ROOT
ATOM      1  C   LIG    1       25.957 -28.697  11.094  0.00  0.00    +0.025 A 
ATOM      2  C   LIG    1       26.496 -27.750  11.927  0.00  0.00    +0.029 A 
ATOM      3  C   LIG    1       25.691 -27.171  12.920  0.00  0.00    +0.057 A 
ATOM      4  I   LIG    1       26.965 -25.591  13.937  0.00  0.00    -0.040 I 
ATOM      5  C   LIG    1       24.382 -27.690  13.223  0.00  0.00    +0.147 A 
ATOM      6  C   LIG    1       24.071 -28.908  12.610  0.00  0.00    +0.057 A 
ATOM      7  I   LIG    1       24.179 -30.841  13.948  0.00  0.00    -0.040 I 
ATOM      8  C   LIG    1       24.759 -29.319  11.458  0.00  0.00    +0.029 A 
ENDROOT
BRANCH   1   9
ATOM      9  C   LIG    1       26.611 -29.278   9.882  0.00  0.00    +0.197 C 
ATOM     10  O   LIG    1       27.766 -29.538   9.954  0.00  0.00    -0.286 OA
BRANCH   9  12
ATOM     11  C   LIG    1       25.729 -28.519   7.648  0.00  0.00    +0.117 A 
ATOM     12  C   LIG    1       25.853 -29.472   8.658  0.00  0.00    +0.071 A 
ATOM     13  C   LIG    1       25.122 -30.636   8.199  0.00  0.00    +0.031 A 
ATOM     14  C   LIG    1       24.729 -30.333   6.906  0.00  0.00    +0.136 A 
ATOM     15  C   LIG    1       24.020 -31.187   6.065  0.00  0.00    +0.047 A 
ATOM     16  C   LIG    1       23.585 -32.391   6.617  0.00  0.00    +0.004 A 
ATOM     17  C   LIG    1       23.925 -32.736   7.924  0.00  0.00    +0.001 A 
ATOM     18  C   LIG    1       24.755 -31.909   8.699  0.00  0.00    +0.012 A 
ATOM     19  O   LIG    1       25.112 -29.085   6.569  0.00  0.00    -0.459 OA
BRANCH  11  20
ATOM     20  C   LIG    1       26.062 -27.080   7.398  0.00  0.00    +0.075 C 
BRANCH  20  21
ATOM     21  C   LIG    1       26.125 -26.611   5.945  0.00  0.00    +0.007 C 
BRANCH  21  23
ATOM     22  C   LIG    1       23.989 -25.221   6.233  0.00  0.00    +0.004 C 
ATOM     23  C   LIG    1       25.392 -25.302   5.643  0.00  0.00    -0.003 C 
ENDBRANCH  21  23
ENDBRANCH  20  21
ENDBRANCH  11  20
ENDBRANCH   9  12
ENDBRANCH   1   9
BRANCH   5  24
ATOM     24  O   LIG    1       23.446 -26.990  13.976  0.00  0.00    -0.489 OA
BRANCH  24  25
ATOM     25  C   LIG    1       22.363 -26.247  13.342  0.00  0.00    +0.244 C 
BRANCH  25  26
ATOM     26  C   LIG    1       20.976 -27.020  13.229  0.00  0.00    +0.125 C 
BRANCH  26  27
ATOM     27  N   LIG    1       20.354 -27.768  14.358  0.00  0.00    -0.300 NA
BRANCH  27  28
ATOM     28  C   LIG    1       20.130 -29.203  14.072  0.00  0.00    +0.081 C 
ATOM     29  C   LIG    1       20.467 -29.720  12.666  0.00  0.00    +0.020 C 
ENDBRANCH  27  28
BRANCH  27  30
ATOM     30  C   LIG    1       19.053 -27.273  14.777  0.00  0.00    +0.081 C 
ATOM     31  C   LIG    1       18.567 -26.205  13.903  0.00  0.00    +0.020 C 
ENDBRANCH  27  30
ENDBRANCH  26  27
ENDBRANCH  25  26
ENDBRANCH  24  25
ENDBRANCH   5  24
TORSDOF 11
ENDMDL
MODEL 5
REMARK VINA RESULT:      -6.2      0.886      1.680
REMARK  Name = *****
REMARK                            x       y       z     vdW  Elec       q    Type
REMARK                         _______ _______ _______ _____ _____    ______ ____
ROOT
ATOM      1  C   LIG    1       25.748 -29.013  10.892  0.00  0.00    +0.025 A 
ATOM      2  C   LIG    1       26.338 -28.074  11.699  0.00  0.00    +0.029 A 
ATOM      3  C   LIG    1       25.599 -27.509  12.749  0.00  0.00    +0.057 A 
ATOM      4  I   LIG    1       26.934 -25.939  13.701  0.00  0.00    -0.040 I 
ATOM      5  C   LIG    1       24.313 -28.035  13.131  0.00  0.00    +0.147 A 
ATOM      6  C   LIG    1       23.965 -29.245  12.524  0.00  0.00    +0.057 A 
ATOM      7  I   LIG    1       24.162 -31.194  13.829  0.00  0.00    -0.040 I 
ATOM      8  C   LIG    1       24.577 -29.642  11.325  0.00  0.00    +0.029 A 
ENDROOT
BRANCH   1   9
ATOM      9  C   LIG    1       26.323 -29.578   9.633  0.00  0.00    +0.197 C 
ATOM     10  O   LIG    1       27.395 -30.084   9.699  0.00  0.00    -0.286 OA
BRANCH   9  12
ATOM     11  C   LIG    1       24.802 -30.476   7.839  0.00  0.00    +0.117 A 
ATOM     12  C   LIG    1       25.599 -29.469   8.379  0.00  0.00    +0.071 A 
ATOM     13  C   LIG    1       25.501 -28.350   7.464  0.00  0.00    +0.031 A 
ATOM     14  C   LIG    1       24.561 -28.731   6.521  0.00  0.00    +0.136 A 
ATOM     15  C   LIG    1       24.128 -27.941   5.459  0.00  0.00    +0.047 A 
ATOM     16  C   LIG    1       24.778 -26.721   5.279  0.00  0.00    +0.004 A 
ATOM     17  C   LIG    1       25.755 -26.299   6.180  0.00  0.00    +0.001 A 
ATOM     18  C   LIG    1       26.071 -27.062   7.316  0.00  0.00    +0.012 A 
ATOM     19  O   LIG    1       24.126 -29.984   6.758  0.00  0.00    -0.459 OA
BRANCH  11  20
ATOM     20  C   LIG    1       24.473 -31.918   8.082  0.00  0.00    +0.075 C 
BRANCH  20  21
ATOM     21  C   LIG    1       23.834 -32.281   9.421  0.00  0.00    +0.007 C 
BRANCH  21  23
ATOM     22  C   LIG    1       21.620 -31.385  10.353  0.00  0.00    +0.004 C 
ATOM     23  C   LIG    1       22.307 -32.374   9.419  0.00  0.00    -0.003 C 
ENDBRANCH  21  23
ENDBRANCH  20  21
ENDBRANCH  11  20
ENDBRANCH   9  12
ENDBRANCH   1   9
BRANCH   5  24
ATOM     24  O   LIG    1       23.427 -27.345  13.950  0.00  0.00    -0.489 OA
BRANCH  24  25
ATOM     25  C   LIG    1       22.490 -26.368  13.405  0.00  0.00    +0.244 C 
BRANCH  25  26
ATOM     26  C   LIG    1       20.999 -26.888  13.203  0.00  0.00    +0.125 C 
BRANCH  26  27
ATOM     27  N   LIG    1       20.373 -27.946  14.045  0.00  0.00    -0.300 NA
BRANCH  27  28
ATOM     28  C   LIG    1       20.383 -29.289  13.421  0.00  0.00    +0.081 C 
ATOM     29  C   LIG    1       19.118 -30.150  13.544  0.00  0.00    +0.020 C 
ENDBRANCH  27  28
BRANCH  27  30
ATOM     30  C   LIG    1       18.979 -27.712  14.385  0.00  0.00    +0.081 C 
ATOM     31  C   LIG    1       18.571 -26.335  14.104  0.00  0.00    +0.020 C 
ENDBRANCH  27  30
ENDBRANCH  26  27
ENDBRANCH  25  26
ENDBRANCH  24  25
ENDBRANCH   5  24
TORSDOF 11
ENDMDL
MODEL 6
REMARK VINA RESULT:      -6.1      1.614      4.049
REMARK  Name = *****
REMARK                            x       y       z     vdW  Elec       q    Type
REMARK                         _______ _______ _______ _____ _____    ______ ____
ROOT
ATOM      1  C   LIG    1       25.079 -29.677  10.354  0.00  0.00    +0.025 A 
ATOM      2  C   LIG    1       25.546 -29.959  11.612  0.00  0.00    +0.029 A 
ATOM      3  C   LIG    1       24.630 -30.151  12.657  0.00  0.00    +0.057 A 
ATOM      4  I   LIG    1       25.859 -30.452  14.541  0.00  0.00    -0.040 I 
ATOM      5  C   LIG    1       23.215 -30.265  12.405  0.00  0.00    +0.147 A 
ATOM      6  C   LIG    1       22.861 -30.373  11.057  0.00  0.00    +0.057 A 
ATOM      7  I   LIG    1       22.277 -32.513  10.270  0.00  0.00    -0.040 I 
ATOM      8  C   LIG    1       23.736 -29.929  10.054  0.00  0.00    +0.029 A 
ENDROOT
BRANCH   1   9
ATOM      9  C   LIG    1       25.907 -29.271   9.178  0.00  0.00    +0.197 C 
ATOM     10  O   LIG    1       26.815 -28.531   9.376  0.00  0.00    -0.286 OA
BRANCH   9  12
ATOM     11  C   LIG    1       25.161 -28.919   6.799  0.00  0.00    +0.117 A 
ATOM     12  C   LIG    1       25.575 -29.742   7.844  0.00  0.00    +0.071 A 
ATOM     13  C   LIG    1       25.626 -31.083   7.300  0.00  0.00    +0.031 A 
ATOM     14  C   LIG    1       25.362 -30.938   5.948  0.00  0.00    +0.136 A 
ATOM     15  C   LIG    1       25.339 -31.977   5.021  0.00  0.00    +0.047 A 
ATOM     16  C   LIG    1       25.487 -33.269   5.525  0.00  0.00    +0.004 A 
ATOM     17  C   LIG    1       25.725 -33.478   6.882  0.00  0.00    +0.001 A 
ATOM     18  C   LIG    1       25.875 -32.397   7.766  0.00  0.00    +0.012 A 
ATOM     19  O   LIG    1       25.111 -29.649   5.645  0.00  0.00    -0.459 OA
BRANCH  11  20
ATOM     20  C   LIG    1       24.756 -27.495   6.565  0.00  0.00    +0.075 C 
BRANCH  20  21
ATOM     21  C   LIG    1       25.823 -26.417   6.751  0.00  0.00    +0.007 C 
BRANCH  21  23
ATOM     22  C   LIG    1       23.876 -24.779   6.434  0.00  0.00    +0.004 C 
ATOM     23  C   LIG    1       25.385 -24.991   6.411  0.00  0.00    -0.003 C 
ENDBRANCH  21  23
ENDBRANCH  20  21
ENDBRANCH  11  20
ENDBRANCH   9  12
ENDBRANCH   1   9
BRANCH   5  24
ATOM     24  O   LIG    1       22.258 -30.163  13.408  0.00  0.00    -0.489 OA
BRANCH  24  25
ATOM     25  C   LIG    1       20.832 -30.186  13.102  0.00  0.00    +0.244 C 
BRANCH  25  26
ATOM     26  C   LIG    1       20.007 -28.914  13.588  0.00  0.00    +0.125 C 
BRANCH  26  27
ATOM     27  N   LIG    1       20.640 -27.671  14.112  0.00  0.00    -0.300 NA
BRANCH  27  28
ATOM     28  C   LIG    1       19.703 -26.784  14.839  0.00  0.00    +0.081 C 
ATOM     29  C   LIG    1       18.497 -26.225  14.071  0.00  0.00    +0.020 C 
ENDBRANCH  27  28
BRANCH  27  30
ATOM     30  C   LIG    1       21.240 -26.817  13.100  0.00  0.00    +0.081 C 
ATOM     31  C   LIG    1       22.679 -26.650  13.309  0.00  0.00    +0.020 C 
ENDBRANCH  27  30
ENDBRANCH  26  27
ENDBRANCH  25  26
ENDBRANCH  24  25
ENDBRANCH   5  24
TORSDOF 11
ENDMDL
MODEL 7
REMARK VINA RESULT:      -6.1      1.194      1.517
REMARK  Name = *****
REMARK                            x       y       z     vdW  Elec       q    Type
REMARK                         _______ _______ _______ _____ _____    ______ ____
ROOT
ATOM      1  C   LIG    1       25.021 -29.720  10.201  0.00  0.00    +0.025 A 
ATOM      2  C   LIG    1       25.643 -29.105  11.257  0.00  0.00    +0.029 A 
ATOM      3  C   LIG    1       24.872 -28.662  12.343  0.00  0.00    +0.057 A 
ATOM      4  I   LIG    1       26.302 -27.605  13.755  0.00  0.00    -0.040 I 
ATOM      5  C   LIG    1       23.483 -29.020  12.474  0.00  0.00    +0.147 A 
ATOM      6  C   LIG    1       23.032 -29.984  11.568  0.00  0.00    +0.057 A 
ATOM      7  I   LIG    1       22.760 -32.176  12.382  0.00  0.00    -0.040 I 
ATOM      8  C   LIG    1       23.722 -30.210  10.367  0.00  0.00    +0.029 A 
ENDROOT
BRANCH   1   9
ATOM      9  C   LIG    1       25.656 -30.088   8.898  0.00  0.00    +0.197 C 
ATOM     10  O   LIG    1       26.602 -30.804   8.932  0.00  0.00    -0.286 OA
BRANCH   9  12
ATOM     11  C   LIG    1       24.322 -30.244   6.768  0.00  0.00    +0.117 A 
ATOM     12  C   LIG    1       25.145 -29.546   7.651  0.00  0.00    +0.071 A 
ATOM     13  C   LIG    1       25.320 -28.228   7.076  0.00  0.00    +0.031 A 
ATOM     14  C   LIG    1       24.491 -28.201   5.967  0.00  0.00    +0.136 A 
ATOM     15  C   LIG    1       24.318 -27.107   5.124  0.00  0.00    +0.047 A 
ATOM     16  C   LIG    1       25.129 -25.999   5.362  0.00  0.00    +0.004 A 
ATOM     17  C   LIG    1       26.005 -25.981   6.446  0.00  0.00    +0.001 A 
ATOM     18  C   LIG    1       26.055 -27.050   7.355  0.00  0.00    +0.012 A 
ATOM     19  O   LIG    1       23.878 -29.390   5.798  0.00  0.00    -0.459 OA
BRANCH  11  20
ATOM     20  C   LIG    1       23.791 -31.630   6.565  0.00  0.00    +0.075 C 
BRANCH  20  21
ATOM     21  C   LIG    1       24.793 -32.782   6.592  0.00  0.00    +0.007 C 
BRANCH  21  23
ATOM     22  C   LIG    1       27.332 -32.770   6.230  0.00  0.00    +0.004 C 
ATOM     23  C   LIG    1       25.950 -32.673   5.595  0.00  0.00    -0.003 C 
ENDBRANCH  21  23
ENDBRANCH  20  21
ENDBRANCH  11  20
ENDBRANCH   9  12
ENDBRANCH   1   9
BRANCH   5  24
ATOM     24  O   LIG    1       22.617 -28.381  13.354  0.00  0.00    -0.489 OA
BRANCH  24  25
ATOM     25  C   LIG    1       21.248 -28.055  12.971  0.00  0.00    +0.244 C 
BRANCH  25  26
ATOM     26  C   LIG    1       20.109 -28.769  13.825  0.00  0.00    +0.125 C 
BRANCH  26  27
ATOM     27  N   LIG    1       19.262 -28.061  14.826  0.00  0.00    -0.300 NA
BRANCH  27  28
ATOM     28  C   LIG    1       17.821 -28.388  14.728  0.00  0.00    +0.081 C 
ATOM     29  C   LIG    1       17.424 -29.685  14.008  0.00  0.00    +0.020 C 
ENDBRANCH  27  28
BRANCH  27  30
ATOM     30  C   LIG    1       19.311 -26.610  14.751  0.00  0.00    +0.081 C 
ATOM     31  C   LIG    1       18.268 -26.071  13.878  0.00  0.00    +0.020 C 
ENDBRANCH  27  30
ENDBRANCH  26  27
ENDBRANCH  25  26
ENDBRANCH  24  25
ENDBRANCH   5  24
TORSDOF 11
ENDMDL
MODEL 8
REMARK VINA RESULT:      -5.9      8.158     11.214
REMARK  Name = *****
REMARK                            x       y       z     vdW  Elec       q    Type
REMARK                         _______ _______ _______ _____ _____    ______ ____
ROOT
ATOM      1  C   LIG    1       27.303 -21.071   7.759  0.00  0.00    +0.025 A 
ATOM      2  C   LIG    1       27.546 -20.319   6.638  0.00  0.00    +0.029 A 
ATOM      3  C   LIG    1       28.557 -19.347   6.670  0.00  0.00    +0.057 A 
ATOM      4  I   LIG    1       28.493 -18.289   4.663  0.00  0.00    -0.040 I 
ATOM      5  C   LIG    1       29.481 -19.260   7.772  0.00  0.00    +0.147 A 
ATOM      6  C   LIG    1       29.421 -20.320   8.681  0.00  0.00    +0.057 A 
ATOM      7  I   LIG    1       31.113 -21.950   8.543  0.00  0.00    -0.040 I 
ATOM      8  C   LIG    1       28.267 -21.114   8.772  0.00  0.00    +0.029 A 
ENDROOT
BRANCH   1   9
ATOM      9  C   LIG    1       26.159 -22.014   7.956  0.00  0.00    +0.197 C 
ATOM     10  O   LIG    1       25.751 -22.156   9.061  0.00  0.00    -0.286 OA
BRANCH   9  12
ATOM     11  C   LIG    1       24.940 -22.161   5.758  0.00  0.00    +0.117 A 
ATOM     12  C   LIG    1       25.608 -22.748   6.831  0.00  0.00    +0.071 A 
ATOM     13  C   LIG    1       25.648 -24.168   6.547  0.00  0.00    +0.031 A 
ATOM     14  C   LIG    1       25.116 -24.301   5.275  0.00  0.00    +0.136 A 
ATOM     15  C   LIG    1       24.987 -25.502   4.582  0.00  0.00    +0.047 A 
ATOM     16  C   LIG    1       25.323 -26.663   5.276  0.00  0.00    +0.004 A 
ATOM     17  C   LIG    1       25.836 -26.594   6.570  0.00  0.00    +0.001 A 
ATOM     18  C   LIG    1       26.077 -25.356   7.188  0.00  0.00    +0.012 A 
ATOM     19  O   LIG    1       24.718 -23.105   4.795  0.00  0.00    -0.459 OA
BRANCH  11  20
ATOM     20  C   LIG    1       24.396 -20.825   5.352  0.00  0.00    +0.075 C 
BRANCH  20  21
ATOM     21  C   LIG    1       22.943 -20.516   5.706  0.00  0.00    +0.007 C 
BRANCH  21  23
ATOM     22  C   LIG    1       23.125 -18.631   3.977  0.00  0.00    +0.004 C 
ATOM     23  C   LIG    1       22.418 -19.164   5.217  0.00  0.00    -0.003 C 
ENDBRANCH  21  23
ENDBRANCH  20  21
ENDBRANCH  11  20
ENDBRANCH   9  12
ENDBRANCH   1   9
BRANCH   5  24
ATOM     24  O   LIG    1       30.297 -18.156   7.990  0.00  0.00    -0.489 OA
BRANCH  24  25
ATOM     25  C   LIG    1       31.708 -18.308   8.328  0.00  0.00    +0.244 C 
BRANCH  25  26
ATOM     26  C   LIG    1       32.346 -17.111   9.162  0.00  0.00    +0.125 C 
BRANCH  26  27
ATOM     27  N   LIG    1       32.627 -17.182  10.624  0.00  0.00    -0.300 NA
BRANCH  27  28
ATOM     28  C   LIG    1       31.484 -17.668  11.429  0.00  0.00    +0.081 C 
ATOM     29  C   LIG    1       30.075 -17.204  11.036  0.00  0.00    +0.020 C 
ENDBRANCH  27  28
BRANCH  27  30
ATOM     30  C   LIG    1       32.994 -15.916  11.238  0.00  0.00    +0.081 C 
ATOM     31  C   LIG    1       33.024 -16.005  12.698  0.00  0.00    +0.020 C 
ENDBRANCH  27  30
ENDBRANCH  26  27
ENDBRANCH  25  26
ENDBRANCH  24  25
ENDBRANCH   5  24
TORSDOF 11
ENDMDL
MODEL 9
REMARK VINA RESULT:      -5.8      1.334      2.350
REMARK  Name = *****
REMARK                            x       y       z     vdW  Elec       q    Type
REMARK                         _______ _______ _______ _____ _____    ______ ____
ROOT
ATOM      1  C   LIG    1       25.248 -29.620  10.673  0.00  0.00    +0.025 A 
ATOM      2  C   LIG    1       23.899 -29.845  10.770  0.00  0.00    +0.029 A 
ATOM      3  C   LIG    1       23.323 -30.025  12.036  0.00  0.00    +0.057 A 
ATOM      4  I   LIG    1       21.130 -30.492  11.683  0.00  0.00    -0.040 I 
ATOM      5  C   LIG    1       24.069 -29.777  13.244  0.00  0.00    +0.147 A 
ATOM      6  C   LIG    1       25.310 -29.160  13.057  0.00  0.00    +0.057 A 
ATOM      7  I   LIG    1       25.451 -26.863  13.546  0.00  0.00    -0.040 I 
ATOM      8  C   LIG    1       25.956 -29.227  11.813  0.00  0.00    +0.029 A 
ENDROOT
BRANCH   1   9
ATOM      9  C   LIG    1       26.046 -29.586   9.409  0.00  0.00    +0.197 C 
ATOM     10  O   LIG    1       27.212 -29.795   9.491  0.00  0.00    -0.286 OA
BRANCH   9  12
ATOM     11  C   LIG    1       24.548 -30.125   7.458  0.00  0.00    +0.117 A 
ATOM     12  C   LIG    1       25.408 -29.269   8.143  0.00  0.00    +0.071 A 
ATOM     13  C   LIG    1       25.473 -28.055   7.355  0.00  0.00    +0.031 A 
ATOM     14  C   LIG    1       24.554 -28.234   6.335  0.00  0.00    +0.136 A 
ATOM     15  C   LIG    1       24.261 -27.295   5.349  0.00  0.00    +0.047 A 
ATOM     16  C   LIG    1       25.037 -26.137   5.336  0.00  0.00    +0.004 A 
ATOM     17  C   LIG    1       25.998 -25.916   6.322  0.00  0.00    +0.001 A 
ATOM     18  C   LIG    1       26.173 -26.825   7.379  0.00  0.00    +0.012 A 
ATOM     19  O   LIG    1       23.985 -29.454   6.410  0.00  0.00    -0.459 OA
BRANCH  11  20
ATOM     20  C   LIG    1       24.066 -31.543   7.524  0.00  0.00    +0.075 C 
BRANCH  20  21
ATOM     21  C   LIG    1       24.933 -32.615   6.865  0.00  0.00    +0.007 C 
BRANCH  21  23
ATOM     22  C   LIG    1       25.932 -31.962   4.596  0.00  0.00    +0.004 C 
ATOM     23  C   LIG    1       26.151 -32.098   6.097  0.00  0.00    -0.003 C 
ENDBRANCH  21  23
ENDBRANCH  20  21
ENDBRANCH  11  20
ENDBRANCH   9  12
ENDBRANCH   1   9
BRANCH   5  24
ATOM     24  O   LIG    1       23.650 -30.212  14.495  0.00  0.00    -0.489 OA
BRANCH  24  25
ATOM     25  C   LIG    1       23.045 -29.295  15.456  0.00  0.00    +0.244 C 
BRANCH  25  26
ATOM     26  C   LIG    1       21.489 -29.023  15.258  0.00  0.00    +0.125 C 
BRANCH  26  27
ATOM     27  N   LIG    1       20.873 -27.669  15.328  0.00  0.00    -0.300 NA
BRANCH  27  28
ATOM     28  C   LIG    1       19.504 -27.605  14.767  0.00  0.00    +0.081 C 
ATOM     29  C   LIG    1       18.737 -28.922  14.586  0.00  0.00    +0.020 C 
ENDBRANCH  27  28
BRANCH  27  30
ATOM     30  C   LIG    1       21.604 -26.627  14.624  0.00  0.00    +0.081 C 
ATOM     31  C   LIG    1       21.506 -26.776  13.172  0.00  0.00    +0.020 C 
ENDBRANCH  27  30
ENDBRANCH  26  27
ENDBRANCH  25  26
ENDBRANCH  24  25
ENDBRANCH   5  24
TORSDOF 11
ENDMDL
