MODEL 1
REMARK VINA RESULT:      -2.6      0.000      0.000
REMARK  Name = *****
REMARK                            x       y       z     vdW  Elec       q    Type
REMARK                         _______ _______ _______ _____ _____    ______ ____
ROOT
ATOM      1  N   LIG    1       25.297 -15.911   3.494  0.00  0.00    -0.299 N 
ATOM      2  C   LIG    1       24.433 -16.999   3.778  0.00  0.00    +0.038 A 
ATOM      3  C   LIG    1       23.172 -16.894   4.398  0.00  0.00    -0.026 A 
ATOM      4  C   LIG    1       22.402 -18.065   4.614  0.00  0.00    +0.007 A 
ATOM      5  C   LIG    1       22.849 -19.318   4.205  0.00  0.00    +0.020 A 
ATOM      6  C   LIG    1       24.059 -19.418   3.549  0.00  0.00    +0.043 A 
ATOM      7 CL   LIG    1       24.598 -20.946   2.969  0.00  0.00    -0.084 Cl
ATOM      8  C   LIG    1       22.508 -15.601   4.825  0.00  0.00    +0.041 C 
ATOM      9  C   LIG    1       23.421 -14.461   5.248  0.00  0.00    +0.041 C 
ATOM     10  C   LIG    1       24.081 -13.827   4.056  0.00  0.00    -0.026 A 
ATOM     11  C   LIG    1       23.828 -12.474   3.763  0.00  0.00    +0.005 A 
ATOM     12  C   LIG    1       24.402 -11.865   2.648  0.00  0.00    +0.000 A 
ATOM     13  C   LIG    1       25.232 -12.599   1.813  0.00  0.00    +0.002 A 
ATOM     14  C   LIG    1       25.505 -13.934   2.111  0.00  0.00    +0.024 A 
ATOM     15  C   LIG    1       24.841 -18.280   3.338  0.00  0.00    +0.043 A 
ATOM     16  C   LIG    1       24.945 -14.564   3.238  0.00  0.00    +0.037 A 
ENDROOT
BRANCH   1  17
ATOM     17  C   LIG    1       26.683 -16.031   4.039  0.00  0.00    +0.112 C 
BRANCH  17  18
ATOM     18  C   LIG    1       27.539 -14.798   3.707  0.00  0.00    +0.035 C 
BRANCH  18  19
ATOM     19  C   LIG    1       27.535 -13.759   4.836  0.00  0.00    +0.085 C 
BRANCH  19  21
ATOM     20  C   LIG    1       29.022 -11.976   5.610  0.00  0.00    +0.104 C 
ATOM     21  N   LIG    1       28.257 -12.519   4.486  0.00  0.00    -0.308 NA
ATOM     22  C   LIG    1       29.154 -12.761   3.351  0.00  0.00    +0.104 C 
ENDBRANCH  19  21
ENDBRANCH  18  19
ENDBRANCH  17  18
ENDBRANCH   1  17
TORSDOF 4
ENDMDL
MODEL 2
REMARK VINA RESULT:      -1.1      2.678      5.690
REMARK  Name = *****
REMARK                            x       y       z     vdW  Elec       q    Type
REMARK                         _______ _______ _______ _____ _____    ______ ____
ROOT
ATOM      1  N   LIG    1       25.641 -17.897   4.008  0.00  0.00    -0.299 N 
ATOM      2  C   LIG    1       26.879 -18.265   4.592  0.00  0.00    +0.038 A 
ATOM      3  C   LIG    1       28.008 -17.428   4.696  0.00  0.00    -0.026 A 
ATOM      4  C   LIG    1       29.184 -17.919   5.316  0.00  0.00    +0.007 A 
ATOM      5  C   LIG    1       29.247 -19.202   5.851  0.00  0.00    +0.020 A 
ATOM      6  C   LIG    1       28.125 -20.006   5.800  0.00  0.00    +0.043 A 
ATOM      7 CL   LIG    1       28.155 -21.569   6.521  0.00  0.00    -0.084 Cl
ATOM      8  C   LIG    1       28.076 -15.985   4.240  0.00  0.00    +0.041 C 
ATOM      9  C   LIG    1       27.212 -15.592   3.053  0.00  0.00    +0.041 C 
ATOM     10  C   LIG    1       25.766 -15.487   3.447  0.00  0.00    -0.026 A 
ATOM     11  C   LIG    1       25.107 -14.249   3.337  0.00  0.00    +0.005 A 
ATOM     12  C   LIG    1       23.774 -14.112   3.724  0.00  0.00    +0.000 A 
ATOM     13  C   LIG    1       23.086 -15.208   4.225  0.00  0.00    +0.002 A 
ATOM     14  C   LIG    1       23.728 -16.444   4.316  0.00  0.00    +0.024 A 
ATOM     15  C   LIG    1       26.960 -19.548   5.182  0.00  0.00    +0.043 A 
ATOM     16  C   LIG    1       25.069 -16.605   3.920  0.00  0.00    +0.037 A 
ENDROOT
BRANCH   1  17
ATOM     17  C   LIG    1       25.147 -18.799   2.924  0.00  0.00    +0.112 C 
BRANCH  17  18
ATOM     18  C   LIG    1       23.846 -19.515   3.320  0.00  0.00    +0.035 C 
BRANCH  18  19
ATOM     19  C   LIG    1       24.098 -20.915   3.894  0.00  0.00    +0.085 C 
BRANCH  19  21
ATOM     20  C   LIG    1       24.307 -21.571   6.243  0.00  0.00    +0.104 C 
ATOM     21  N   LIG    1       23.399 -21.152   5.174  0.00  0.00    -0.308 NA
ATOM     22  C   LIG    1       22.676 -19.943   5.586  0.00  0.00    +0.104 C 
ENDBRANCH  19  21
ENDBRANCH  18  19
ENDBRANCH  17  18
ENDBRANCH   1  17
TORSDOF 4
ENDMDL
MODEL 3
REMARK VINA RESULT:      -0.8      3.018      6.014
REMARK  Name = *****
REMARK                            x       y       z     vdW  Elec       q    Type
REMARK                         _______ _______ _______ _____ _____    ______ ____
ROOT
ATOM      1  N   LIG    1       24.778 -18.518   4.221  0.00  0.00    -0.299 N 
ATOM      2  C   LIG    1       24.481 -17.137   4.094  0.00  0.00    +0.038 A 
ATOM      3  C   LIG    1       23.188 -16.579   4.131  0.00  0.00    -0.026 A 
ATOM      4  C   LIG    1       23.031 -15.176   4.002  0.00  0.00    +0.007 A 
ATOM      5  C   LIG    1       24.126 -14.328   3.865  0.00  0.00    +0.020 A 
ATOM      6  C   LIG    1       25.398 -14.866   3.883  0.00  0.00    +0.043 A 
ATOM      7 CL   LIG    1       26.770 -13.830   3.789  0.00  0.00    -0.084 Cl
ATOM      8  C   LIG    1       21.904 -17.351   4.355  0.00  0.00    +0.041 C 
ATOM      9  C   LIG    1       21.864 -18.788   3.860  0.00  0.00    +0.041 C 
ATOM     10  C   LIG    1       22.663 -19.690   4.757  0.00  0.00    -0.026 A 
ATOM     11  C   LIG    1       22.016 -20.735   5.442  0.00  0.00    +0.005 A 
ATOM     12  C   LIG    1       22.724 -21.571   6.305  0.00  0.00    +0.000 A 
ATOM     13  C   LIG    1       24.084 -21.373   6.494  0.00  0.00    +0.002 A 
ATOM     14  C   LIG    1       24.737 -20.353   5.800  0.00  0.00    +0.024 A 
ATOM     15  C   LIG    1       25.576 -16.246   3.995  0.00  0.00    +0.043 A 
ATOM     16  C   LIG    1       24.042 -19.506   4.916  0.00  0.00    +0.037 A 
ENDROOT
BRANCH   1  17
ATOM     17  C   LIG    1       25.594 -19.105   3.116  0.00  0.00    +0.112 C 
BRANCH  17  18
ATOM     18  C   LIG    1       26.885 -19.755   3.638  0.00  0.00    +0.035 C 
BRANCH  18  19
ATOM     19  C   LIG    1       27.557 -18.925   4.740  0.00  0.00    +0.085 C 
BRANCH  19  21
ATOM     20  C   LIG    1       29.467 -18.830   6.267  0.00  0.00    +0.104 C 
ATOM     21  N   LIG    1       28.548 -19.692   5.521  0.00  0.00    -0.308 NA
ATOM     22  C   LIG    1       27.866 -20.604   6.446  0.00  0.00    +0.104 C 
ENDBRANCH  19  21
ENDBRANCH  18  19
ENDBRANCH  17  18
ENDBRANCH   1  17
TORSDOF 4
ENDMDL
MODEL 4
REMARK VINA RESULT:      -0.7      1.814      2.825
REMARK  Name = *****
REMARK                            x       y       z     vdW  Elec       q    Type
REMARK                         _______ _______ _______ _____ _____    ______ ____
ROOT
ATOM      1  N   LIG    1       25.414 -15.911   3.480  0.00  0.00    -0.299 N 
ATOM      2  C   LIG    1       24.539 -16.991   3.757  0.00  0.00    +0.038 A 
ATOM      3  C   LIG    1       23.277 -16.875   4.374  0.00  0.00    -0.026 A 
ATOM      4  C   LIG    1       22.495 -18.039   4.583  0.00  0.00    +0.007 A 
ATOM      5  C   LIG    1       22.929 -19.295   4.170  0.00  0.00    +0.020 A 
ATOM      6  C   LIG    1       24.140 -19.405   3.517  0.00  0.00    +0.043 A 
ATOM      7 CL   LIG    1       24.664 -20.937   2.931  0.00  0.00    -0.084 Cl
ATOM      8  C   LIG    1       22.626 -15.578   4.805  0.00  0.00    +0.041 C 
ATOM      9  C   LIG    1       23.549 -14.449   5.235  0.00  0.00    +0.041 C 
ATOM     10  C   LIG    1       24.218 -13.816   4.047  0.00  0.00    -0.026 A 
ATOM     11  C   LIG    1       23.981 -12.460   3.759  0.00  0.00    +0.005 A 
ATOM     12  C   LIG    1       24.563 -11.852   2.648  0.00  0.00    +0.000 A 
ATOM     13  C   LIG    1       25.388 -12.591   1.812  0.00  0.00    +0.002 A 
ATOM     14  C   LIG    1       25.646 -13.931   2.105  0.00  0.00    +0.024 A 
ATOM     15  C   LIG    1       24.934 -18.275   3.312  0.00  0.00    +0.043 A 
ATOM     16  C   LIG    1       25.076 -14.560   3.228  0.00  0.00    +0.037 A 
ENDROOT
BRANCH   1  17
ATOM     17  C   LIG    1       26.797 -16.047   4.027  0.00  0.00    +0.112 C 
BRANCH  17  18
ATOM     18  C   LIG    1       27.266 -17.511   4.046  0.00  0.00    +0.035 C 
BRANCH  18  19
ATOM     19  C   LIG    1       28.584 -17.696   4.809  0.00  0.00    +0.085 C 
BRANCH  19  21
ATOM     20  C   LIG    1       29.475 -19.073   6.625  0.00  0.00    +0.104 C 
ATOM     21  N   LIG    1       28.753 -19.059   5.352  0.00  0.00    -0.308 NA
ATOM     22  C   LIG    1       27.446 -19.703   5.518  0.00  0.00    +0.104 C 
ENDBRANCH  19  21
ENDBRANCH  18  19
ENDBRANCH  17  18
ENDBRANCH   1  17
TORSDOF 4
ENDMDL
