MODEL 1
REMARK VINA RESULT:       6.0      0.000      0.000
REMARK  Name = *****
REMARK                            x       y       z     vdW  Elec       q    Type
REMARK                         _______ _______ _______ _____ _____    ______ ____
ROOT
ATOM      1  C   LIG    1       26.036 -20.544   7.062  0.00  0.00    +0.011 C 
ATOM      2  C   LIG    1       25.533 -20.299   5.842  0.00  0.00    -0.037 C 
ATOM      3  C   LIG    1       24.097 -19.947   5.527  0.00  0.00    +0.152 C 
ATOM      4  C   LIG    1       24.119 -19.507   4.018  0.00  0.00    +0.013 C 
ATOM      5  C   LIG    1       25.606 -19.126   3.764  0.00  0.00    +0.009 C 
ATOM      6  C   LIG    1       26.010 -17.665   4.125  0.00  0.00    +0.034 C 
ATOM      7  C   LIG    1       25.017 -16.604   3.587  0.00  0.00    +0.153 C 
ATOM      8  C   LIG    1       23.591 -16.951   4.092  0.00  0.00    +0.154 C 
ATOM      9  F   LIG    1       24.982 -16.776   2.215  0.00  0.00    -0.238 F 
ATOM     10  C   LIG    1       25.492 -15.097   3.850  0.00  0.00    +0.044 C 
ATOM     11  C   LIG    1       27.012 -14.896   3.580  0.00  0.00    -0.053 C 
ATOM     12  C   LIG    1       27.551 -13.671   3.797  0.00  0.00    +0.051 C 
ATOM     13  C   LIG    1       27.291 -13.203   5.210  0.00  0.00    +0.179 C 
ATOM     14  C   LIG    1       26.094 -13.756   5.908  0.00  0.00    +0.047 C 
ATOM     15  O   LIG    1       27.996 -12.347   5.734  0.00  0.00    -0.288 OA
ATOM     16  C   LIG    1       27.922 -16.038   3.978  0.00  0.00    +0.032 C 
ATOM     17  C   LIG    1       24.703 -14.141   2.908  0.00  0.00    +0.023 C 
ATOM     18  C   LIG    1       25.257 -14.605   5.283  0.00  0.00    -0.009 C 
ATOM     19  C   LIG    1       27.403 -17.387   3.533  0.00  0.00    +0.011 C 
ATOM     20  C   LIG    1       23.751 -20.676   3.060  0.00  0.00    +0.015 C 
ATOM     21  C   LIG    1       23.155 -18.357   3.676  0.00  0.00    +0.045 C 
ATOM     22  C   LIG    1       26.376 -20.162   4.608  0.00  0.00    +0.038 C 
ENDROOT
BRANCH   3  23
ATOM     23  O   LIG    1       23.767 -18.837   6.365  0.00  0.00    -0.376 OA
ATOM     24  H   LIG    1       24.493 -18.766   7.020  0.00  0.00    +0.211 HD
ENDBRANCH   3  23
BRANCH   3  25
ATOM     25  C   LIG    1       23.085 -21.077   5.835  0.00  0.00    +0.194 C 
ATOM     26  O   LIG    1       23.035 -21.572   6.971  0.00  0.00    -0.291 OA
BRANCH  25  27
ATOM     27  C   LIG    1       22.140 -21.564   4.744  0.00  0.00    +0.233 C 
BRANCH  27  28
ATOM     28  O   LIG    1       20.900 -20.875   4.819  0.00  0.00    -0.387 OA
ATOM     29  H   LIG    1       20.636 -20.882   5.759  0.00  0.00    +0.210 HD
ENDBRANCH  27  28
ENDBRANCH  25  27
ENDBRANCH   3  25
BRANCH   8  30
ATOM     30  O   LIG    1       22.593 -16.063   3.584  0.00  0.00    -0.389 OA
ATOM     31  H   LIG    1       21.915 -16.613   3.148  0.00  0.00    +0.210 HD
ENDBRANCH   8  30
TORSDOF 5
ENDMDL
MODEL 2
REMARK VINA RESULT:       6.7      1.164      1.346
REMARK  Name = *****
REMARK                            x       y       z     vdW  Elec       q    Type
REMARK                         _______ _______ _______ _____ _____    ______ ____
ROOT
ATOM      1  C   LIG    1       26.144 -20.507   5.299  0.00  0.00    +0.011 C 
ATOM      2  C   LIG    1       25.151 -19.894   4.637  0.00  0.00    -0.037 C 
ATOM      3  C   LIG    1       23.826 -19.461   5.222  0.00  0.00    +0.152 C 
ATOM      4  C   LIG    1       23.170 -18.573   4.104  0.00  0.00    +0.013 C 
ATOM      5  C   LIG    1       24.376 -18.132   3.225  0.00  0.00    +0.009 C 
ATOM      6  C   LIG    1       25.137 -16.856   3.696  0.00  0.00    +0.034 C 
ATOM      7  C   LIG    1       24.197 -15.680   4.059  0.00  0.00    +0.153 C 
ATOM      8  C   LIG    1       23.173 -16.167   5.119  0.00  0.00    +0.154 C 
ATOM      9  F   LIG    1       23.460 -15.415   2.919  0.00  0.00    -0.238 F 
ATOM     10  C   LIG    1       24.976 -14.331   4.426  0.00  0.00    +0.044 C 
ATOM     11  C   LIG    1       26.174 -14.056   3.469  0.00  0.00    -0.053 C 
ATOM     12  C   LIG    1       26.940 -12.960   3.690  0.00  0.00    +0.051 C 
ATOM     13  C   LIG    1       27.493 -12.955   5.096  0.00  0.00    +0.179 C 
ATOM     14  C   LIG    1       26.727 -13.698   6.138  0.00  0.00    +0.047 C 
ATOM     15  O   LIG    1       28.494 -12.306   5.381  0.00  0.00    -0.288 OA
ATOM     16  C   LIG    1       26.961 -15.265   3.014  0.00  0.00    +0.032 C 
ATOM     17  C   LIG    1       23.993 -13.128   4.327  0.00  0.00    +0.023 C 
ATOM     18  C   LIG    1       25.566 -14.309   5.841  0.00  0.00    -0.009 C 
ATOM     19  C   LIG    1       26.079 -16.409   2.564  0.00  0.00    +0.011 C 
ATOM     20  C   LIG    1       22.192 -19.384   3.207  0.00  0.00    +0.015 C 
ATOM     21  C   LIG    1       22.365 -17.373   4.635  0.00  0.00    +0.045 C 
ATOM     22  C   LIG    1       25.283 -19.380   3.233  0.00  0.00    +0.038 C 
ENDROOT
BRANCH   3  23
ATOM     23  O   LIG    1       24.140 -18.667   6.370  0.00  0.00    -0.376 OA
ATOM     24  H   LIG    1       24.435 -17.798   6.026  0.00  0.00    +0.211 HD
ENDBRANCH   3  23
BRANCH   3  25
ATOM     25  C   LIG    1       22.931 -20.631   5.698  0.00  0.00    +0.194 C 
ATOM     26  O   LIG    1       22.709 -20.789   6.908  0.00  0.00    -0.291 OA
BRANCH  25  27
ATOM     27  C   LIG    1       22.310 -21.572   4.675  0.00  0.00    +0.233 C 
BRANCH  27  28
ATOM     28  O   LIG    1       20.893 -21.555   4.781  0.00  0.00    -0.387 OA
ATOM     29  H   LIG    1       20.631 -22.435   5.116  0.00  0.00    +0.210 HD
ENDBRANCH  27  28
ENDBRANCH  25  27
ENDBRANCH   3  25
BRANCH   8  30
ATOM     30  O   LIG    1       22.213 -15.164   5.463  0.00  0.00    -0.389 OA
ATOM     31  H   LIG    1       21.517 -15.187   4.780  0.00  0.00    +0.210 HD
ENDBRANCH   8  30
TORSDOF 5
ENDMDL
