MODEL 1
REMARK VINA RESULT:      -7.7      0.000      0.000
REMARK  Name = *****
REMARK                            x       y       z     vdW  Elec       q    Type
REMARK                         _______ _______ _______ _____ _____    ______ ____
ROOT
ATOM      1  C   LIG    1       30.320 -20.313   7.897  0.00  0.00    +0.019 A 
ATOM      2  C   LIG    1       29.054 -20.839   7.596  0.00  0.00    +0.035 A 
ATOM      3  C   LIG    1       28.235 -20.329   6.561  0.00  0.00    +0.049 A 
ATOM      4  N   LIG    1       27.010 -20.955   6.165  0.00  0.00    -0.297 N 
ATOM      5  C   LIG    1       26.110 -20.453   5.168  0.00  0.00    +0.048 A 
ATOM      6  C   LIG    1       26.369 -19.255   4.468  0.00  0.00    +0.034 A 
ATOM      7  S   LIG    1       27.861 -18.314   4.626  0.00  0.00    -0.086 S 
ATOM      8  C   LIG    1       25.437 -18.720   3.553  0.00  0.00    +0.017 A 
ATOM      9  C   LIG    1       24.238 -19.365   3.287  0.00  0.00    +0.001 A 
ATOM     10  C   LIG    1       23.976 -20.568   3.916  0.00  0.00    +0.002 A 
ATOM     11  C   LIG    1       24.899 -21.102   4.830  0.00  0.00    +0.024 A 
ATOM     12  C   LIG    1       28.727 -19.181   5.904  0.00  0.00    +0.034 A 
ATOM     13  C   LIG    1       29.985 -18.634   6.224  0.00  0.00    +0.017 A 
ATOM     14  C   LIG    1       30.791 -19.210   7.199  0.00  0.00    +0.012 A 
ENDROOT
BRANCH   1  16
ATOM     15  C   LIG    1       30.860 -22.302   9.454  0.00  0.00    +0.091 C 
ATOM     16  C   LIG    1       31.221 -20.947   8.901  0.00  0.00    +0.160 C 
ATOM     17  O   LIG    1       32.224 -20.352   9.272  0.00  0.00    -0.292 OA
ENDBRANCH   1  16
BRANCH   4  18
ATOM     18  C   LIG    1       26.590 -22.197   6.886  0.00  0.00    +0.129 C 
BRANCH  18  19
ATOM     19  C   LIG    1       25.725 -21.940   8.179  0.00  0.00    +0.071 C 
ATOM     20  C   LIG    1       25.775 -20.449   8.578  0.00  0.00    +0.026 C 
BRANCH  19  21
ATOM     21  N   LIG    1       24.305 -22.393   7.989  0.00  0.00    -0.304 NA
ATOM     22  C   LIG    1       24.165 -23.458   6.985  0.00  0.00    +0.105 C 
ATOM     23  C   LIG    1       23.422 -21.286   7.595  0.00  0.00    +0.105 C 
ENDBRANCH  19  21
ENDBRANCH  18  19
ENDBRANCH   4  18
TORSDOF 4
ENDMDL
MODEL 2
REMARK VINA RESULT:      -7.2      2.402      5.444
REMARK  Name = *****
REMARK                            x       y       z     vdW  Elec       q    Type
REMARK                         _______ _______ _______ _____ _____    ______ ____
ROOT
ATOM      1  C   LIG    1       25.342 -19.594   4.090  0.00  0.00    +0.019 A 
ATOM      2  C   LIG    1       25.942 -20.444   5.033  0.00  0.00    +0.035 A 
ATOM      3  C   LIG    1       27.189 -20.160   5.641  0.00  0.00    +0.049 A 
ATOM      4  N   LIG    1       27.728 -20.955   6.703  0.00  0.00    -0.297 N 
ATOM      5  C   LIG    1       29.009 -20.754   7.315  0.00  0.00    +0.048 A 
ATOM      6  C   LIG    1       29.874 -19.717   6.907  0.00  0.00    +0.034 A 
ATOM      7  S   LIG    1       29.449 -18.480   5.713  0.00  0.00    -0.086 S 
ATOM      8  C   LIG    1       31.169 -19.579   7.452  0.00  0.00    +0.017 A 
ATOM      9  C   LIG    1       31.634 -20.446   8.430  0.00  0.00    +0.001 A 
ATOM     10  C   LIG    1       30.792 -21.442   8.891  0.00  0.00    +0.002 A 
ATOM     11  C   LIG    1       29.504 -21.584   8.349  0.00  0.00    +0.024 A 
ATOM     12  C   LIG    1       27.851 -19.009   5.166  0.00  0.00    +0.034 A 
ATOM     13  C   LIG    1       27.263 -18.170   4.198  0.00  0.00    +0.017 A 
ATOM     14  C   LIG    1       26.004 -18.446   3.679  0.00  0.00    +0.012 A 
ENDROOT
BRANCH   1  16
ATOM     15  C   LIG    1       22.830 -18.996   4.061  0.00  0.00    +0.091 C 
ATOM     16  C   LIG    1       23.971 -19.844   3.561  0.00  0.00    +0.160 C 
ATOM     17  O   LIG    1       23.792 -20.741   2.748  0.00  0.00    -0.292 OA
ENDBRANCH   1  16
BRANCH   4  18
ATOM     18  C   LIG    1       26.933 -22.130   7.176  0.00  0.00    +0.129 C 
BRANCH  18  19
ATOM     19  C   LIG    1       25.914 -21.805   8.334  0.00  0.00    +0.071 C 
ATOM     20  C   LIG    1       26.022 -20.322   8.752  0.00  0.00    +0.026 C 
BRANCH  19  21
ATOM     21  N   LIG    1       24.505 -22.146   7.939  0.00  0.00    -0.304 NA
ATOM     22  C   LIG    1       24.429 -23.195   6.910  0.00  0.00    +0.105 C 
ATOM     23  C   LIG    1       23.775 -20.972   7.438  0.00  0.00    +0.105 C 
ENDBRANCH  19  21
ENDBRANCH  18  19
ENDBRANCH   4  18
TORSDOF 4
ENDMDL
MODEL 3
REMARK VINA RESULT:      -7.1      1.649      2.297
REMARK  Name = *****
REMARK                            x       y       z     vdW  Elec       q    Type
REMARK                         _______ _______ _______ _____ _____    ______ ____
ROOT
ATOM      1  C   LIG    1       28.914 -20.650   7.450  0.00  0.00    +0.019 A 
ATOM      2  C   LIG    1       27.528 -20.854   7.534  0.00  0.00    +0.035 A 
ATOM      3  C   LIG    1       26.626 -20.439   6.525  0.00  0.00    +0.049 A 
ATOM      4  N   LIG    1       25.235 -20.774   6.548  0.00  0.00    -0.297 N 
ATOM      5  C   LIG    1       24.263 -20.333   5.591  0.00  0.00    +0.048 A 
ATOM      6  C   LIG    1       24.613 -19.500   4.506  0.00  0.00    +0.034 A 
ATOM      7  S   LIG    1       26.272 -19.018   4.118  0.00  0.00    -0.086 S 
ATOM      8  C   LIG    1       23.638 -18.997   3.618  0.00  0.00    +0.017 A 
ATOM      9  C   LIG    1       22.297 -19.320   3.764  0.00  0.00    +0.001 A 
ATOM     10  C   LIG    1       21.926 -20.176   4.785  0.00  0.00    +0.002 A 
ATOM     11  C   LIG    1       22.893 -20.677   5.672  0.00  0.00    +0.024 A 
ATOM     12  C   LIG    1       27.195 -19.707   5.462  0.00  0.00    +0.034 A 
ATOM     13  C   LIG    1       28.584 -19.475   5.390  0.00  0.00    +0.017 A 
ATOM     14  C   LIG    1       29.444 -19.964   6.365  0.00  0.00    +0.012 A 
ENDROOT
BRANCH   1  16
ATOM     15  C   LIG    1       31.252 -20.645   8.546  0.00  0.00    +0.091 C 
ATOM     16  C   LIG    1       29.859 -21.211   8.457  0.00  0.00    +0.160 C 
ATOM     17  O   LIG    1       29.495 -22.131   9.178  0.00  0.00    -0.292 OA
ENDBRANCH   1  16
BRANCH   4  18
ATOM     18  C   LIG    1       24.727 -21.595   7.691  0.00  0.00    +0.129 C 
BRANCH  18  19
ATOM     19  C   LIG    1       24.507 -23.119   7.353  0.00  0.00    +0.071 C 
ATOM     20  C   LIG    1       23.044 -23.375   6.931  0.00  0.00    +0.026 C 
BRANCH  19  21
ATOM     21  N   LIG    1       25.458 -23.589   6.289  0.00  0.00    -0.304 NA
ATOM     22  C   LIG    1       24.795 -23.891   5.011  0.00  0.00    +0.105 C 
ATOM     23  C   LIG    1       26.200 -24.788   6.704  0.00  0.00    +0.105 C 
ENDBRANCH  19  21
ENDBRANCH  18  19
ENDBRANCH   4  18
TORSDOF 4
ENDMDL
MODEL 4
REMARK VINA RESULT:      -6.2      2.980      6.062
REMARK  Name = *****
REMARK                            x       y       z     vdW  Elec       q    Type
REMARK                         _______ _______ _______ _____ _____    ______ ____
ROOT
ATOM      1  C   LIG    1       23.073 -19.875   4.399  0.00  0.00    +0.019 A 
ATOM      2  C   LIG    1       23.722 -20.547   5.446  0.00  0.00    +0.035 A 
ATOM      3  C   LIG    1       25.106 -20.407   5.710  0.00  0.00    +0.049 A 
ATOM      4  N   LIG    1       25.734 -20.980   6.861  0.00  0.00    -0.297 N 
ATOM      5  C   LIG    1       27.138 -20.924   7.150  0.00  0.00    +0.048 A 
ATOM      6  C   LIG    1       28.048 -20.274   6.289  0.00  0.00    +0.034 A 
ATOM      7  S   LIG    1       27.574 -19.351   4.854  0.00  0.00    -0.086 S 
ATOM      8  C   LIG    1       29.438 -20.298   6.533  0.00  0.00    +0.017 A 
ATOM      9  C   LIG    1       29.963 -20.945   7.642  0.00  0.00    +0.001 A 
ATOM     10  C   LIG    1       29.094 -21.547   8.534  0.00  0.00    +0.002 A 
ATOM     11  C   LIG    1       27.711 -21.527   8.294  0.00  0.00    +0.024 A 
ATOM     12  C   LIG    1       25.826 -19.621   4.786  0.00  0.00    +0.034 A 
ATOM     13  C   LIG    1       25.180 -18.969   3.716  0.00  0.00    +0.017 A 
ATOM     14  C   LIG    1       23.807 -19.074   3.535  0.00  0.00    +0.012 A 
ENDROOT
BRANCH   1  16
ATOM     15  C   LIG    1       20.875 -18.717   3.694  0.00  0.00    +0.091 C 
ATOM     16  C   LIG    1       21.594 -19.932   4.219  0.00  0.00    +0.160 C 
ATOM     17  O   LIG    1       20.989 -20.954   4.517  0.00  0.00    -0.292 OA
ENDBRANCH   1  16
BRANCH   4  18
ATOM     18  C   LIG    1       24.882 -21.758   7.814  0.00  0.00    +0.129 C 
BRANCH  18  19
ATOM     19  C   LIG    1       24.533 -23.218   7.333  0.00  0.00    +0.071 C 
ATOM     20  C   LIG    1       23.073 -23.291   6.834  0.00  0.00    +0.026 C 
BRANCH  19  21
ATOM     21  N   LIG    1       25.483 -23.689   6.268  0.00  0.00    -0.304 NA
ATOM     22  C   LIG    1       24.822 -23.973   4.985  0.00  0.00    +0.105 C 
ATOM     23  C   LIG    1       26.211 -24.899   6.676  0.00  0.00    +0.105 C 
ENDBRANCH  19  21
ENDBRANCH  18  19
ENDBRANCH   4  18
TORSDOF 4
ENDMDL
MODEL 5
REMARK VINA RESULT:      -6.0      9.299     11.087
REMARK  Name = *****
REMARK                            x       y       z     vdW  Elec       q    Type
REMARK                         _______ _______ _______ _____ _____    ______ ____
ROOT
ATOM      1  C   LIG    1       25.412 -26.569  13.525  0.00  0.00    +0.019 A 
ATOM      2  C   LIG    1       25.324 -27.761  12.789  0.00  0.00    +0.035 A 
ATOM      3  C   LIG    1       24.091 -28.366  12.447  0.00  0.00    +0.049 A 
ATOM      4  N   LIG    1       24.002 -29.501  11.579  0.00  0.00    -0.297 N 
ATOM      5  C   LIG    1       22.791 -30.192  11.245  0.00  0.00    +0.048 A 
ATOM      6  C   LIG    1       21.540 -29.794  11.764  0.00  0.00    +0.034 A 
ATOM      7  S   LIG    1       21.290 -28.349  12.757  0.00  0.00    -0.086 S 
ATOM      8  C   LIG    1       20.365 -30.531  11.502  0.00  0.00    +0.017 A 
ATOM      9  C   LIG    1       20.390 -31.665  10.704  0.00  0.00    +0.001 A 
ATOM     10  C   LIG    1       21.590 -32.053  10.136  0.00  0.00    +0.002 A 
ATOM     11  C   LIG    1       22.761 -31.324  10.396  0.00  0.00    +0.024 A 
ATOM     12  C   LIG    1       22.940 -27.748  12.980  0.00  0.00    +0.034 A 
ATOM     13  C   LIG    1       23.028 -26.566  13.743  0.00  0.00    +0.017 A 
ATOM     14  C   LIG    1       24.254 -25.964  13.996  0.00  0.00    +0.012 A 
ENDROOT
BRANCH   1  16
ATOM     15  C   LIG    1       27.693 -26.484  14.731  0.00  0.00    +0.091 C 
ATOM     16  C   LIG    1       26.712 -25.880  13.761  0.00  0.00    +0.160 C 
ATOM     17  O   LIG    1       26.952 -24.829  13.180  0.00  0.00    -0.292 OA
ENDBRANCH   1  16
BRANCH   4  18
ATOM     18  C   LIG    1       25.272 -30.061  11.021  0.00  0.00    +0.129 C 
BRANCH  18  19
ATOM     19  C   LIG    1       25.613 -29.574   9.561  0.00  0.00    +0.071 C 
ATOM     20  C   LIG    1       26.643 -28.424   9.599  0.00  0.00    +0.026 C 
BRANCH  19  21
ATOM     21  N   LIG    1       26.111 -30.705   8.706  0.00  0.00    -0.304 NA
ATOM     22  C   LIG    1       25.218 -31.017   7.579  0.00  0.00    +0.105 C 
ATOM     23  C   LIG    1       26.302 -31.939   9.482  0.00  0.00    +0.105 C 
ENDBRANCH  19  21
ENDBRANCH  18  19
ENDBRANCH   4  18
TORSDOF 4
ENDMDL
MODEL 6
REMARK VINA RESULT:      -5.9      9.894     12.611
REMARK  Name = *****
REMARK                            x       y       z     vdW  Elec       q    Type
REMARK                         _______ _______ _______ _____ _____    ______ ____
ROOT
ATOM      1  C   LIG    1       20.427 -31.010  10.913  0.00  0.00    +0.019 A 
ATOM      2  C   LIG    1       21.735 -30.791  10.452  0.00  0.00    +0.035 A 
ATOM      3  C   LIG    1       22.684 -30.020  11.166  0.00  0.00    +0.049 A 
ATOM      4  N   LIG    1       24.054 -29.917  10.764  0.00  0.00    -0.297 N 
ATOM      5  C   LIG    1       25.044 -29.105  11.410  0.00  0.00    +0.048 A 
ATOM      6  C   LIG    1       24.737 -28.312  12.536  0.00  0.00    +0.034 A 
ATOM      7  S   LIG    1       23.169 -28.320  13.360  0.00  0.00    -0.086 S 
ATOM      8  C   LIG    1       25.693 -27.448  13.112  0.00  0.00    +0.017 A 
ATOM      9  C   LIG    1       26.982 -27.362  12.607  0.00  0.00    +0.001 A 
ATOM     10  C   LIG    1       27.332 -28.164  11.536  0.00  0.00    +0.002 A 
ATOM     11  C   LIG    1       26.383 -29.023  10.959  0.00  0.00    +0.024 A 
ATOM     12  C   LIG    1       22.203 -29.391  12.334  0.00  0.00    +0.034 A 
ATOM     13  C   LIG    1       20.882 -29.587  12.783  0.00  0.00    +0.017 A 
ATOM     14  C   LIG    1       20.003 -30.411  12.091  0.00  0.00    +0.012 A 
ENDROOT
BRANCH   1  16
ATOM     15  C   LIG    1       18.098 -31.448   9.887  0.00  0.00    +0.091 C 
ATOM     16  C   LIG    1       19.487 -31.932  10.214  0.00  0.00    +0.160 C 
ATOM     17  O   LIG    1       19.850 -33.067   9.937  0.00  0.00    -0.292 OA
ENDBRANCH   1  16
BRANCH   4  18
ATOM     18  C   LIG    1       24.485 -30.657   9.538  0.00  0.00    +0.129 C 
BRANCH  18  19
ATOM     19  C   LIG    1       24.064 -29.973   8.182  0.00  0.00    +0.071 C 
ATOM     20  C   LIG    1       25.198 -29.067   7.655  0.00  0.00    +0.026 C 
BRANCH  19  21
ATOM     21  N   LIG    1       23.675 -30.994   7.149  0.00  0.00    -0.304 NA
ATOM     22  C   LIG    1       23.602 -32.362   7.685  0.00  0.00    +0.105 C 
ATOM     23  C   LIG    1       24.603 -31.006   6.010  0.00  0.00    +0.105 C 
ENDBRANCH  19  21
ENDBRANCH  18  19
ENDBRANCH   4  18
TORSDOF 4
ENDMDL
MODEL 7
REMARK VINA RESULT:      -5.9      7.382     10.330
REMARK  Name = *****
REMARK                            x       y       z     vdW  Elec       q    Type
REMARK                         _______ _______ _______ _____ _____    ______ ____
ROOT
ATOM      1  C   LIG    1       24.972 -26.398   6.544  0.00  0.00    +0.019 A 
ATOM      2  C   LIG    1       25.489 -27.256   7.527  0.00  0.00    +0.035 A 
ATOM      3  C   LIG    1       25.485 -28.666   7.398  0.00  0.00    +0.049 A 
ATOM      4  N   LIG    1       26.139 -29.529   8.334  0.00  0.00    -0.297 N 
ATOM      5  C   LIG    1       26.118 -30.962   8.290  0.00  0.00    +0.048 A 
ATOM      6  C   LIG    1       25.425 -31.665   7.281  0.00  0.00    +0.034 A 
ATOM      7  S   LIG    1       24.629 -30.893   5.900  0.00  0.00    -0.086 S 
ATOM      8  C   LIG    1       25.334 -33.073   7.293  0.00  0.00    +0.017 A 
ATOM      9  C   LIG    1       25.943 -33.824   8.287  0.00  0.00    +0.001 A 
ATOM     10  C   LIG    1       26.675 -33.171   9.262  0.00  0.00    +0.002 A 
ATOM     11  C   LIG    1       26.765 -31.770   9.255  0.00  0.00    +0.024 A 
ATOM     12  C   LIG    1       24.831 -29.171   6.254  0.00  0.00    +0.034 A 
ATOM     13  C   LIG    1       24.285 -28.311   5.280  0.00  0.00    +0.017 A 
ATOM     14  C   LIG    1       24.375 -26.930   5.410  0.00  0.00    +0.012 A 
ENDROOT
BRANCH   1  16
ATOM     15  C   LIG    1       23.859 -24.069   6.625  0.00  0.00    +0.091 C 
ATOM     16  C   LIG    1       25.105 -24.916   6.639  0.00  0.00    +0.160 C 
ATOM     17  O   LIG    1       26.219 -24.414   6.707  0.00  0.00    -0.292 OA
ENDBRANCH   1  16
BRANCH   4  18
ATOM     18  C   LIG    1       26.849 -28.902   9.492  0.00  0.00    +0.129 C 
BRANCH  18  19
ATOM     19  C   LIG    1       25.932 -28.616  10.742  0.00  0.00    +0.071 C 
ATOM     20  C   LIG    1       24.762 -29.623  10.799  0.00  0.00    +0.026 C 
BRANCH  19  21
ATOM     21  N   LIG    1       26.721 -28.645  12.021  0.00  0.00    -0.304 NA
ATOM     22  C   LIG    1       26.879 -27.317  12.635  0.00  0.00    +0.105 C 
ATOM     23  C   LIG    1       28.063 -29.212  11.827  0.00  0.00    +0.105 C 
ENDBRANCH  19  21
ENDBRANCH  18  19
ENDBRANCH   4  18
TORSDOF 4
ENDMDL
MODEL 8
REMARK VINA RESULT:      -5.7      9.649     12.083
REMARK  Name = *****
REMARK                            x       y       z     vdW  Elec       q    Type
REMARK                         _______ _______ _______ _____ _____    ______ ____
ROOT
ATOM      1  C   LIG    1       21.318 -30.527  11.730  0.00  0.00    +0.019 A 
ATOM      2  C   LIG    1       22.660 -30.122  11.654  0.00  0.00    +0.035 A 
ATOM      3  C   LIG    1       23.149 -28.954  12.289  0.00  0.00    +0.049 A 
ATOM      4  N   LIG    1       24.540 -28.622  12.328  0.00  0.00    -0.297 N 
ATOM      5  C   LIG    1       25.088 -27.427  12.901  0.00  0.00    +0.048 A 
ATOM      6  C   LIG    1       24.268 -26.444  13.496  0.00  0.00    +0.034 A 
ATOM      7  S   LIG    1       22.521 -26.616  13.730  0.00  0.00    -0.086 S 
ATOM      8  C   LIG    1       24.804 -25.231  13.979  0.00  0.00    +0.017 A 
ATOM      9  C   LIG    1       26.163 -24.966  13.907  0.00  0.00    +0.001 A 
ATOM     10  C   LIG    1       27.002 -25.929  13.378  0.00  0.00    +0.002 A 
ATOM     11  C   LIG    1       26.473 -27.137  12.894  0.00  0.00    +0.024 A 
ATOM     12  C   LIG    1       22.177 -28.156  12.928  0.00  0.00    +0.034 A 
ATOM     13  C   LIG    1       20.824 -28.546  12.980  0.00  0.00    +0.017 A 
ATOM     14  C   LIG    1       20.397 -29.737  12.405  0.00  0.00    +0.012 A 
ENDROOT
BRANCH   1  16
ATOM     15  C   LIG    1       19.953 -32.702  12.001  0.00  0.00    +0.091 C 
ATOM     16  C   LIG    1       20.852 -31.826  11.167  0.00  0.00    +0.160 C 
ATOM     17  O   LIG    1       21.220 -32.166  10.050  0.00  0.00    -0.292 OA
ENDBRANCH   1  16
BRANCH   4  18
ATOM     18  C   LIG    1       25.505 -29.553  11.665  0.00  0.00    +0.129 C 
BRANCH  18  19
ATOM     19  C   LIG    1       25.529 -29.456  10.092  0.00  0.00    +0.071 C 
ATOM     20  C   LIG    1       26.770 -28.670   9.616  0.00  0.00    +0.026 C 
BRANCH  19  21
ATOM     21  N   LIG    1       25.484 -30.816   9.456  0.00  0.00    -0.304 NA
ATOM     22  C   LIG    1       26.794 -31.269   8.963  0.00  0.00    +0.105 C 
ATOM     23  C   LIG    1       24.540 -30.867   8.331  0.00  0.00    +0.105 C 
ENDBRANCH  19  21
ENDBRANCH  18  19
ENDBRANCH   4  18
TORSDOF 4
ENDMDL
MODEL 9
REMARK VINA RESULT:      -5.7      9.212     12.062
REMARK  Name = *****
REMARK                            x       y       z     vdW  Elec       q    Type
REMARK                         _______ _______ _______ _____ _____    ______ ____
ROOT
ATOM      1  C   LIG    1       26.553 -32.962   4.527  0.00  0.00    +0.019 A 
ATOM      2  C   LIG    1       25.737 -32.081   5.254  0.00  0.00    +0.035 A 
ATOM      3  C   LIG    1       25.777 -31.982   6.666  0.00  0.00    +0.049 A 
ATOM      4  N   LIG    1       25.048 -30.985   7.390  0.00  0.00    -0.297 N 
ATOM      5  C   LIG    1       25.001 -30.873   8.819  0.00  0.00    +0.048 A 
ATOM      6  C   LIG    1       25.695 -31.770   9.659  0.00  0.00    +0.034 A 
ATOM      7  S   LIG    1       26.793 -33.031   9.075  0.00  0.00    -0.086 S 
ATOM      8  C   LIG    1       25.573 -31.709  11.064  0.00  0.00    +0.017 A 
ATOM      9  C   LIG    1       24.782 -30.748  11.676  0.00  0.00    +0.001 A 
ATOM     10  C   LIG    1       24.130 -29.820  10.885  0.00  0.00    +0.002 A 
ATOM     11  C   LIG    1       24.246 -29.879   9.487  0.00  0.00    +0.024 A 
ATOM     12  C   LIG    1       26.622 -32.904   7.318  0.00  0.00    +0.034 A 
ATOM     13  C   LIG    1       27.420 -33.810   6.591  0.00  0.00    +0.017 A 
ATOM     14  C   LIG    1       27.406 -33.825   5.202  0.00  0.00    +0.012 A 
ENDROOT
BRANCH   1  16
ATOM     15  C   LIG    1       27.699 -33.697   2.333  0.00  0.00    +0.091 C 
ATOM     16  C   LIG    1       26.591 -32.957   3.037  0.00  0.00    +0.160 C 
ATOM     17  O   LIG    1       25.738 -32.340   2.414  0.00  0.00    -0.292 OA
ENDBRANCH   1  16
BRANCH   4  18
ATOM     18  C   LIG    1       24.214 -30.018   6.612  0.00  0.00    +0.129 C 
BRANCH  18  19
ATOM     19  C   LIG    1       25.020 -28.812   5.993  0.00  0.00    +0.071 C 
ATOM     20  C   LIG    1       24.581 -28.557   4.535  0.00  0.00    +0.026 C 
BRANCH  19  21
ATOM     21  N   LIG    1       24.869 -27.567   6.821  0.00  0.00    -0.304 NA
ATOM     22  C   LIG    1       24.273 -26.446   6.077  0.00  0.00    +0.105 C 
ATOM     23  C   LIG    1       26.154 -27.110   7.368  0.00  0.00    +0.105 C 
ENDBRANCH  19  21
ENDBRANCH  18  19
ENDBRANCH   4  18
TORSDOF 4
ENDMDL
