MODEL 1
REMARK VINA RESULT:       1.6      0.000      0.000
REMARK  Name = *****
REMARK                            x       y       z     vdW  Elec       q    Type
REMARK                         _______ _______ _______ _____ _____    ______ ____
ROOT
ATOM      1  C   LIG    1       24.795 -15.031   4.985  0.00  0.00    +0.020 C 
ATOM      2  C   LIG    1       24.905 -15.836   3.915  0.00  0.00    +0.036 C 
ATOM      3  C   LIG    1       24.137 -17.043   3.483  0.00  0.00    +0.069 C 
ATOM      4  C   LIG    1       25.323 -18.023   3.446  0.00  0.00    +0.216 C 
ATOM      5  C   LIG    1       25.919 -18.534   4.744  0.00  0.00    +0.192 C 
ATOM      6  C   LIG    1       25.970 -19.998   5.275  0.00  0.00    +0.097 C 
ATOM      7  C   LIG    1       25.404 -21.217   4.572  0.00  0.00    +0.041 C 
ATOM      8  C   LIG    1       23.991 -21.571   5.051  0.00  0.00    +0.030 C 
ATOM      9  C   LIG    1       23.057 -20.604   4.406  0.00  0.00    -0.028 C 
ATOM     10  C   LIG    1       22.591 -19.469   4.951  0.00  0.00    -0.076 C 
ATOM     11  C   LIG    1       21.986 -18.452   4.028  0.00  0.00    +0.031 C 
ATOM     12  C   LIG    1       22.711 -19.073   6.402  0.00  0.00    +0.038 C 
ATOM     13  C   LIG    1       26.307 -20.189   6.732  0.00  0.00    +0.044 C 
ATOM     14  O   LIG    1       27.045 -19.410   4.533  0.00  0.00    -0.361 OA
ATOM     15  O   LIG    1       26.343 -17.168   2.791  0.00  0.00    -0.455 OA
ATOM     16  C   LIG    1       22.744 -17.137   4.113  0.00  0.00    +0.016 C 
ATOM     17  C   LIG    1       26.069 -15.839   3.010  0.00  0.00    +0.335 C 
ATOM     18  O   LIG    1       26.583 -14.882   2.492  0.00  0.00    -0.245 OA
ENDROOT
TORSDOF 0
ENDMDL
MODEL 2
REMARK VINA RESULT:       2.7      1.348      1.977
REMARK  Name = *****
REMARK                            x       y       z     vdW  Elec       q    Type
REMARK                         _______ _______ _______ _____ _____    ______ ____
ROOT
ATOM      1  C   LIG    1       25.737 -14.084   5.679  0.00  0.00    +0.020 C 
ATOM      2  C   LIG    1       25.419 -14.350   4.401  0.00  0.00    +0.036 C 
ATOM      3  C   LIG    1       24.282 -15.098   3.785  0.00  0.00    +0.069 C 
ATOM      4  C   LIG    1       25.123 -16.153   3.045  0.00  0.00    +0.216 C 
ATOM      5  C   LIG    1       25.787 -17.270   3.826  0.00  0.00    +0.192 C 
ATOM      6  C   LIG    1       25.532 -18.804   3.728  0.00  0.00    +0.097 C 
ATOM      7  C   LIG    1       24.531 -19.480   2.811  0.00  0.00    +0.041 C 
ATOM      8  C   LIG    1       23.190 -19.758   3.502  0.00  0.00    +0.030 C 
ATOM      9  C   LIG    1       22.456 -18.462   3.565  0.00  0.00    -0.028 C 
ATOM     10  C   LIG    1       22.431 -17.615   4.606  0.00  0.00    -0.076 C 
ATOM     11  C   LIG    1       21.967 -16.211   4.349  0.00  0.00    +0.031 C 
ATOM     12  C   LIG    1       22.925 -17.914   6.000  0.00  0.00    +0.038 C 
ATOM     13  C   LIG    1       26.070 -19.663   4.844  0.00  0.00    +0.044 C 
ATOM     14  O   LIG    1       26.568 -18.147   2.989  0.00  0.00    -0.361 OA
ATOM     15  O   LIG    1       26.196 -15.288   2.498  0.00  0.00    -0.455 OA
ATOM     16  C   LIG    1       23.060 -15.215   4.702  0.00  0.00    +0.016 C 
ATOM     17  C   LIG    1       26.345 -14.160   3.271  0.00  0.00    +0.335 C 
ATOM     18  O   LIG    1       26.996 -13.177   3.029  0.00  0.00    -0.245 OA
ENDROOT
TORSDOF 0
ENDMDL
MODEL 3
REMARK VINA RESULT:       3.0      2.215      5.309
REMARK  Name = *****
REMARK                            x       y       z     vdW  Elec       q    Type
REMARK                         _______ _______ _______ _____ _____    ______ ____
ROOT
ATOM      1  C   LIG    1       26.284 -19.392   5.440  0.00  0.00    +0.020 C 
ATOM      2  C   LIG    1       25.752 -19.113   4.238  0.00  0.00    +0.036 C 
ATOM      3  C   LIG    1       25.840 -17.911   3.356  0.00  0.00    +0.069 C 
ATOM      4  C   LIG    1       24.334 -17.604   3.297  0.00  0.00    +0.216 C 
ATOM      5  C   LIG    1       23.639 -17.002   4.503  0.00  0.00    +0.192 C 
ATOM      6  C   LIG    1       22.937 -15.616   4.624  0.00  0.00    +0.097 C 
ATOM      7  C   LIG    1       22.827 -14.579   3.523  0.00  0.00    +0.041 C 
ATOM      8  C   LIG    1       23.933 -13.519   3.597  0.00  0.00    +0.030 C 
ATOM      9  C   LIG    1       25.174 -14.146   3.061  0.00  0.00    -0.028 C 
ATOM     10  C   LIG    1       26.146 -14.724   3.785  0.00  0.00    -0.076 C 
ATOM     11  C   LIG    1       27.107 -15.626   3.065  0.00  0.00    +0.031 C 
ATOM     12  C   LIG    1       26.306 -14.632   5.282  0.00  0.00    +0.038 C 
ATOM     13  C   LIG    1       22.629 -15.120   6.014  0.00  0.00    +0.044 C 
ATOM     14  O   LIG    1       22.224 -16.814   4.295  0.00  0.00    -0.361 OA
ATOM     15  O   LIG    1       23.799 -18.975   3.110  0.00  0.00    -0.455 OA
ATOM     16  C   LIG    1       27.059 -17.029   3.646  0.00  0.00    +0.016 C 
ATOM     17  C   LIG    1       24.676 -19.905   3.617  0.00  0.00    +0.335 C 
ATOM     18  O   LIG    1       24.643 -21.101   3.486  0.00  0.00    -0.245 OA
ENDROOT
TORSDOF 0
ENDMDL
MODEL 4
REMARK VINA RESULT:       3.0      2.348      3.917
REMARK  Name = *****
REMARK                            x       y       z     vdW  Elec       q    Type
REMARK                         _______ _______ _______ _____ _____    ______ ____
ROOT
ATOM      1  C   LIG    1       24.685 -14.090   1.887  0.00  0.00    +0.020 C 
ATOM      2  C   LIG    1       24.782 -14.310   3.209  0.00  0.00    +0.036 C 
ATOM      3  C   LIG    1       25.304 -15.465   3.998  0.00  0.00    +0.069 C 
ATOM      4  C   LIG    1       24.008 -15.775   4.767  0.00  0.00    +0.216 C 
ATOM      5  C   LIG    1       22.848 -16.441   4.051  0.00  0.00    +0.192 C 
ATOM      6  C   LIG    1       22.209 -17.834   4.332  0.00  0.00    +0.097 C 
ATOM      7  C   LIG    1       22.653 -18.815   5.400  0.00  0.00    +0.041 C 
ATOM      8  C   LIG    1       23.626 -19.872   4.863  0.00  0.00    +0.030 C 
ATOM      9  C   LIG    1       24.956 -19.213   4.731  0.00  0.00    -0.028 C 
ATOM     10  C   LIG    1       25.462 -18.669   3.613  0.00  0.00    -0.076 C 
ATOM     11  C   LIG    1       26.623 -17.727   3.762  0.00  0.00    +0.031 C 
ATOM     12  C   LIG    1       24.908 -18.836   2.220  0.00  0.00    +0.038 C 
ATOM     13  C   LIG    1       21.302 -18.401   3.270  0.00  0.00    +0.044 C 
ATOM     14  O   LIG    1       21.699 -16.624   4.904  0.00  0.00    -0.361 OA
ATOM     15  O   LIG    1       23.585 -14.399   5.123  0.00  0.00    -0.455 OA
ATOM     16  C   LIG    1       26.271 -16.356   3.210  0.00  0.00    +0.016 C 
ATOM     17  C   LIG    1       24.098 -13.492   4.226  0.00  0.00    +0.335 C 
ATOM     18  O   LIG    1       24.097 -12.291   4.306  0.00  0.00    -0.245 OA
ENDROOT
TORSDOF 0
ENDMDL
MODEL 5
REMARK VINA RESULT:       4.1      1.725      4.834
REMARK  Name = *****
REMARK                            x       y       z     vdW  Elec       q    Type
REMARK                         _______ _______ _______ _____ _____    ______ ____
ROOT
ATOM      1  C   LIG    1       23.158 -19.162   2.195  0.00  0.00    +0.020 C 
ATOM      2  C   LIG    1       23.793 -19.037   3.373  0.00  0.00    +0.036 C 
ATOM      3  C   LIG    1       23.742 -17.987   4.434  0.00  0.00    +0.069 C 
ATOM      4  C   LIG    1       25.235 -17.612   4.405  0.00  0.00    +0.216 C 
ATOM      5  C   LIG    1       25.785 -16.800   3.249  0.00  0.00    +0.192 C 
ATOM      6  C   LIG    1       26.417 -15.376   3.281  0.00  0.00    +0.097 C 
ATOM      7  C   LIG    1       26.592 -14.510   4.513  0.00  0.00    +0.041 C 
ATOM      8  C   LIG    1       25.442 -13.512   4.703  0.00  0.00    +0.030 C 
ATOM      9  C   LIG    1       24.285 -14.279   5.245  0.00  0.00    -0.028 C 
ATOM     10  C   LIG    1       23.271 -14.793   4.531  0.00  0.00    -0.076 C 
ATOM     11  C   LIG    1       22.421 -15.843   5.186  0.00  0.00    +0.031 C 
ATOM     12  C   LIG    1       22.964 -14.487   3.085  0.00  0.00    +0.038 C 
ATOM     13  C   LIG    1       26.569 -14.662   1.962  0.00  0.00    +0.044 C 
ATOM     14  O   LIG    1       27.205 -16.570   3.356  0.00  0.00    -0.361 OA
ATOM     15  O   LIG    1       25.838 -18.965   4.330  0.00  0.00    -0.455 OA
ATOM     16  C   LIG    1       22.467 -17.139   4.394  0.00  0.00    +0.016 C 
ATOM     17  C   LIG    1       24.954 -19.854   3.767  0.00  0.00    +0.335 C 
ATOM     18  O   LIG    1       25.047 -21.053   3.708  0.00  0.00    -0.245 OA
ENDROOT
TORSDOF 0
ENDMDL
