MODEL 1
REMARK VINA RESULT:      -3.2      0.000      0.000
REMARK  Name = *****
REMARK                            x       y       z     vdW  Elec       q    Type
REMARK                         _______ _______ _______ _____ _____    ______ ____
ROOT
ATOM      1  C   LIG    1       25.692 -18.026   3.419  0.00  0.00    +0.117 C 
ENDROOT
BRANCH   1   2
ATOM      2  C   LIG    1       26.622 -18.806   4.397  0.00  0.00    -0.026 A 
ATOM      3  C   LIG    1       27.987 -18.457   4.520  0.00  0.00    +0.007 A 
ATOM      4  C   LIG    1       28.856 -19.154   5.369  0.00  0.00    +0.020 A 
ATOM      5  C   LIG    1       28.392 -20.238   6.069  0.00  0.00    +0.041 A 
ATOM      6 CL   LIG    1       29.475 -21.165   7.062  0.00  0.00    -0.084 Cl
ATOM      7  C   LIG    1       27.053 -20.630   5.968  0.00  0.00    +0.020 A 
ATOM      8  C   LIG    1       26.172 -19.895   5.153  0.00  0.00    +0.007 A 
ENDBRANCH   1   2
BRANCH   1  12
ATOM      9  N   LIG    1       26.607 -13.749   3.588  0.00  0.00    -0.298 NA
ATOM     10  C   LIG    1       25.586 -14.325   4.477  0.00  0.00    +0.100 C 
ATOM     11  C   LIG    1       25.033 -15.690   3.977  0.00  0.00    +0.100 C 
ATOM     12  N   LIG    1       26.035 -16.570   3.307  0.00  0.00    -0.289 NA
ATOM     13  C   LIG    1       27.363 -16.197   3.854  0.00  0.00    +0.100 C 
ATOM     14  C   LIG    1       27.733 -14.711   3.544  0.00  0.00    +0.100 C 
BRANCH   9  15
ATOM     15  C   LIG    1       26.077 -13.513   2.224  0.00  0.00    +0.112 C 
BRANCH  15  16
ATOM     16  C   LIG    1       25.493 -12.105   2.047  0.00  0.00    +0.175 C 
BRANCH  16  17
ATOM     17  O   LIG    1       24.064 -12.156   2.082  0.00  0.00    -0.376 OA
BRANCH  17  18
ATOM     18  C   LIG    1       23.529 -11.448   3.204  0.00  0.00    +0.187 C 
BRANCH  18  19
ATOM     19  C   LIG    1       23.877 -12.131   4.526  0.00  0.00    +0.184 C 
BRANCH  19  20
ATOM     20  O   LIG    1       23.260 -11.465   5.617  0.00  0.00    -0.393 OA
ATOM     21  H   LIG    1       22.966 -10.597   5.292  0.00  0.00    +0.209 HD
ENDBRANCH  19  20
ENDBRANCH  18  19
ENDBRANCH  17  18
ENDBRANCH  16  17
ENDBRANCH  15  16
ENDBRANCH   9  15
ENDBRANCH   1  12
BRANCH   1  22
ATOM     22  C   LIG    1       24.197 -18.341   3.683  0.00  0.00    -0.026 A 
ATOM     23  C   LIG    1       23.374 -17.356   4.266  0.00  0.00    +0.005 A 
ATOM     24  C   LIG    1       22.041 -17.647   4.616  0.00  0.00    +0.000 A 
ATOM     25  C   LIG    1       21.531 -18.915   4.431  0.00  0.00    +0.000 A 
ATOM     26  C   LIG    1       22.311 -19.898   3.828  0.00  0.00    +0.000 A 
ATOM     27  C   LIG    1       23.608 -19.582   3.397  0.00  0.00    +0.005 A 
ENDBRANCH   1  22
TORSDOF 9
ENDMDL
MODEL 2
REMARK VINA RESULT:      -2.1      2.979      6.017
REMARK  Name = *****
REMARK                            x       y       z     vdW  Elec       q    Type
REMARK                         _______ _______ _______ _____ _____    ______ ____
ROOT
ATOM      1  C   LIG    1       26.451 -18.961   4.056  0.00  0.00    +0.117 C 
ENDROOT
BRANCH   1   2
ATOM      2  C   LIG    1       26.415 -17.430   3.770  0.00  0.00    -0.026 A 
ATOM      3  C   LIG    1       27.561 -16.632   3.990  0.00  0.00    +0.007 A 
ATOM      4  C   LIG    1       27.554 -15.249   3.769  0.00  0.00    +0.020 A 
ATOM      5  C   LIG    1       26.396 -14.633   3.373  0.00  0.00    +0.041 A 
ATOM      6 CL   LIG    1       26.346 -12.908   3.174  0.00  0.00    -0.084 Cl
ATOM      7  C   LIG    1       25.232 -15.379   3.155  0.00  0.00    +0.020 A 
ATOM      8  C   LIG    1       25.258 -16.775   3.330  0.00  0.00    +0.007 A 
ENDBRANCH   1   2
BRANCH   1  12
ATOM      9  N   LIG    1       22.718 -21.101   4.861  0.00  0.00    -0.298 NA
ATOM     10  C   LIG    1       23.630 -21.570   3.805  0.00  0.00    +0.100 C 
ATOM     11  C   LIG    1       24.618 -20.475   3.313  0.00  0.00    +0.100 C 
ATOM     12  N   LIG    1       25.104 -19.540   4.370  0.00  0.00    -0.289 NA
ATOM     13  C   LIG    1       25.024 -20.276   5.658  0.00  0.00    +0.100 C 
ATOM     14  C   LIG    1       23.560 -20.694   6.010  0.00  0.00    +0.100 C 
BRANCH   9  15
ATOM     15  C   LIG    1       21.887 -19.962   4.401  0.00  0.00    +0.112 C 
BRANCH  15  16
ATOM     16  C   LIG    1       22.326 -18.623   5.007  0.00  0.00    +0.175 C 
BRANCH  16  17
ATOM     17  O   LIG    1       21.657 -17.542   4.353  0.00  0.00    -0.376 OA
BRANCH  17  18
ATOM     18  C   LIG    1       22.435 -16.341   4.366  0.00  0.00    +0.187 C 
BRANCH  18  19
ATOM     19  C   LIG    1       22.389 -15.649   5.727  0.00  0.00    +0.184 C 
BRANCH  19  20
ATOM     20  O   LIG    1       22.790 -14.291   5.618  0.00  0.00    -0.393 OA
ATOM     21  H   LIG    1       22.626 -13.875   6.481  0.00  0.00    +0.209 HD
ENDBRANCH  19  20
ENDBRANCH  18  19
ENDBRANCH  17  18
ENDBRANCH  16  17
ENDBRANCH  15  16
ENDBRANCH   9  15
ENDBRANCH   1  12
BRANCH   1  22
ATOM     22  C   LIG    1       27.583 -19.327   5.051  0.00  0.00    -0.026 A 
ATOM     23  C   LIG    1       27.609 -20.612   5.629  0.00  0.00    +0.005 A 
ATOM     24  C   LIG    1       28.559 -20.939   6.615  0.00  0.00    +0.000 A 
ATOM     25  C   LIG    1       29.456 -19.992   7.062  0.00  0.00    +0.000 A 
ATOM     26  C   LIG    1       29.475 -18.725   6.486  0.00  0.00    +0.000 A 
ATOM     27  C   LIG    1       28.588 -18.428   5.440  0.00  0.00    +0.005 A 
ENDBRANCH   1  22
TORSDOF 9
ENDMDL
MODEL 3
REMARK VINA RESULT:      -1.7      3.802      6.557
REMARK  Name = *****
REMARK                            x       y       z     vdW  Elec       q    Type
REMARK                         _______ _______ _______ _____ _____    ______ ____
ROOT
ATOM      1  C   LIG    1       23.113 -17.923   4.917  0.00  0.00    +0.117 C 
ENDROOT
BRANCH   1   2
ATOM      2  C   LIG    1       23.768 -16.650   4.299  0.00  0.00    -0.026 A 
ATOM      3  C   LIG    1       24.980 -16.747   3.577  0.00  0.00    +0.007 A 
ATOM      4  C   LIG    1       25.609 -15.620   3.033  0.00  0.00    +0.020 A 
ATOM      5  C   LIG    1       25.069 -14.378   3.240  0.00  0.00    +0.041 A 
ATOM      6 CL   LIG    1       25.879 -12.961   2.644  0.00  0.00    -0.084 Cl
ATOM      7  C   LIG    1       23.879 -14.231   3.961  0.00  0.00    +0.020 A 
ATOM      8  C   LIG    1       23.224 -15.371   4.463  0.00  0.00    +0.007 A 
ENDBRANCH   1   2
BRANCH   1  12
ATOM      9  N   LIG    1       25.603 -21.461   5.586  0.00  0.00    -0.298 NA
ATOM     10  C   LIG    1       24.162 -21.500   5.883  0.00  0.00    +0.100 C 
ATOM     11  C   LIG    1       23.533 -20.090   6.070  0.00  0.00    +0.100 C 
ATOM     12  N   LIG    1       24.093 -19.025   5.187  0.00  0.00    -0.289 NA
ATOM     13  C   LIG    1       24.616 -19.708   3.976  0.00  0.00    +0.100 C 
ATOM     14  C   LIG    1       25.761 -20.716   4.315  0.00  0.00    +0.100 C 
BRANCH   9  15
ATOM     15  C   LIG    1       26.369 -20.800   6.669  0.00  0.00    +0.112 C 
BRANCH  15  16
ATOM     16  C   LIG    1       27.642 -21.566   7.051  0.00  0.00    +0.175 C 
BRANCH  16  17
ATOM     17  O   LIG    1       28.775 -21.005   6.384  0.00  0.00    -0.376 OA
BRANCH  17  18
ATOM     18  C   LIG    1       28.884 -19.596   6.602  0.00  0.00    +0.187 C 
BRANCH  18  19
ATOM     19  C   LIG    1       29.133 -18.836   5.300  0.00  0.00    +0.184 C 
BRANCH  19  20
ATOM     20  O   LIG    1       27.945 -18.199   4.852  0.00  0.00    -0.393 OA
ATOM     21  H   LIG    1       27.984 -17.277   5.157  0.00  0.00    +0.209 HD
ENDBRANCH  19  20
ENDBRANCH  18  19
ENDBRANCH  17  18
ENDBRANCH  16  17
ENDBRANCH  15  16
ENDBRANCH   9  15
ENDBRANCH   1  12
BRANCH   1  22
ATOM     22  C   LIG    1       21.838 -18.340   4.138  0.00  0.00    -0.026 A 
ATOM     23  C   LIG    1       21.227 -17.420   3.264  0.00  0.00    +0.005 A 
ATOM     24  C   LIG    1       20.011 -17.730   2.626  0.00  0.00    +0.000 A 
ATOM     25  C   LIG    1       19.376 -18.928   2.879  0.00  0.00    +0.000 A 
ATOM     26  C   LIG    1       19.972 -19.869   3.713  0.00  0.00    +0.000 A 
ATOM     27  C   LIG    1       21.228 -19.596   4.277  0.00  0.00    +0.005 A 
ENDBRANCH   1  22
TORSDOF 9
ENDMDL
MODEL 4
REMARK VINA RESULT:      -0.4      1.989      2.963
REMARK  Name = *****
REMARK                            x       y       z     vdW  Elec       q    Type
REMARK                         _______ _______ _______ _____ _____    ______ ____
ROOT
ATOM      1  C   LIG    1       24.966 -17.811   3.516  0.00  0.00    +0.117 C 
ENDROOT
BRANCH   1   2
ATOM      2  C   LIG    1       26.146 -18.512   4.256  0.00  0.00    -0.026 A 
ATOM      3  C   LIG    1       25.946 -19.745   4.917  0.00  0.00    +0.007 A 
ATOM      4  C   LIG    1       26.977 -20.388   5.613  0.00  0.00    +0.020 A 
ATOM      5  C   LIG    1       28.207 -19.791   5.703  0.00  0.00    +0.041 A 
ATOM      6 CL   LIG    1       29.474 -20.532   6.632  0.00  0.00    -0.084 Cl
ATOM      7  C   LIG    1       28.448 -18.563   5.077  0.00  0.00    +0.020 A 
ATOM      8  C   LIG    1       27.423 -17.946   4.336  0.00  0.00    +0.007 A 
ENDBRANCH   1   2
BRANCH   1  12
ATOM      9  N   LIG    1       24.555 -13.462   3.787  0.00  0.00    -0.298 NA
ATOM     10  C   LIG    1       24.780 -14.106   2.483  0.00  0.00    +0.100 C 
ATOM     11  C   LIG    1       25.386 -15.534   2.599  0.00  0.00    +0.100 C 
ATOM     12  N   LIG    1       24.903 -16.333   3.763  0.00  0.00    -0.289 NA
ATOM     13  C   LIG    1       23.554 -15.814   4.106  0.00  0.00    +0.100 C 
ATOM     14  C   LIG    1       23.590 -14.310   4.526  0.00  0.00    +0.100 C 
BRANCH   9  15
ATOM     15  C   LIG    1       25.814 -13.323   4.556  0.00  0.00    +0.112 C 
BRANCH  15  16
ATOM     16  C   LIG    1       26.935 -14.230   4.032  0.00  0.00    +0.175 C 
BRANCH  16  17
ATOM     17  O   LIG    1       28.034 -14.237   4.948  0.00  0.00    -0.376 OA
BRANCH  17  18
ATOM     18  C   LIG    1       28.361 -12.921   5.404  0.00  0.00    +0.187 C 
BRANCH  18  19
ATOM     19  C   LIG    1       29.210 -12.162   4.385  0.00  0.00    +0.184 C 
BRANCH  19  20
ATOM     20  O   LIG    1       29.475 -12.968   3.246  0.00  0.00    -0.393 OA
ATOM     21  H   LIG    1       29.312 -12.417   2.463  0.00  0.00    +0.209 HD
ENDBRANCH  19  20
ENDBRANCH  18  19
ENDBRANCH  17  18
ENDBRANCH  16  17
ENDBRANCH  15  16
ENDBRANCH   9  15
ENDBRANCH   1  12
BRANCH   1  22
ATOM     22  C   LIG    1       23.633 -18.579   3.717  0.00  0.00    -0.026 A 
ATOM     23  C   LIG    1       22.411 -17.916   3.486  0.00  0.00    +0.005 A 
ATOM     24  C   LIG    1       21.184 -18.551   3.761  0.00  0.00    +0.000 A 
ATOM     25  C   LIG    1       21.161 -19.820   4.301  0.00  0.00    +0.000 A 
ATOM     26  C   LIG    1       22.352 -20.510   4.509  0.00  0.00    +0.000 A 
ATOM     27  C   LIG    1       23.569 -19.912   4.149  0.00  0.00    +0.005 A 
ENDBRANCH   1  22
TORSDOF 9
ENDMDL
MODEL 5
REMARK VINA RESULT:      -0.3      1.057      1.595
REMARK  Name = *****
REMARK                            x       y       z     vdW  Elec       q    Type
REMARK                         _______ _______ _______ _____ _____    ______ ____
ROOT
ATOM      1  C   LIG    1       25.882 -17.822   3.577  0.00  0.00    +0.117 C 
ENDROOT
BRANCH   1   2
ATOM      2  C   LIG    1       26.761 -18.705   4.513  0.00  0.00    -0.026 A 
ATOM      3  C   LIG    1       28.136 -18.421   4.683  0.00  0.00    +0.007 A 
ATOM      4  C   LIG    1       28.960 -19.209   5.496  0.00  0.00    +0.020 A 
ATOM      5  C   LIG    1       28.441 -20.317   6.112  0.00  0.00    +0.041 A 
ATOM      6 CL   LIG    1       29.466 -21.354   7.056  0.00  0.00    -0.084 Cl
ATOM      7  C   LIG    1       27.089 -20.647   5.962  0.00  0.00    +0.020 A 
ATOM      8  C   LIG    1       26.254 -19.823   5.185  0.00  0.00    +0.007 A 
ENDBRANCH   1   2
BRANCH   1  12
ATOM      9  N   LIG    1       27.051 -13.614   3.873  0.00  0.00    -0.298 NA
ATOM     10  C   LIG    1       28.050 -14.678   4.065  0.00  0.00    +0.100 C 
ATOM     11  C   LIG    1       27.422 -16.056   4.419  0.00  0.00    +0.100 C 
ATOM     12  N   LIG    1       26.125 -16.352   3.744  0.00  0.00    -0.289 NA
ATOM     13  C   LIG    1       26.115 -15.569   2.481  0.00  0.00    +0.100 C 
ATOM     14  C   LIG    1       26.191 -14.030   2.740  0.00  0.00    +0.100 C 
BRANCH   9  15
ATOM     15  C   LIG    1       26.233 -13.402   5.090  0.00  0.00    +0.112 C 
BRANCH  15  16
ATOM     16  C   LIG    1       25.430 -12.096   5.049  0.00  0.00    +0.175 C 
BRANCH  16  17
ATOM     17  O   LIG    1       24.038 -12.376   4.886  0.00  0.00    -0.376 OA
BRANCH  17  18
ATOM     18  C   LIG    1       23.806 -13.402   3.915  0.00  0.00    +0.187 C 
BRANCH  18  19
ATOM     19  C   LIG    1       23.047 -14.586   4.510  0.00  0.00    +0.184 C 
BRANCH  19  20
ATOM     20  O   LIG    1       22.466 -14.239   5.759  0.00  0.00    -0.393 OA
ATOM     21  H   LIG    1       23.152 -14.363   6.437  0.00  0.00    +0.209 HD
ENDBRANCH  19  20
ENDBRANCH  18  19
ENDBRANCH  17  18
ENDBRANCH  16  17
ENDBRANCH  15  16
ENDBRANCH   9  15
ENDBRANCH   1  12
BRANCH   1  22
ATOM     22  C   LIG    1       24.394 -18.261   3.613  0.00  0.00    -0.026 A 
ATOM     23  C   LIG    1       23.420 -17.365   4.097  0.00  0.00    +0.005 A 
ATOM     24  C   LIG    1       22.079 -17.770   4.243  0.00  0.00    +0.000 A 
ATOM     25  C   LIG    1       21.705 -19.066   3.952  0.00  0.00    +0.000 A 
ATOM     26  C   LIG    1       22.640 -19.961   3.442  0.00  0.00    +0.000 A 
ATOM     27  C   LIG    1       23.955 -19.531   3.211  0.00  0.00    +0.005 A 
ENDBRANCH   1  22
TORSDOF 9
ENDMDL
