MODEL 1
REMARK VINA RESULT:      -7.1      0.000      0.000
REMARK  Name = *****
REMARK                            x       y       z     vdW  Elec       q    Type
REMARK                         _______ _______ _______ _____ _____    ______ ____
ROOT
ATOM      1  C   LIG    1       25.612 -21.749   6.615  0.00  0.00    +0.179 C 
ATOM      2  N   LIG    1       26.883 -21.146   6.951  0.00  0.00    -0.199 N 
ATOM      3  C   LIG    1       27.423 -20.183   6.120  0.00  0.00    +0.353 C 
ATOM      4  O   LIG    1       26.963 -19.702   5.095  0.00  0.00    -0.244 OA
ATOM      5  N   LIG    1       28.651 -19.760   6.587  0.00  0.00    -0.232 N 
ATOM      6  C   LIG    1       29.243 -20.257   7.712  0.00  0.00    +0.197 C 
ATOM      7  C   LIG    1       30.438 -19.570   7.828  0.00  0.00    +0.171 C 
ATOM      8  N   LIG    1       30.578 -18.666   6.776  0.00  0.00    -0.228 NA
ATOM      9  N   LIG    1       28.624 -21.223   8.423  0.00  0.00    -0.110 NA
ATOM     10  C   LIG    1       29.487 -18.815   6.055  0.00  0.00    +0.210 C 
ATOM     11  N   LIG    1       27.507 -21.663   8.065  0.00  0.00    -0.060 NA
ENDROOT
BRANCH   7  12
ATOM     12  C   LIG    1       31.444 -19.727   8.871  0.00  0.00    +0.264 C 
ATOM     13  O   LIG    1       31.990 -18.803   9.461  0.00  0.00    -0.269 OA
ATOM     14  N   LIG    1       31.740 -21.031   9.149  0.00  0.00    -0.324 N 
ATOM     15  H   LIG    1       32.426 -21.244   9.855  0.00  0.00    +0.145 HD
ATOM     16  H   LIG    1       31.269 -21.770   8.640  0.00  0.00    +0.145 HD
ENDBRANCH   7  12
TORSDOF 1
ENDMDL
MODEL 2
REMARK VINA RESULT:      -6.6      2.598      4.031
REMARK  Name = *****
REMARK                            x       y       z     vdW  Elec       q    Type
REMARK                         _______ _______ _______ _____ _____    ______ ____
ROOT
ATOM      1  C   LIG    1       22.406 -20.879   5.162  0.00  0.00    +0.179 C 
ATOM      2  N   LIG    1       23.763 -20.741   5.646  0.00  0.00    -0.199 N 
ATOM      3  C   LIG    1       24.024 -20.884   6.995  0.00  0.00    +0.353 C 
ATOM      4  O   LIG    1       23.256 -21.154   7.907  0.00  0.00    -0.244 OA
ATOM      5  N   LIG    1       25.363 -20.677   7.264  0.00  0.00    -0.232 N 
ATOM      6  C   LIG    1       26.283 -20.356   6.308  0.00  0.00    +0.197 C 
ATOM      7  C   LIG    1       27.485 -20.247   6.984  0.00  0.00    +0.171 C 
ATOM      8  N   LIG    1       27.297 -20.494   8.344  0.00  0.00    -0.228 NA
ATOM      9  N   LIG    1       25.894 -20.214   5.024  0.00  0.00    -0.110 NA
ATOM     10  C   LIG    1       26.011 -20.744   8.467  0.00  0.00    +0.210 C 
ATOM     11  N   LIG    1       24.695 -20.382   4.698  0.00  0.00    -0.060 NA
ENDROOT
BRANCH   7  12
ATOM     12  C   LIG    1       28.788 -19.924   6.415  0.00  0.00    +0.264 C 
ATOM     13  O   LIG    1       29.860 -20.331   6.844  0.00  0.00    -0.269 OA
ATOM     14  N   LIG    1       28.715 -19.103   5.325  0.00  0.00    -0.324 N 
ATOM     15  H   LIG    1       29.563 -18.820   4.861  0.00  0.00    +0.145 HD
ATOM     16  H   LIG    1       27.810 -18.785   4.998  0.00  0.00    +0.145 HD
ENDBRANCH   7  12
TORSDOF 1
ENDMDL
MODEL 3
REMARK VINA RESULT:      -6.4      1.584      1.896
REMARK  Name = *****
REMARK                            x       y       z     vdW  Elec       q    Type
REMARK                         _______ _______ _______ _____ _____    ______ ____
ROOT
ATOM      1  C   LIG    1       23.837 -21.664   7.532  0.00  0.00    +0.179 C 
ATOM      2  N   LIG    1       25.256 -21.384   7.529  0.00  0.00    -0.199 N 
ATOM      3  C   LIG    1       25.820 -20.724   6.453  0.00  0.00    +0.353 C 
ATOM      4  O   LIG    1       25.281 -20.280   5.450  0.00  0.00    -0.244 OA
ATOM      5  N   LIG    1       27.184 -20.587   6.617  0.00  0.00    -0.232 N 
ATOM      6  C   LIG    1       27.866 -21.068   7.698  0.00  0.00    +0.197 C 
ATOM      7  C   LIG    1       29.186 -20.718   7.478  0.00  0.00    +0.171 C 
ATOM      8  N   LIG    1       29.310 -20.037   6.269  0.00  0.00    -0.228 NA
ATOM      9  N   LIG    1       27.202 -21.726   8.671  0.00  0.00    -0.110 NA
ATOM     10  C   LIG    1       28.087 -19.983   5.785  0.00  0.00    +0.210 C 
ATOM     11  N   LIG    1       25.962 -21.894   8.596  0.00  0.00    -0.060 NA
ENDROOT
BRANCH   7  12
ATOM     12  C   LIG    1       30.325 -20.996   8.346  0.00  0.00    +0.264 C 
ATOM     13  O   LIG    1       30.290 -21.711   9.339  0.00  0.00    -0.269 OA
ATOM     14  N   LIG    1       31.474 -20.375   7.948  0.00  0.00    -0.324 N 
ATOM     15  H   LIG    1       32.317 -20.503   8.484  0.00  0.00    +0.145 HD
ATOM     16  H   LIG    1       31.466 -19.790   7.121  0.00  0.00    +0.145 HD
ENDBRANCH   7  12
TORSDOF 1
ENDMDL
MODEL 4
REMARK VINA RESULT:      -6.4      3.365      5.191
REMARK  Name = *****
REMARK                            x       y       z     vdW  Elec       q    Type
REMARK                         _______ _______ _______ _____ _____    ______ ____
ROOT
ATOM      1  C   LIG    1       24.185 -26.261   5.985  0.00  0.00    +0.179 C 
ATOM      2  N   LIG    1       24.571 -24.944   6.443  0.00  0.00    -0.199 N 
ATOM      3  C   LIG    1       23.595 -24.012   6.742  0.00  0.00    +0.353 C 
ATOM      4  O   LIG    1       22.379 -24.130   6.711  0.00  0.00    -0.244 OA
ATOM      5  N   LIG    1       24.159 -22.811   7.121  0.00  0.00    -0.232 N 
ATOM      6  C   LIG    1       25.506 -22.590   7.167  0.00  0.00    +0.197 C 
ATOM      7  C   LIG    1       25.645 -21.283   7.597  0.00  0.00    +0.171 C 
ATOM      8  N   LIG    1       24.392 -20.708   7.805  0.00  0.00    -0.228 NA
ATOM      9  N   LIG    1       26.358 -23.576   6.818  0.00  0.00    -0.110 NA
ATOM     10  C   LIG    1       23.531 -21.657   7.505  0.00  0.00    +0.210 C 
ATOM     11  N   LIG    1       25.925 -24.697   6.460  0.00  0.00    -0.060 NA
ENDROOT
BRANCH   7  12
ATOM     12  C   LIG    1       26.891 -20.558   7.816  0.00  0.00    +0.264 C 
ATOM     13  O   LIG    1       27.184 -19.966   8.847  0.00  0.00    -0.269 OA
ATOM     14  N   LIG    1       27.736 -20.594   6.743  0.00  0.00    -0.324 N 
ATOM     15  H   LIG    1       28.623 -20.120   6.796  0.00  0.00    +0.145 HD
ATOM     16  H   LIG    1       27.460 -21.093   5.906  0.00  0.00    +0.145 HD
ENDBRANCH   7  12
TORSDOF 1
ENDMDL
MODEL 5
REMARK VINA RESULT:      -6.3      3.159      5.168
REMARK  Name = *****
REMARK                            x       y       z     vdW  Elec       q    Type
REMARK                         _______ _______ _______ _____ _____    ______ ____
ROOT
ATOM      1  C   LIG    1       31.909 -15.842  11.775  0.00  0.00    +0.179 C 
ATOM      2  N   LIG    1       31.676 -16.964  10.891  0.00  0.00    -0.199 N 
ATOM      3  C   LIG    1       32.069 -16.884   9.569  0.00  0.00    +0.353 C 
ATOM      4  O   LIG    1       32.644 -15.976   8.987  0.00  0.00    -0.244 OA
ATOM      5  N   LIG    1       31.726 -18.032   8.881  0.00  0.00    -0.232 N 
ATOM      6  C   LIG    1       31.069 -19.084   9.450  0.00  0.00    +0.197 C 
ATOM      7  C   LIG    1       30.931 -20.016   8.437  0.00  0.00    +0.171 C 
ATOM      8  N   LIG    1       31.493 -19.531   7.257  0.00  0.00    -0.228 NA
ATOM      9  N   LIG    1       30.711 -19.027  10.750  0.00  0.00    -0.110 NA
ATOM     10  C   LIG    1       31.955 -18.339   7.567  0.00  0.00    +0.210 C 
ATOM     11  N   LIG    1       30.983 -18.018  11.443  0.00  0.00    -0.060 NA
ENDROOT
BRANCH   7  12
ATOM     12  C   LIG    1       30.298 -21.326   8.529  0.00  0.00    +0.264 C 
ATOM     13  O   LIG    1       29.100 -21.537   8.389  0.00  0.00    -0.269 OA
ATOM     14  N   LIG    1       31.179 -22.337   8.792  0.00  0.00    -0.324 N 
ATOM     15  H   LIG    1       30.838 -23.281   8.876  0.00  0.00    +0.145 HD
ATOM     16  H   LIG    1       32.164 -22.126   8.903  0.00  0.00    +0.145 HD
ENDBRANCH   7  12
TORSDOF 1
ENDMDL
MODEL 6
REMARK VINA RESULT:      -6.3      1.843      5.188
REMARK  Name = *****
REMARK                            x       y       z     vdW  Elec       q    Type
REMARK                         _______ _______ _______ _____ _____    ______ ____
ROOT
ATOM      1  C   LIG    1       31.501 -19.210   7.477  0.00  0.00    +0.179 C 
ATOM      2  N   LIG    1       30.151 -19.595   7.128  0.00  0.00    -0.199 N 
ATOM      3  C   LIG    1       29.533 -20.620   7.820  0.00  0.00    +0.353 C 
ATOM      4  O   LIG    1       29.952 -21.280   8.759  0.00  0.00    -0.244 OA
ATOM      5  N   LIG    1       28.271 -20.864   7.317  0.00  0.00    -0.232 N 
ATOM      6  C   LIG    1       27.734 -20.185   6.262  0.00  0.00    +0.197 C 
ATOM      7  C   LIG    1       26.472 -20.723   6.087  0.00  0.00    +0.171 C 
ATOM      8  N   LIG    1       26.244 -21.730   7.025  0.00  0.00    -0.228 NA
ATOM      9  N   LIG    1       28.455 -19.223   5.648  0.00  0.00    -0.110 NA
ATOM     10  C   LIG    1       27.347 -21.783   7.739  0.00  0.00    +0.210 C 
ATOM     11  N   LIG    1       29.610 -18.942   6.043  0.00  0.00    -0.060 NA
ENDROOT
BRANCH   7  12
ATOM     12  C   LIG    1       25.483 -20.339   5.087  0.00  0.00    +0.264 C 
ATOM     13  O   LIG    1       24.273 -20.307   5.275  0.00  0.00    -0.269 OA
ATOM     14  N   LIG    1       26.032 -20.005   3.882  0.00  0.00    -0.324 N 
ATOM     15  H   LIG    1       25.429 -19.727   3.124  0.00  0.00    +0.145 HD
ATOM     16  H   LIG    1       27.037 -20.044   3.762  0.00  0.00    +0.145 HD
ENDBRANCH   7  12
TORSDOF 1
ENDMDL
MODEL 7
REMARK VINA RESULT:      -6.3      1.851      4.417
REMARK  Name = *****
REMARK                            x       y       z     vdW  Elec       q    Type
REMARK                         _______ _______ _______ _____ _____    ______ ____
ROOT
ATOM      1  C   LIG    1       31.657 -18.845   7.931  0.00  0.00    +0.179 C 
ATOM      2  N   LIG    1       30.399 -19.500   7.646  0.00  0.00    -0.199 N 
ATOM      3  C   LIG    1       29.661 -19.110   6.545  0.00  0.00    +0.353 C 
ATOM      4  O   LIG    1       29.922 -18.270   5.697  0.00  0.00    -0.244 OA
ATOM      5  N   LIG    1       28.479 -19.821   6.467  0.00  0.00    -0.232 N 
ATOM      6  C   LIG    1       28.103 -20.764   7.380  0.00  0.00    +0.197 C 
ATOM      7  C   LIG    1       26.881 -21.233   6.935  0.00  0.00    +0.171 C 
ATOM      8  N   LIG    1       26.510 -20.575   5.763  0.00  0.00    -0.228 NA
ATOM      9  N   LIG    1       28.902 -21.031   8.434  0.00  0.00    -0.110 NA
ATOM     10  C   LIG    1       27.494 -19.736   5.520  0.00  0.00    +0.210 C 
ATOM     11  N   LIG    1       29.991 -20.428   8.579  0.00  0.00    -0.060 NA
ENDROOT
BRANCH   7  12
ATOM     12  C   LIG    1       26.054 -22.259   7.558  0.00  0.00    +0.264 C 
ATOM     13  O   LIG    1       25.838 -23.367   7.083  0.00  0.00    -0.269 OA
ATOM     14  N   LIG    1       25.521 -21.874   8.755  0.00  0.00    -0.324 N 
ATOM     15  H   LIG    1       24.932 -22.514   9.264  0.00  0.00    +0.145 HD
ATOM     16  H   LIG    1       25.721 -20.949   9.117  0.00  0.00    +0.145 HD
ENDBRANCH   7  12
TORSDOF 1
ENDMDL
MODEL 8
REMARK VINA RESULT:      -6.2      2.124      3.237
REMARK  Name = *****
REMARK                            x       y       z     vdW  Elec       q    Type
REMARK                         _______ _______ _______ _____ _____    ______ ____
ROOT
ATOM      1  C   LIG    1       24.002 -22.073   5.486  0.00  0.00    +0.179 C 
ATOM      2  N   LIG    1       25.294 -21.502   5.798  0.00  0.00    -0.199 N 
ATOM      3  C   LIG    1       26.013 -21.987   6.874  0.00  0.00    +0.353 C 
ATOM      4  O   LIG    1       25.737 -22.899   7.640  0.00  0.00    -0.244 OA
ATOM      5  N   LIG    1       27.194 -21.290   7.034  0.00  0.00    -0.232 N 
ATOM      6  C   LIG    1       27.571 -20.249   6.234  0.00  0.00    +0.197 C 
ATOM      7  C   LIG    1       28.801 -19.845   6.720  0.00  0.00    +0.171 C 
ATOM      8  N   LIG    1       29.168 -20.628   7.813  0.00  0.00    -0.228 NA
ATOM      9  N   LIG    1       26.761 -19.849   5.232  0.00  0.00    -0.110 NA
ATOM     10  C   LIG    1       28.176 -21.479   7.969  0.00  0.00    +0.210 C 
ATOM     11  N   LIG    1       25.670 -20.428   5.022  0.00  0.00    -0.060 NA
ENDROOT
BRANCH   7  12
ATOM     12  C   LIG    1       29.635 -18.764   6.209  0.00  0.00    +0.264 C 
ATOM     13  O   LIG    1       30.663 -18.363   6.739  0.00  0.00    -0.269 OA
ATOM     14  N   LIG    1       29.164 -18.217   5.049  0.00  0.00    -0.324 N 
ATOM     15  H   LIG    1       29.670 -17.461   4.618  0.00  0.00    +0.145 HD
ATOM     16  H   LIG    1       28.309 -18.574   4.639  0.00  0.00    +0.145 HD
ENDBRANCH   7  12
TORSDOF 1
ENDMDL
MODEL 9
REMARK VINA RESULT:      -6.1      2.870      6.278
REMARK  Name = *****
REMARK                            x       y       z     vdW  Elec       q    Type
REMARK                         _______ _______ _______ _____ _____    ______ ____
ROOT
ATOM      1  C   LIG    1       29.134 -20.381   6.594  0.00  0.00    +0.179 C 
ATOM      2  N   LIG    1       27.691 -20.461   6.547  0.00  0.00    -0.199 N 
ATOM      3  C   LIG    1       27.004 -21.037   7.599  0.00  0.00    +0.353 C 
ATOM      4  O   LIG    1       27.438 -21.495   8.646  0.00  0.00    -0.244 OA
ATOM      5  N   LIG    1       25.646 -21.056   7.351  0.00  0.00    -0.232 N 
ATOM      6  C   LIG    1       25.082 -20.581   6.202  0.00  0.00    +0.197 C 
ATOM      7  C   LIG    1       23.722 -20.778   6.358  0.00  0.00    +0.171 C 
ATOM      8  N   LIG    1       23.459 -21.376   7.590  0.00  0.00    -0.228 NA
ATOM      9  N   LIG    1       25.867 -20.069   5.232  0.00  0.00    -0.110 NA
ATOM     10  C   LIG    1       24.640 -21.527   8.151  0.00  0.00    +0.210 C 
ATOM     11  N   LIG    1       27.111 -20.018   5.379  0.00  0.00    -0.060 NA
ENDROOT
BRANCH   7  12
ATOM     12  C   LIG    1       22.670 -20.434   5.409  0.00  0.00    +0.264 C 
ATOM     13  O   LIG    1       22.396 -19.296   5.049  0.00  0.00    -0.269 OA
ATOM     14  N   LIG    1       21.990 -21.521   4.935  0.00  0.00    -0.324 N 
ATOM     15  H   LIG    1       21.241 -21.387   4.275  0.00  0.00    +0.145 HD
ATOM     16  H   LIG    1       22.243 -22.448   5.256  0.00  0.00    +0.145 HD
ENDBRANCH   7  12
TORSDOF 1
ENDMDL
