MODEL 1
REMARK VINA RESULT:      -3.4      0.000      0.000
REMARK  Name = *****
REMARK                            x       y       z     vdW  Elec       q    Type
REMARK                         _______ _______ _______ _____ _____    ______ ____
ROOT
ATOM      1  C   LIG    1       22.583 -18.214   4.869  0.00  0.00    +0.046 C 
ATOM      2  C   LIG    1       21.430 -18.779   3.961  0.00  0.00    +0.124 C 
ATOM      3  C   LIG    1       21.906 -20.124   3.414  0.00  0.00    +0.063 C 
ATOM      4  C   LIG    1       23.369 -20.201   3.822  0.00  0.00    +0.121 C 
ATOM      5  C   LIG    1       23.458 -19.457   5.170  0.00  0.00    +0.031 C 
ENDROOT
BRANCH   4   6
ATOM      6  O   LIG    1       23.798 -21.546   3.890  0.00  0.00    -0.391 OA
ATOM      7  H   LIG    1       23.414 -21.929   4.698  0.00  0.00    +0.210 HD
ENDBRANCH   4   6
BRANCH   2   8
ATOM      8  O   LIG    1       21.055 -17.905   2.901  0.00  0.00    -0.391 OA
ATOM      9  H   LIG    1       20.085 -17.920   2.820  0.00  0.00    +0.210 HD
ENDBRANCH   2   8
BRANCH   1  11
ATOM     10  C   LIG    1       23.381 -15.756   4.570  0.00  0.00    +0.003 C 
ATOM     11  C   LIG    1       23.348 -17.057   4.216  0.00  0.00    -0.022 C 
BRANCH  10  12
ATOM     12  C   LIG    1       24.190 -14.611   3.977  0.00  0.00    +0.081 C 
ATOM     13  C   LIG    1       23.201 -13.680   3.217  0.00  0.00    +0.046 C 
BRANCH  12  14
ATOM     14  O   LIG    1       24.711 -13.854   5.075  0.00  0.00    -0.385 OA
ATOM     15  H   LIG    1       25.608 -13.560   4.838  0.00  0.00    +0.211 HD
ENDBRANCH  12  14
BRANCH  12  16
ATOM     16  C   LIG    1       25.398 -14.960   3.053  0.00  0.00    +0.039 C 
BRANCH  16  17
ATOM     17  C   LIG    1       26.265 -13.770   2.569  0.00  0.00    +0.003 C 
BRANCH  17  18
ATOM     18  C   LIG    1       27.771 -13.941   2.817  0.00  0.00    -0.000 C 
BRANCH  18  20
ATOM     19  C   LIG    1       27.469 -13.094   5.277  0.00  0.00    +0.004 C 
ATOM     20  C   LIG    1       28.331 -13.150   4.019  0.00  0.00    -0.003 C 
ENDBRANCH  18  20
ENDBRANCH  17  18
ENDBRANCH  16  17
ENDBRANCH  12  16
ENDBRANCH  10  12
ENDBRANCH   1  11
BRANCH   5  21
ATOM     21  C   LIG    1       23.052 -20.321   6.383  0.00  0.00    +0.033 C 
BRANCH  21  22
ATOM     22  C   LIG    1       23.992 -21.436   6.774  0.00  0.00    -0.031 C 
ATOM     23  C   LIG    1       25.326 -21.454   6.962  0.00  0.00    -0.031 C 
BRANCH  23  24
ATOM     24  C   LIG    1       26.336 -20.343   7.062  0.00  0.00    +0.027 C 
BRANCH  24  25
ATOM     25  C   LIG    1       27.732 -20.637   6.498  0.00  0.00    +0.015 C 
BRANCH  25  26
ATOM     26  C   LIG    1       27.953 -19.866   5.187  0.00  0.00    +0.121 C 
BRANCH  26  27
ATOM     27  C   LIG    1       28.689 -18.586   5.378  0.00  0.00    +0.305 C 
ATOM     28  O   LIG    1       29.474 -18.307   6.318  0.00  0.00    -0.251 OA
BRANCH  27  29
ATOM     29  O   LIG    1       28.409 -17.681   4.426  0.00  0.00    -0.481 OA
ATOM     30  H   LIG    1       27.514 -17.345   4.654  0.00  0.00    +0.295 HD
ENDBRANCH  27  29
ENDBRANCH  26  27
ENDBRANCH  25  26
ENDBRANCH  24  25
ENDBRANCH  23  24
ENDBRANCH  21  22
ENDBRANCH   5  21
TORSDOF 16
ENDMDL
MODEL 2
REMARK VINA RESULT:      -3.4      1.952      4.739
REMARK  Name = *****
REMARK                            x       y       z     vdW  Elec       q    Type
REMARK                         _______ _______ _______ _____ _____    ______ ____
ROOT
ATOM      1  C   LIG    1       26.659 -18.870   4.068  0.00  0.00    +0.046 C 
ATOM      2  C   LIG    1       27.964 -19.438   4.739  0.00  0.00    +0.124 C 
ATOM      3  C   LIG    1       27.539 -20.138   6.029  0.00  0.00    +0.063 C 
ATOM      4  C   LIG    1       26.070 -19.775   6.189  0.00  0.00    +0.121 C 
ATOM      5  C   LIG    1       25.517 -19.663   4.753  0.00  0.00    +0.031 C 
ENDROOT
BRANCH   4   6
ATOM      6  O   LIG    1       25.401 -20.740   6.977  0.00  0.00    -0.391 OA
ATOM      7  H   LIG    1       24.733 -21.161   6.409  0.00  0.00    +0.210 HD
ENDBRANCH   4   6
BRANCH   2   8
ATOM      8  O   LIG    1       28.951 -18.446   5.002  0.00  0.00    -0.391 OA
ATOM      9  H   LIG    1       29.720 -18.879   5.413  0.00  0.00    +0.210 HD
ENDBRANCH   2   8
BRANCH   1  11
ATOM     10  C   LIG    1       27.153 -16.379   3.505  0.00  0.00    +0.003 C 
ATOM     11  C   LIG    1       26.528 -17.348   4.204  0.00  0.00    -0.022 C 
BRANCH  10  12
ATOM     12  C   LIG    1       26.982 -14.868   3.578  0.00  0.00    +0.081 C 
ATOM     13  C   LIG    1       26.481 -14.519   5.009  0.00  0.00    +0.046 C 
BRANCH  12  14
ATOM     14  O   LIG    1       28.286 -14.293   3.442  0.00  0.00    -0.385 OA
ATOM     15  H   LIG    1       28.518 -14.293   2.497  0.00  0.00    +0.211 HD
ENDBRANCH  12  14
BRANCH  12  16
ATOM     16  C   LIG    1       26.068 -14.176   2.518  0.00  0.00    +0.039 C 
BRANCH  16  17
ATOM     17  C   LIG    1       26.074 -12.627   2.508  0.00  0.00    +0.003 C 
BRANCH  17  18
ATOM     18  C   LIG    1       24.759 -11.991   2.031  0.00  0.00    -0.000 C 
BRANCH  18  20
ATOM     19  C   LIG    1       24.157 -11.692   4.562  0.00  0.00    +0.004 C 
ATOM     20  C   LIG    1       23.677 -11.830   3.120  0.00  0.00    -0.003 C 
ENDBRANCH  18  20
ENDBRANCH  17  18
ENDBRANCH  16  17
ENDBRANCH  12  16
ENDBRANCH  10  12
ENDBRANCH   1  11
BRANCH   5  21
ATOM     21  C   LIG    1       25.136 -21.022   4.128  0.00  0.00    +0.033 C 
BRANCH  21  22
ATOM     22  C   LIG    1       23.680 -21.414   4.178  0.00  0.00    -0.031 C 
ATOM     23  C   LIG    1       22.613 -20.817   4.745  0.00  0.00    -0.031 C 
BRANCH  23  24
ATOM     24  C   LIG    1       22.437 -19.449   5.347  0.00  0.00    +0.027 C 
BRANCH  24  25
ATOM     25  C   LIG    1       21.827 -18.376   4.436  0.00  0.00    +0.015 C 
BRANCH  25  26
ATOM     26  C   LIG    1       22.869 -17.296   4.108  0.00  0.00    +0.121 C 
BRANCH  26  27
ATOM     27  C   LIG    1       22.612 -16.004   4.802  0.00  0.00    +0.305 C 
ATOM     28  O   LIG    1       21.872 -15.826   5.801  0.00  0.00    -0.251 OA
BRANCH  27  29
ATOM     29  O   LIG    1       23.249 -14.971   4.225  0.00  0.00    -0.481 OA
ATOM     30  H   LIG    1       24.066 -15.363   3.842  0.00  0.00    +0.295 HD
ENDBRANCH  27  29
ENDBRANCH  26  27
ENDBRANCH  25  26
ENDBRANCH  24  25
ENDBRANCH  23  24
ENDBRANCH  21  22
ENDBRANCH   5  21
TORSDOF 16
ENDMDL
MODEL 3
REMARK VINA RESULT:      -2.7      1.738      2.526
REMARK  Name = *****
REMARK                            x       y       z     vdW  Elec       q    Type
REMARK                         _______ _______ _______ _____ _____    ______ ____
ROOT
ATOM      1  C   LIG    1       24.829 -17.938   4.215  0.00  0.00    +0.046 C 
ATOM      2  C   LIG    1       23.270 -18.029   4.407  0.00  0.00    +0.124 C 
ATOM      3  C   LIG    1       22.769 -19.142   3.489  0.00  0.00    +0.063 C 
ATOM      4  C   LIG    1       23.979 -19.508   2.642  0.00  0.00    +0.121 C 
ATOM      5  C   LIG    1       25.201 -19.291   3.559  0.00  0.00    +0.031 C 
ENDROOT
BRANCH   4   6
ATOM      6  O   LIG    1       23.866 -20.830   2.154  0.00  0.00    -0.391 OA
ATOM      7  H   LIG    1       24.356 -21.404   2.768  0.00  0.00    +0.210 HD
ENDBRANCH   4   6
BRANCH   2   8
ATOM      8  O   LIG    1       22.588 -16.807   4.143  0.00  0.00    -0.391 OA
ATOM      9  H   LIG    1       23.220 -16.184   3.743  0.00  0.00    +0.210 HD
ENDBRANCH   2   8
BRANCH   1  11
ATOM     10  C   LIG    1       25.787 -15.548   3.837  0.00  0.00    +0.003 C 
ATOM     11  C   LIG    1       25.262 -16.712   3.401  0.00  0.00    -0.022 C 
BRANCH  10  12
ATOM     12  C   LIG    1       26.288 -14.353   3.040  0.00  0.00    +0.081 C 
ATOM     13  C   LIG    1       26.989 -13.382   4.034  0.00  0.00    +0.046 C 
BRANCH  12  14
ATOM     14  O   LIG    1       27.299 -14.836   2.149  0.00  0.00    -0.385 OA
ATOM     15  H   LIG    1       27.254 -15.809   2.143  0.00  0.00    +0.211 HD
ENDBRANCH  12  14
BRANCH  12  16
ATOM     16  C   LIG    1       25.259 -13.561   2.171  0.00  0.00    +0.039 C 
BRANCH  16  17
ATOM     17  C   LIG    1       23.891 -13.253   2.831  0.00  0.00    +0.003 C 
BRANCH  17  18
ATOM     18  C   LIG    1       23.752 -11.817   3.360  0.00  0.00    -0.000 C 
BRANCH  18  20
ATOM     19  C   LIG    1       24.738 -11.683   5.782  0.00  0.00    +0.004 C 
ATOM     20  C   LIG    1       23.508 -11.701   4.880  0.00  0.00    -0.003 C 
ENDBRANCH  18  20
ENDBRANCH  17  18
ENDBRANCH  16  17
ENDBRANCH  12  16
ENDBRANCH  10  12
ENDBRANCH   1  11
BRANCH   5  21
ATOM     21  C   LIG    1       25.480 -20.476   4.508  0.00  0.00    +0.033 C 
BRANCH  21  22
ATOM     22  C   LIG    1       25.415 -20.195   5.990  0.00  0.00    -0.031 C 
ATOM     23  C   LIG    1       26.171 -20.635   7.015  0.00  0.00    -0.031 C 
BRANCH  23  24
ATOM     24  C   LIG    1       27.474 -21.386   7.045  0.00  0.00    +0.027 C 
BRANCH  24  25
ATOM     25  C   LIG    1       28.627 -20.788   6.230  0.00  0.00    +0.015 C 
BRANCH  25  26
ATOM     26  C   LIG    1       29.017 -19.409   6.786  0.00  0.00    +0.121 C 
BRANCH  26  27
ATOM     27  C   LIG    1       28.942 -18.325   5.768  0.00  0.00    +0.305 C 
ATOM     28  O   LIG    1       29.470 -17.189   5.845  0.00  0.00    -0.251 OA
BRANCH  27  29
ATOM     29  O   LIG    1       28.193 -18.664   4.705  0.00  0.00    -0.481 OA
ATOM     30  H   LIG    1       27.383 -19.070   5.088  0.00  0.00    +0.295 HD
ENDBRANCH  27  29
ENDBRANCH  26  27
ENDBRANCH  25  26
ENDBRANCH  24  25
ENDBRANCH  23  24
ENDBRANCH  21  22
ENDBRANCH   5  21
TORSDOF 16
ENDMDL
MODEL 4
REMARK VINA RESULT:      -2.6      1.880      5.012
REMARK  Name = *****
REMARK                            x       y       z     vdW  Elec       q    Type
REMARK                         _______ _______ _______ _____ _____    ______ ____
ROOT
ATOM      1  C   LIG    1       27.345 -18.994   4.428  0.00  0.00    +0.046 C 
ATOM      2  C   LIG    1       28.531 -19.595   5.269  0.00  0.00    +0.124 C 
ATOM      3  C   LIG    1       27.912 -20.325   6.460  0.00  0.00    +0.063 C 
ATOM      4  C   LIG    1       26.438 -19.950   6.410  0.00  0.00    +0.121 C 
ATOM      5  C   LIG    1       26.108 -19.791   4.911  0.00  0.00    +0.031 C 
ENDROOT
BRANCH   4   6
ATOM      6  O   LIG    1       25.651 -20.927   7.061  0.00  0.00    -0.391 OA
ATOM      7  H   LIG    1       25.240 -20.497   7.831  0.00  0.00    +0.210 HD
ENDBRANCH   4   6
BRANCH   2   8
ATOM      8  O   LIG    1       29.475 -18.623   5.706  0.00  0.00    -0.391 OA
ATOM      9  H   LIG    1       29.493 -18.628   6.679  0.00  0.00    +0.210 HD
ENDBRANCH   2   8
BRANCH   1  11
ATOM     10  C   LIG    1       27.061 -16.533   3.633  0.00  0.00    +0.003 C 
ATOM     11  C   LIG    1       27.208 -17.474   4.587  0.00  0.00    -0.022 C 
BRANCH  10  12
ATOM     12  C   LIG    1       26.853 -15.032   3.777  0.00  0.00    +0.081 C 
ATOM     13  C   LIG    1       25.471 -14.811   4.458  0.00  0.00    +0.046 C 
BRANCH  12  14
ATOM     14  O   LIG    1       27.847 -14.557   4.690  0.00  0.00    -0.385 OA
ATOM     15  H   LIG    1       28.722 -14.729   4.299  0.00  0.00    +0.211 HD
ENDBRANCH  12  14
BRANCH  12  16
ATOM     16  C   LIG    1       26.953 -14.146   2.495  0.00  0.00    +0.039 C 
BRANCH  16  17
ATOM     17  C   LIG    1       26.244 -12.770   2.549  0.00  0.00    +0.003 C 
BRANCH  17  18
ATOM     18  C   LIG    1       24.896 -12.722   1.812  0.00  0.00    -0.000 C 
BRANCH  18  20
ATOM     19  C   LIG    1       23.955 -11.545   3.954  0.00  0.00    +0.004 C 
ATOM     20  C   LIG    1       23.829 -11.812   2.457  0.00  0.00    -0.003 C 
ENDBRANCH  18  20
ENDBRANCH  17  18
ENDBRANCH  16  17
ENDBRANCH  12  16
ENDBRANCH  10  12
ENDBRANCH   1  11
BRANCH   5  21
ATOM     21  C   LIG    1       25.814 -21.127   4.196  0.00  0.00    +0.033 C 
BRANCH  21  22
ATOM     22  C   LIG    1       24.742 -21.115   3.134  0.00  0.00    -0.031 C 
ATOM     23  C   LIG    1       23.749 -20.240   2.878  0.00  0.00    -0.031 C 
BRANCH  23  24
ATOM     24  C   LIG    1       23.472 -18.860   3.410  0.00  0.00    +0.027 C 
BRANCH  24  25
ATOM     25  C   LIG    1       22.181 -18.688   4.222  0.00  0.00    +0.015 C 
BRANCH  25  26
ATOM     26  C   LIG    1       22.400 -19.134   5.676  0.00  0.00    +0.121 C 
BRANCH  26  27
ATOM     27  C   LIG    1       22.392 -20.614   5.842  0.00  0.00    +0.305 C 
ATOM     28  O   LIG    1       21.813 -21.447   5.102  0.00  0.00    -0.251 OA
BRANCH  27  29
ATOM     29  O   LIG    1       23.068 -21.015   6.931  0.00  0.00    -0.481 OA
ATOM     30  H   LIG    1       24.013 -20.854   6.713  0.00  0.00    +0.295 HD
ENDBRANCH  27  29
ENDBRANCH  26  27
ENDBRANCH  25  26
ENDBRANCH  24  25
ENDBRANCH  23  24
ENDBRANCH  21  22
ENDBRANCH   5  21
TORSDOF 16
ENDMDL
MODEL 5
REMARK VINA RESULT:      -2.3      1.891      6.070
REMARK  Name = *****
REMARK                            x       y       z     vdW  Elec       q    Type
REMARK                         _______ _______ _______ _____ _____    ______ ____
ROOT
ATOM      1  C   LIG    1       23.569 -17.858   3.724  0.00  0.00    +0.046 C 
ATOM      2  C   LIG    1       22.095 -18.406   3.730  0.00  0.00    +0.124 C 
ATOM      3  C   LIG    1       21.307 -17.567   4.735  0.00  0.00    +0.063 C 
ATOM      4  C   LIG    1       22.363 -16.725   5.434  0.00  0.00    +0.121 C 
ATOM      5  C   LIG    1       23.443 -16.453   4.366  0.00  0.00    +0.031 C 
ENDROOT
BRANCH   4   6
ATOM      6  O   LIG    1       21.790 -15.548   5.969  0.00  0.00    -0.391 OA
ATOM      7  H   LIG    1       21.336 -15.094   5.238  0.00  0.00    +0.210 HD
ENDBRANCH   4   6
BRANCH   2   8
ATOM      8  O   LIG    1       22.001 -19.792   4.043  0.00  0.00    -0.391 OA
ATOM      9  H   LIG    1       21.245 -19.921   4.644  0.00  0.00    +0.210 HD
ENDBRANCH   2   8
BRANCH   1  11
ATOM     10  C   LIG    1       24.310 -19.721   5.382  0.00  0.00    +0.003 C 
ATOM     11  C   LIG    1       24.557 -18.785   4.443  0.00  0.00    -0.022 C 
BRANCH  10  12
ATOM     12  C   LIG    1       25.267 -20.697   6.052  0.00  0.00    +0.081 C 
ATOM     13  C   LIG    1       24.436 -21.572   7.035  0.00  0.00    +0.046 C 
BRANCH  12  14
ATOM     14  O   LIG    1       25.756 -21.571   5.030  0.00  0.00    -0.385 OA
ATOM     15  H   LIG    1       26.410 -21.079   4.501  0.00  0.00    +0.211 HD
ENDBRANCH  12  14
BRANCH  12  16
ATOM     16  C   LIG    1       26.515 -20.118   6.791  0.00  0.00    +0.039 C 
BRANCH  16  17
ATOM     17  C   LIG    1       27.701 -21.091   7.008  0.00  0.00    +0.003 C 
BRANCH  17  18
ATOM     18  C   LIG    1       29.080 -20.488   6.698  0.00  0.00    -0.000 C 
BRANCH  18  20
ATOM     19  C   LIG    1       29.465 -18.281   5.342  0.00  0.00    +0.004 C 
ATOM     20  C   LIG    1       29.129 -18.945   6.673  0.00  0.00    -0.003 C 
ENDBRANCH  18  20
ENDBRANCH  17  18
ENDBRANCH  16  17
ENDBRANCH  12  16
ENDBRANCH  10  12
ENDBRANCH   1  11
BRANCH   5  21
ATOM     21  C   LIG    1       23.101 -15.281   3.423  0.00  0.00    +0.033 C 
BRANCH  21  22
ATOM     22  C   LIG    1       23.755 -13.953   3.718  0.00  0.00    -0.031 C 
ATOM     23  C   LIG    1       25.003 -13.501   3.486  0.00  0.00    -0.031 C 
BRANCH  23  24
ATOM     24  C   LIG    1       26.133 -14.063   2.666  0.00  0.00    +0.027 C 
BRANCH  24  25
ATOM     25  C   LIG    1       27.327 -14.628   3.446  0.00  0.00    +0.015 C 
BRANCH  25  26
ATOM     26  C   LIG    1       28.357 -13.522   3.722  0.00  0.00    +0.121 C 
BRANCH  26  27
ATOM     27  C   LIG    1       28.220 -12.919   5.077  0.00  0.00    +0.305 C 
ATOM     28  O   LIG    1       27.467 -13.316   6.000  0.00  0.00    -0.251 OA
BRANCH  27  29
ATOM     29  O   LIG    1       28.988 -11.828   5.237  0.00  0.00    -0.481 OA
ATOM     30  H   LIG    1       29.894 -12.179   5.386  0.00  0.00    +0.295 HD
ENDBRANCH  27  29
ENDBRANCH  26  27
ENDBRANCH  25  26
ENDBRANCH  24  25
ENDBRANCH  23  24
ENDBRANCH  21  22
ENDBRANCH   5  21
TORSDOF 16
ENDMDL
MODEL 6
REMARK VINA RESULT:      -1.7      1.890      6.598
REMARK  Name = *****
REMARK                            x       y       z     vdW  Elec       q    Type
REMARK                         _______ _______ _______ _____ _____    ______ ____
ROOT
ATOM      1  C   LIG    1       25.641 -15.373   4.202  0.00  0.00    +0.046 C 
ATOM      2  C   LIG    1       26.957 -14.512   4.258  0.00  0.00    +0.124 C 
ATOM      3  C   LIG    1       26.821 -13.415   3.203  0.00  0.00    +0.063 C 
ATOM      4  C   LIG    1       25.568 -13.790   2.427  0.00  0.00    +0.121 C 
ATOM      5  C   LIG    1       24.635 -14.461   3.456  0.00  0.00    +0.031 C 
ENDROOT
BRANCH   4   6
ATOM      6  O   LIG    1       25.002 -12.649   1.812  0.00  0.00    -0.391 OA
ATOM      7  H   LIG    1       25.726 -12.017   1.660  0.00  0.00    +0.210 HD
ENDBRANCH   4   6
BRANCH   2   8
ATOM      8  O   LIG    1       28.146 -15.269   4.052  0.00  0.00    -0.391 OA
ATOM      9  H   LIG    1       28.098 -16.071   4.602  0.00  0.00    +0.210 HD
ENDBRANCH   2   8
BRANCH   1  11
ATOM     10  C   LIG    1       25.490 -17.962   3.993  0.00  0.00    +0.003 C 
ATOM     11  C   LIG    1       25.848 -16.742   3.543  0.00  0.00    -0.022 C 
BRANCH  10  12
ATOM     12  C   LIG    1       25.624 -19.321   3.321  0.00  0.00    +0.081 C 
ATOM     13  C   LIG    1       24.254 -19.658   2.664  0.00  0.00    +0.046 C 
BRANCH  12  14
ATOM     14  O   LIG    1       26.569 -19.170   2.256  0.00  0.00    -0.385 OA
ATOM     15  H   LIG    1       27.204 -18.478   2.514  0.00  0.00    +0.211 HD
ENDBRANCH  12  14
BRANCH  12  16
ATOM     16  C   LIG    1       26.103 -20.529   4.186  0.00  0.00    +0.039 C 
BRANCH  16  17
ATOM     17  C   LIG    1       26.099 -20.324   5.721  0.00  0.00    +0.003 C 
BRANCH  17  18
ATOM     18  C   LIG    1       27.448 -20.606   6.402  0.00  0.00    -0.000 C 
BRANCH  18  20
ATOM     19  C   LIG    1       28.926 -18.584   5.636  0.00  0.00    +0.004 C 
ATOM     20  C   LIG    1       28.686 -20.091   5.638  0.00  0.00    -0.003 C 
ENDBRANCH  18  20
ENDBRANCH  17  18
ENDBRANCH  16  17
ENDBRANCH  12  16
ENDBRANCH  10  12
ENDBRANCH   1  11
BRANCH   5  21
ATOM     21  C   LIG    1       23.832 -13.458   4.312  0.00  0.00    +0.033 C 
BRANCH  21  22
ATOM     22  C   LIG    1       23.076 -14.017   5.492  0.00  0.00    -0.031 C 
ATOM     23  C   LIG    1       22.303 -15.113   5.620  0.00  0.00    -0.031 C 
BRANCH  23  24
ATOM     24  C   LIG    1       22.080 -16.290   4.708  0.00  0.00    +0.027 C 
BRANCH  24  25
ATOM     25  C   LIG    1       22.586 -17.648   5.210  0.00  0.00    +0.015 C 
BRANCH  25  26
ATOM     26  C   LIG    1       21.856 -18.792   4.489  0.00  0.00    +0.121 C 
BRANCH  26  27
ATOM     27  C   LIG    1       22.102 -20.124   5.106  0.00  0.00    +0.305 C 
ATOM     28  O   LIG    1       22.889 -20.377   6.051  0.00  0.00    -0.251 OA
BRANCH  27  29
ATOM     29  O   LIG    1       21.398 -21.105   4.517  0.00  0.00    -0.481 OA
ATOM     30  H   LIG    1       20.929 -20.664   3.773  0.00  0.00    +0.295 HD
ENDBRANCH  27  29
ENDBRANCH  26  27
ENDBRANCH  25  26
ENDBRANCH  24  25
ENDBRANCH  23  24
ENDBRANCH  21  22
ENDBRANCH   5  21
TORSDOF 16
ENDMDL
MODEL 7
REMARK VINA RESULT:      -1.5      1.743      2.947
REMARK  Name = *****
REMARK                            x       y       z     vdW  Elec       q    Type
REMARK                         _______ _______ _______ _____ _____    ______ ____
ROOT
ATOM      1  C   LIG    1       23.957 -17.014   4.392  0.00  0.00    +0.046 C 
ATOM      2  C   LIG    1       22.731 -16.567   5.271  0.00  0.00    +0.124 C 
ATOM      3  C   LIG    1       21.483 -17.197   4.656  0.00  0.00    +0.063 C 
ATOM      4  C   LIG    1       21.968 -17.792   3.342  0.00  0.00    +0.121 C 
ATOM      5  C   LIG    1       23.421 -18.238   3.607  0.00  0.00    +0.031 C 
ENDROOT
BRANCH   4   6
ATOM      6  O   LIG    1       21.121 -18.846   2.929  0.00  0.00    -0.391 OA
ATOM      7  H   LIG    1       20.224 -18.477   2.847  0.00  0.00    +0.210 HD
ENDBRANCH   4   6
BRANCH   2   8
ATOM      8  O   LIG    1       22.587 -15.154   5.375  0.00  0.00    -0.391 OA
ATOM      9  H   LIG    1       22.784 -14.893   6.292  0.00  0.00    +0.210 HD
ENDBRANCH   2   8
BRANCH   1  11
ATOM     10  C   LIG    1       25.552 -15.076   3.708  0.00  0.00    +0.003 C 
ATOM     11  C   LIG    1       24.497 -15.890   3.500  0.00  0.00    -0.022 C 
BRANCH  10  12
ATOM     12  C   LIG    1       26.144 -14.006   2.802  0.00  0.00    +0.081 C 
ATOM     13  C   LIG    1       26.894 -12.985   3.706  0.00  0.00    +0.046 C 
BRANCH  12  14
ATOM     14  O   LIG    1       27.133 -14.645   1.988  0.00  0.00    -0.385 OA
ATOM     15  H   LIG    1       26.702 -15.377   1.512  0.00  0.00    +0.211 HD
ENDBRANCH  12  14
BRANCH  12  16
ATOM     16  C   LIG    1       25.183 -13.244   1.835  0.00  0.00    +0.039 C 
BRANCH  16  17
ATOM     17  C   LIG    1       24.806 -11.796   2.236  0.00  0.00    +0.003 C 
BRANCH  17  18
ATOM     18  C   LIG    1       23.690 -11.701   3.289  0.00  0.00    -0.000 C 
BRANCH  18  20
ATOM     19  C   LIG    1       23.274 -11.447   5.862  0.00  0.00    +0.004 C 
ATOM     20  C   LIG    1       24.127 -12.020   4.735  0.00  0.00    -0.003 C 
ENDBRANCH  18  20
ENDBRANCH  17  18
ENDBRANCH  16  17
ENDBRANCH  12  16
ENDBRANCH  10  12
ENDBRANCH   1  11
BRANCH   5  21
ATOM     21  C   LIG    1       23.532 -19.614   4.296  0.00  0.00    +0.033 C 
BRANCH  21  22
ATOM     22  C   LIG    1       22.917 -19.744   5.668  0.00  0.00    -0.031 C 
ATOM     23  C   LIG    1       23.287 -20.458   6.749  0.00  0.00    -0.031 C 
BRANCH  23  24
ATOM     24  C   LIG    1       24.550 -21.215   7.061  0.00  0.00    +0.027 C 
BRANCH  24  25
ATOM     25  C   LIG    1       25.851 -20.404   7.054  0.00  0.00    +0.015 C 
BRANCH  25  26
ATOM     26  C   LIG    1       27.030 -21.286   6.614  0.00  0.00    +0.121 C 
BRANCH  26  27
ATOM     27  C   LIG    1       28.222 -20.501   6.190  0.00  0.00    +0.305 C 
ATOM     28  O   LIG    1       29.365 -20.537   6.710  0.00  0.00    -0.251 OA
BRANCH  27  29
ATOM     29  O   LIG    1       27.959 -19.674   5.164  0.00  0.00    -0.481 OA
ATOM     30  H   LIG    1       26.985 -19.546   5.189  0.00  0.00    +0.295 HD
ENDBRANCH  27  29
ENDBRANCH  26  27
ENDBRANCH  25  26
ENDBRANCH  24  25
ENDBRANCH  23  24
ENDBRANCH  21  22
ENDBRANCH   5  21
TORSDOF 16
ENDMDL
MODEL 8
REMARK VINA RESULT:      -1.3      1.639      7.083
REMARK  Name = *****
REMARK                            x       y       z     vdW  Elec       q    Type
REMARK                         _______ _______ _______ _____ _____    ______ ____
ROOT
ATOM      1  C   LIG    1       27.194 -14.384   4.719  0.00  0.00    +0.046 C 
ATOM      2  C   LIG    1       27.932 -13.211   3.974  0.00  0.00    +0.124 C 
ATOM      3  C   LIG    1       27.153 -12.935   2.689  0.00  0.00    +0.063 C 
ATOM      4  C   LIG    1       26.143 -14.069   2.607  0.00  0.00    +0.121 C 
ATOM      5  C   LIG    1       25.787 -14.407   4.070  0.00  0.00    +0.031 C 
ENDROOT
BRANCH   4   6
ATOM      6  O   LIG    1       25.027 -13.688   1.827  0.00  0.00    -0.391 OA
ATOM      7  H   LIG    1       25.359 -13.122   1.109  0.00  0.00    +0.210 HD
ENDBRANCH   4   6
BRANCH   2   8
ATOM      8  O   LIG    1       29.300 -13.485   3.689  0.00  0.00    -0.391 OA
ATOM      9  H   LIG    1       29.340 -14.218   3.050  0.00  0.00    +0.210 HD
ENDBRANCH   2   8
BRANCH   1  11
ATOM     10  C   LIG    1       27.748 -16.852   5.331  0.00  0.00    +0.003 C 
ATOM     11  C   LIG    1       27.944 -15.719   4.626  0.00  0.00    -0.022 C 
BRANCH  10  12
ATOM     12  C   LIG    1       28.434 -18.204   5.203  0.00  0.00    +0.081 C 
ATOM     13  C   LIG    1       27.397 -19.205   4.616  0.00  0.00    +0.046 C 
BRANCH  12  14
ATOM     14  O   LIG    1       29.469 -18.057   4.225  0.00  0.00    -0.385 OA
ATOM     15  H   LIG    1       29.057 -18.096   3.343  0.00  0.00    +0.211 HD
ENDBRANCH  12  14
BRANCH  12  16
ATOM     16  C   LIG    1       29.097 -18.820   6.476  0.00  0.00    +0.039 C 
BRANCH  16  17
ATOM     17  C   LIG    1       29.475 -20.321   6.399  0.00  0.00    +0.003 C 
BRANCH  17  18
ATOM     18  C   LIG    1       28.439 -21.268   7.026  0.00  0.00    -0.000 C 
BRANCH  18  20
ATOM     19  C   LIG    1       25.949 -21.503   6.250  0.00  0.00    +0.004 C 
ATOM     20  C   LIG    1       26.992 -20.730   7.051  0.00  0.00    -0.003 C 
ENDBRANCH  18  20
ENDBRANCH  17  18
ENDBRANCH  16  17
ENDBRANCH  12  16
ENDBRANCH  10  12
ENDBRANCH   1  11
BRANCH   5  21
ATOM     21  C   LIG    1       24.720 -13.473   4.679  0.00  0.00    +0.033 C 
BRANCH  21  22
ATOM     22  C   LIG    1       23.547 -14.129   5.364  0.00  0.00    -0.031 C 
ATOM     23  C   LIG    1       22.848 -15.243   5.069  0.00  0.00    -0.031 C 
BRANCH  23  24
ATOM     24  C   LIG    1       23.105 -16.350   4.083  0.00  0.00    +0.027 C 
BRANCH  24  25
ATOM     25  C   LIG    1       22.490 -17.716   4.415  0.00  0.00    +0.015 C 
BRANCH  25  26
ATOM     26  C   LIG    1       23.461 -18.846   4.042  0.00  0.00    +0.121 C 
BRANCH  26  27
ATOM     27  C   LIG    1       22.921 -20.203   4.334  0.00  0.00    +0.305 C 
ATOM     28  O   LIG    1       21.798 -20.470   4.827  0.00  0.00    -0.251 OA
BRANCH  27  29
ATOM     29  O   LIG    1       23.794 -21.181   4.041  0.00  0.00    -0.481 OA
ATOM     30  H   LIG    1       24.463 -20.754   3.461  0.00  0.00    +0.295 HD
ENDBRANCH  27  29
ENDBRANCH  26  27
ENDBRANCH  25  26
ENDBRANCH  24  25
ENDBRANCH  23  24
ENDBRANCH  21  22
ENDBRANCH   5  21
TORSDOF 16
ENDMDL
MODEL 9
REMARK VINA RESULT:      -1.2      1.448      2.370
REMARK  Name = *****
REMARK                            x       y       z     vdW  Elec       q    Type
REMARK                         _______ _______ _______ _____ _____    ______ ____
ROOT
ATOM      1  C   LIG    1       23.621 -16.924   4.442  0.00  0.00    +0.046 C 
ATOM      2  C   LIG    1       22.431 -16.650   5.434  0.00  0.00    +0.124 C 
ATOM      3  C   LIG    1       21.208 -17.380   4.880  0.00  0.00    +0.063 C 
ATOM      4  C   LIG    1       21.644 -17.858   3.503  0.00  0.00    +0.121 C 
ATOM      5  C   LIG    1       23.152 -18.159   3.633  0.00  0.00    +0.031 C 
ENDROOT
BRANCH   4   6
ATOM      6  O   LIG    1       20.878 -18.975   3.097  0.00  0.00    -0.391 OA
ATOM      7  H   LIG    1       21.371 -19.416   2.384  0.00  0.00    +0.210 HD
ENDBRANCH   4   6
BRANCH   2   8
ATOM      8  O   LIG    1       22.151 -15.267   5.626  0.00  0.00    -0.391 OA
ATOM      9  H   LIG    1       22.774 -14.918   6.288  0.00  0.00    +0.210 HD
ENDBRANCH   2   8
BRANCH   1  11
ATOM     10  C   LIG    1       24.796 -14.678   3.853  0.00  0.00    +0.003 C 
ATOM     11  C   LIG    1       23.970 -15.708   3.575  0.00  0.00    -0.022 C 
BRANCH  10  12
ATOM     12  C   LIG    1       25.208 -13.503   2.977  0.00  0.00    +0.081 C 
ATOM     13  C   LIG    1       24.141 -13.356   1.854  0.00  0.00    +0.046 C 
BRANCH  12  14
ATOM     14  O   LIG    1       25.122 -12.327   3.788  0.00  0.00    -0.385 OA
ATOM     15  H   LIG    1       24.959 -12.606   4.707  0.00  0.00    +0.211 HD
ENDBRANCH  12  14
BRANCH  12  16
ATOM     16  C   LIG    1       26.637 -13.517   2.347  0.00  0.00    +0.039 C 
BRANCH  16  17
ATOM     17  C   LIG    1       27.793 -13.979   3.269  0.00  0.00    +0.003 C 
BRANCH  17  18
ATOM     18  C   LIG    1       28.598 -12.831   3.898  0.00  0.00    -0.000 C 
BRANCH  18  20
ATOM     19  C   LIG    1       27.205 -13.337   6.057  0.00  0.00    +0.004 C 
ATOM     20  C   LIG    1       28.418 -12.664   5.422  0.00  0.00    -0.003 C 
ENDBRANCH  18  20
ENDBRANCH  17  18
ENDBRANCH  16  17
ENDBRANCH  12  16
ENDBRANCH  10  12
ENDBRANCH   1  11
BRANCH   5  21
ATOM     21  C   LIG    1       23.457 -19.547   4.236  0.00  0.00    +0.033 C 
BRANCH  21  22
ATOM     22  C   LIG    1       22.881 -19.843   5.599  0.00  0.00    -0.031 C 
ATOM     23  C   LIG    1       23.291 -20.669   6.582  0.00  0.00    -0.031 C 
BRANCH  23  24
ATOM     24  C   LIG    1       24.573 -21.433   6.774  0.00  0.00    +0.027 C 
BRANCH  24  25
ATOM     25  C   LIG    1       25.808 -20.888   6.046  0.00  0.00    +0.015 C 
BRANCH  25  26
ATOM     26  C   LIG    1       26.811 -20.306   7.054  0.00  0.00    +0.121 C 
BRANCH  26  27
ATOM     27  C   LIG    1       28.230 -20.558   6.680  0.00  0.00    +0.305 C 
ATOM     28  O   LIG    1       28.940 -21.526   7.046  0.00  0.00    -0.251 OA
BRANCH  27  29
ATOM     29  O   LIG    1       28.736 -19.592   5.895  0.00  0.00    -0.481 OA
ATOM     30  H   LIG    1       27.981 -18.986   5.724  0.00  0.00    +0.295 HD
ENDBRANCH  27  29
ENDBRANCH  26  27
ENDBRANCH  25  26
ENDBRANCH  24  25
ENDBRANCH  23  24
ENDBRANCH  21  22
ENDBRANCH   5  21
TORSDOF 16
ENDMDL
