MODEL 1
REMARK VINA RESULT:      -8.8      0.000      0.000
REMARK  Name = *****
REMARK                            x       y       z     vdW  Elec       q    Type
REMARK                         _______ _______ _______ _____ _____    ______ ____
ROOT
ATOM      1  C   LIG    1       25.509 -19.921   4.439  0.00  0.00    +0.081 C 
ENDROOT
BRANCH   1   2
ATOM      2  N   LIG    1       26.827 -20.314   4.947  0.00  0.00    -0.316 NA
ATOM      3  H   LIG    1       27.069 -21.232   4.571  0.00  0.00    +0.122 HD
BRANCH   2   4
ATOM      4  C   LIG    1       26.866 -20.358   6.420  0.00  0.00    +0.085 C 
BRANCH   4   5
ATOM      5  C   LIG    1       28.005 -21.280   6.899  0.00  0.00    +0.050 C 
BRANCH   5   9
ATOM      6  C   LIG    1       31.189 -19.284   9.034  0.00  0.00    +0.158 A 
ATOM      7  C   LIG    1       31.175 -20.666   8.918  0.00  0.00    +0.159 A 
ATOM      8  C   LIG    1       30.145 -21.321   8.250  0.00  0.00    +0.052 A 
ATOM      9  C   LIG    1       29.103 -20.576   7.671  0.00  0.00    -0.043 A 
ATOM     10  C   LIG    1       29.127 -19.178   7.791  0.00  0.00    +0.007 A 
ATOM     11  C   LIG    1       30.166 -18.524   8.472  0.00  0.00    +0.049 A 
BRANCH   6  12
ATOM     12  O   LIG    1       32.233 -18.705   9.705  0.00  0.00    -0.503 OA
ATOM     13  H   LIG    1       32.896 -19.390   9.882  0.00  0.00    +0.292 HD
ENDBRANCH   6  12
BRANCH   7  14
ATOM     14  O   LIG    1       32.192 -21.405   9.462  0.00  0.00    -0.503 OA
ATOM     15  H   LIG    1       31.777 -21.868  10.215  0.00  0.00    +0.292 HD
ENDBRANCH   7  14
ENDBRANCH   5   9
ENDBRANCH   4   5
ENDBRANCH   2   4
ENDBRANCH   1   2
BRANCH   1  16
ATOM     16  C   LIG    1       24.542 -21.118   4.398  0.00  0.00    +0.015 C 
BRANCH  16  17
ATOM     17  C   LIG    1       23.210 -20.910   5.143  0.00  0.00    +0.001 C 
BRANCH  17  18
ATOM     18  C   LIG    1       23.387 -20.890   6.664  0.00  0.00    +0.001 C 
BRANCH  18  19
ATOM     19  C   LIG    1       23.719 -22.262   7.270  0.00  0.00    +0.015 C 
BRANCH  19  20
ATOM     20  C   LIG    1       22.722 -23.311   6.750  0.00  0.00    +0.081 C 
BRANCH  20  21
ATOM     21  N   LIG    1       23.347 -24.623   6.542  0.00  0.00    -0.316 NA
ATOM     22  H   LIG    1       23.458 -25.090   7.441  0.00  0.00    +0.122 HD
BRANCH  21  23
ATOM     23  C   LIG    1       24.665 -24.462   5.899  0.00  0.00    +0.085 C 
BRANCH  23  24
ATOM     24  C   LIG    1       25.731 -25.375   6.529  0.00  0.00    +0.050 C 
BRANCH  24  25
ATOM     25  C   LIG    1       25.346 -26.840   6.483  0.00  0.00    -0.046 A 
ATOM     26  C   LIG    1       25.615 -27.681   7.573  0.00  0.00    +0.003 A 
ATOM     27  C   LIG    1       25.256 -29.030   7.539  0.00  0.00    +0.000 A 
ATOM     28  C   LIG    1       24.631 -29.559   6.411  0.00  0.00    +0.000 A 
ATOM     29  C   LIG    1       24.361 -28.735   5.319  0.00  0.00    +0.000 A 
ATOM     30  C   LIG    1       24.718 -27.384   5.354  0.00  0.00    +0.003 A 
ENDBRANCH  24  25
ENDBRANCH  23  24
ENDBRANCH  21  23
ENDBRANCH  20  21
ENDBRANCH  19  20
ENDBRANCH  18  19
ENDBRANCH  17  18
ENDBRANCH  16  17
ENDBRANCH   1  16
TORSDOF 15
ENDMDL
MODEL 2
REMARK VINA RESULT:      -8.7      4.014      8.410
REMARK  Name = *****
REMARK                            x       y       z     vdW  Elec       q    Type
REMARK                         _______ _______ _______ _____ _____    ______ ____
ROOT
ATOM      1  C   LIG    1       24.551 -23.655   6.709  0.00  0.00    +0.081 C 
ENDROOT
BRANCH   1   2
ATOM      2  N   LIG    1       25.074 -23.873   5.357  0.00  0.00    -0.316 NA
ATOM      3  H   LIG    1       24.380 -23.558   4.677  0.00  0.00    +0.122 HD
BRANCH   2   4
ATOM      4  C   LIG    1       25.402 -25.289   5.109  0.00  0.00    +0.085 C 
BRANCH   4   5
ATOM      5  C   LIG    1       26.029 -25.922   6.366  0.00  0.00    +0.050 C 
BRANCH   5   9
ATOM      6  C   LIG    1       24.473 -29.830   7.359  0.00  0.00    +0.158 A 
ATOM      7  C   LIG    1       24.002 -29.144   6.249  0.00  0.00    +0.159 A 
ATOM      8  C   LIG    1       24.482 -27.877   5.930  0.00  0.00    +0.052 A 
ATOM      9  C   LIG    1       25.467 -27.281   6.736  0.00  0.00    -0.043 A 
ATOM     10  C   LIG    1       25.939 -27.983   7.856  0.00  0.00    +0.007 A 
ATOM     11  C   LIG    1       25.445 -29.258   8.175  0.00  0.00    +0.049 A 
BRANCH   6  12
ATOM     12  O   LIG    1       23.956 -31.073   7.614  0.00  0.00    -0.503 OA
ATOM     13  H   LIG    1       22.991 -31.024   7.526  0.00  0.00    +0.292 HD
ENDBRANCH   6  12
BRANCH   7  14
ATOM     14  O   LIG    1       23.055 -29.719   5.445  0.00  0.00    -0.503 OA
ATOM     15  H   LIG    1       23.347 -30.647   5.353  0.00  0.00    +0.292 HD
ENDBRANCH   7  14
ENDBRANCH   5   9
ENDBRANCH   4   5
ENDBRANCH   2   4
ENDBRANCH   1   2
BRANCH   1  16
ATOM     16  C   LIG    1       23.262 -22.814   6.686  0.00  0.00    +0.015 C 
BRANCH  16  17
ATOM     17  C   LIG    1       23.359 -21.444   7.383  0.00  0.00    +0.001 C 
BRANCH  17  18
ATOM     18  C   LIG    1       23.032 -20.284   6.439  0.00  0.00    +0.001 C 
BRANCH  18  19
ATOM     19  C   LIG    1       22.890 -20.699   4.968  0.00  0.00    +0.015 C 
BRANCH  19  20
ATOM     20  C   LIG    1       24.058 -20.118   4.152  0.00  0.00    +0.081 C 
BRANCH  20  21
ATOM     21  N   LIG    1       25.304 -20.869   4.345  0.00  0.00    -0.316 NA
ATOM     22  H   LIG    1       25.115 -21.697   4.909  0.00  0.00    +0.122 HD
BRANCH  21  23
ATOM     23  C   LIG    1       26.307 -20.025   5.023  0.00  0.00    +0.085 C 
BRANCH  23  24
ATOM     24  C   LIG    1       26.869 -20.698   6.287  0.00  0.00    +0.050 C 
BRANCH  24  25
ATOM     25  C   LIG    1       28.280 -20.250   6.608  0.00  0.00    -0.046 A 
ATOM     26  C   LIG    1       28.895 -19.239   5.854  0.00  0.00    +0.003 A 
ATOM     27  C   LIG    1       30.193 -18.819   6.150  0.00  0.00    +0.000 A 
ATOM     28  C   LIG    1       30.898 -19.408   7.198  0.00  0.00    +0.000 A 
ATOM     29  C   LIG    1       30.301 -20.417   7.951  0.00  0.00    +0.000 A 
ATOM     30  C   LIG    1       29.000 -20.837   7.658  0.00  0.00    +0.003 A 
ENDBRANCH  24  25
ENDBRANCH  23  24
ENDBRANCH  21  23
ENDBRANCH  20  21
ENDBRANCH  19  20
ENDBRANCH  18  19
ENDBRANCH  17  18
ENDBRANCH  16  17
ENDBRANCH   1  16
TORSDOF 15
ENDMDL
MODEL 3
REMARK VINA RESULT:      -8.6      0.961      1.765
REMARK  Name = *****
REMARK                            x       y       z     vdW  Elec       q    Type
REMARK                         _______ _______ _______ _____ _____    ______ ____
ROOT
ATOM      1  C   LIG    1       25.406 -19.513   3.933  0.00  0.00    +0.081 C 
ENDROOT
BRANCH   1   2
ATOM      2  N   LIG    1       25.983 -20.693   4.585  0.00  0.00    -0.316 NA
ATOM      3  H   LIG    1       25.243 -21.375   4.757  0.00  0.00    +0.122 HD
BRANCH   2   4
ATOM      4  C   LIG    1       26.651 -20.357   5.855  0.00  0.00    +0.085 C 
BRANCH   4   5
ATOM      5  C   LIG    1       27.975 -19.616   5.585  0.00  0.00    +0.050 C 
BRANCH   5   9
ATOM      6  C   LIG    1       31.113 -20.473   8.431  0.00  0.00    +0.158 A 
ATOM      7  C   LIG    1       31.148 -19.314   7.670  0.00  0.00    +0.159 A 
ATOM      8  C   LIG    1       30.154 -19.036   6.737  0.00  0.00    +0.052 A 
ATOM      9  C   LIG    1       29.088 -19.936   6.564  0.00  0.00    -0.043 A 
ATOM     10  C   LIG    1       29.059 -21.105   7.340  0.00  0.00    +0.007 A 
ATOM     11  C   LIG    1       30.070 -21.381   8.275  0.00  0.00    +0.049 A 
BRANCH   6  12
ATOM     12  O   LIG    1       32.125 -20.683   9.331  0.00  0.00    -0.503 OA
ATOM     13  H   LIG    1       32.734 -21.338   8.955  0.00  0.00    +0.292 HD
ENDBRANCH   6  12
BRANCH   7  14
ATOM     14  O   LIG    1       32.171 -18.419   7.839  0.00  0.00    -0.503 OA
ATOM     15  H   LIG    1       32.219 -18.288   8.806  0.00  0.00    +0.292 HD
ENDBRANCH   7  14
ENDBRANCH   5   9
ENDBRANCH   4   5
ENDBRANCH   2   4
ENDBRANCH   1   2
BRANCH   1  16
ATOM     16  C   LIG    1       23.872 -19.611   3.849  0.00  0.00    +0.015 C 
BRANCH  16  17
ATOM     17  C   LIG    1       23.241 -20.751   4.670  0.00  0.00    +0.001 C 
BRANCH  17  18
ATOM     18  C   LIG    1       22.882 -20.316   6.094  0.00  0.00    +0.001 C 
BRANCH  18  19
ATOM     19  C   LIG    1       23.263 -21.341   7.173  0.00  0.00    +0.015 C 
BRANCH  19  20
ATOM     20  C   LIG    1       23.145 -22.763   6.598  0.00  0.00    +0.081 C 
BRANCH  20  21
ATOM     21  N   LIG    1       24.256 -23.628   7.012  0.00  0.00    -0.316 NA
ATOM     22  H   LIG    1       24.863 -23.115   7.651  0.00  0.00    +0.122 HD
BRANCH  21  23
ATOM     23  C   LIG    1       25.030 -24.061   5.833  0.00  0.00    +0.085 C 
BRANCH  23  24
ATOM     24  C   LIG    1       26.103 -25.102   6.196  0.00  0.00    +0.050 C 
BRANCH  24  25
ATOM     25  C   LIG    1       25.533 -26.496   6.357  0.00  0.00    -0.046 A 
ATOM     26  C   LIG    1       24.605 -26.997   5.431  0.00  0.00    +0.003 A 
ATOM     27  C   LIG    1       24.082 -28.284   5.572  0.00  0.00    +0.000 A 
ATOM     28  C   LIG    1       24.473 -29.085   6.643  0.00  0.00    +0.000 A 
ATOM     29  C   LIG    1       25.391 -28.599   7.572  0.00  0.00    +0.000 A 
ATOM     30  C   LIG    1       25.918 -27.311   7.431  0.00  0.00    +0.003 A 
ENDBRANCH  24  25
ENDBRANCH  23  24
ENDBRANCH  21  23
ENDBRANCH  20  21
ENDBRANCH  19  20
ENDBRANCH  18  19
ENDBRANCH  17  18
ENDBRANCH  16  17
ENDBRANCH   1  16
TORSDOF 15
ENDMDL
MODEL 4
REMARK VINA RESULT:      -8.6      3.087      8.341
REMARK  Name = *****
REMARK                            x       y       z     vdW  Elec       q    Type
REMARK                         _______ _______ _______ _____ _____    ______ ____
ROOT
ATOM      1  C   LIG    1       24.153 -24.450   6.691  0.00  0.00    +0.081 C 
ENDROOT
BRANCH   1   2
ATOM      2  N   LIG    1       22.882 -23.800   6.356  0.00  0.00    -0.316 NA
ATOM      3  H   LIG    1       22.717 -23.888   5.352  0.00  0.00    +0.122 HD
BRANCH   2   4
ATOM      4  C   LIG    1       22.867 -22.376   6.736  0.00  0.00    +0.085 C 
BRANCH   4   5
ATOM      5  C   LIG    1       22.270 -21.523   5.599  0.00  0.00    +0.050 C 
BRANCH   5   9
ATOM      6  C   LIG    1       25.053 -18.800   3.723  0.00  0.00    +0.158 A 
ATOM      7  C   LIG    1       25.510 -19.928   4.388  0.00  0.00    +0.159 A 
ATOM      8  C   LIG    1       24.625 -20.802   5.012  0.00  0.00    +0.052 A 
ATOM      9  C   LIG    1       23.243 -20.549   4.964  0.00  0.00    -0.043 A 
ATOM     10  C   LIG    1       22.790 -19.407   4.286  0.00  0.00    +0.007 A 
ATOM     11  C   LIG    1       23.689 -18.526   3.664  0.00  0.00    +0.049 A 
BRANCH   6  12
ATOM     12  O   LIG    1       25.980 -17.983   3.130  0.00  0.00    -0.503 OA
ATOM     13  H   LIG    1       25.520 -17.420   2.487  0.00  0.00    +0.292 HD
ENDBRANCH   6  12
BRANCH   7  14
ATOM     14  O   LIG    1       26.852 -20.197   4.430  0.00  0.00    -0.503 OA
ATOM     15  H   LIG    1       27.167 -19.989   3.529  0.00  0.00    +0.292 HD
ENDBRANCH   7  14
ENDBRANCH   5   9
ENDBRANCH   4   5
ENDBRANCH   2   4
ENDBRANCH   1   2
BRANCH   1  16
ATOM     16  C   LIG    1       25.350 -23.523   6.414  0.00  0.00    +0.015 C 
BRANCH  16  17
ATOM     17  C   LIG    1       26.237 -23.212   7.634  0.00  0.00    +0.001 C 
BRANCH  17  18
ATOM     18  C   LIG    1       25.973 -21.817   8.208  0.00  0.00    +0.001 C 
BRANCH  18  19
ATOM     19  C   LIG    1       27.092 -20.805   7.922  0.00  0.00    +0.015 C 
BRANCH  19  20
ATOM     20  C   LIG    1       28.354 -21.549   7.453  0.00  0.00    +0.081 C 
BRANCH  20  21
ATOM     21  N   LIG    1       29.003 -20.888   6.314  0.00  0.00    -0.316 NA
ATOM     22  H   LIG    1       29.805 -21.442   6.014  0.00  0.00    +0.122 HD
BRANCH  21  23
ATOM     23  C   LIG    1       29.451 -19.536   6.699  0.00  0.00    +0.085 C 
BRANCH  23  24
ATOM     24  C   LIG    1       30.852 -19.549   7.332  0.00  0.00    +0.050 C 
BRANCH  24  25
ATOM     25  C   LIG    1       31.008 -18.515   8.428  0.00  0.00    -0.046 A 
ATOM     26  C   LIG    1       29.984 -18.313   9.366  0.00  0.00    +0.003 A 
ATOM     27  C   LIG    1       30.125 -17.365  10.382  0.00  0.00    +0.000 A 
ATOM     28  C   LIG    1       31.287 -16.601  10.470  0.00  0.00    +0.000 A 
ATOM     29  C   LIG    1       32.310 -16.789   9.543  0.00  0.00    +0.000 A 
ATOM     30  C   LIG    1       32.171 -17.739   8.526  0.00  0.00    +0.003 A 
ENDBRANCH  24  25
ENDBRANCH  23  24
ENDBRANCH  21  23
ENDBRANCH  20  21
ENDBRANCH  19  20
ENDBRANCH  18  19
ENDBRANCH  17  18
ENDBRANCH  16  17
ENDBRANCH   1  16
TORSDOF 15
ENDMDL
MODEL 5
REMARK VINA RESULT:      -8.2      3.407      9.032
REMARK  Name = *****
REMARK                            x       y       z     vdW  Elec       q    Type
REMARK                         _______ _______ _______ _____ _____    ______ ____
ROOT
ATOM      1  C   LIG    1       24.455 -20.911   4.510  0.00  0.00    +0.081 C 
ENDROOT
BRANCH   1   2
ATOM      2  N   LIG    1       23.384 -20.621   5.469  0.00  0.00    -0.316 NA
ATOM      3  H   LIG    1       23.796 -20.261   6.331  0.00  0.00    +0.122 HD
BRANCH   2   4
ATOM      4  C   LIG    1       22.570 -21.812   5.772  0.00  0.00    +0.085 C 
BRANCH   4   5
ATOM      5  C   LIG    1       23.080 -22.498   7.055  0.00  0.00    +0.050 C 
BRANCH   5   9
ATOM      6  C   LIG    1       25.729 -25.827   6.289  0.00  0.00    +0.158 A 
ATOM      7  C   LIG    1       24.359 -25.962   6.120  0.00  0.00    +0.159 A 
ATOM      8  C   LIG    1       23.494 -24.903   6.382  0.00  0.00    +0.052 A 
ATOM      9  C   LIG    1       24.011 -23.671   6.815  0.00  0.00    -0.043 A 
ATOM     10  C   LIG    1       25.399 -23.542   6.981  0.00  0.00    +0.007 A 
ATOM     11  C   LIG    1       26.265 -24.617   6.721  0.00  0.00    +0.049 A 
BRANCH   6  12
ATOM     12  O   LIG    1       26.520 -26.910   6.013  0.00  0.00    -0.503 OA
ATOM     13  H   LIG    1       27.421 -26.592   5.845  0.00  0.00    +0.292 HD
ENDBRANCH   6  12
BRANCH   7  14
ATOM     14  O   LIG    1       23.841 -27.152   5.682  0.00  0.00    -0.503 OA
ATOM     15  H   LIG    1       23.952 -27.757   6.441  0.00  0.00    +0.292 HD
ENDBRANCH   7  14
ENDBRANCH   5   9
ENDBRANCH   4   5
ENDBRANCH   2   4
ENDBRANCH   1   2
BRANCH   1  16
ATOM     16  C   LIG    1       25.588 -19.874   4.602  0.00  0.00    +0.015 C 
BRANCH  16  17
ATOM     17  C   LIG    1       26.812 -20.310   5.428  0.00  0.00    +0.001 C 
BRANCH  17  18
ATOM     18  C   LIG    1       26.524 -20.332   6.932  0.00  0.00    +0.001 C 
BRANCH  18  19
ATOM     19  C   LIG    1       27.713 -20.794   7.788  0.00  0.00    +0.015 C 
BRANCH  19  20
ATOM     20  C   LIG    1       29.014 -20.192   7.230  0.00  0.00    +0.081 C 
BRANCH  20  21
ATOM     21  N   LIG    1       30.209 -20.883   7.728  0.00  0.00    -0.316 NA
ATOM     22  H   LIG    1       29.926 -21.699   8.270  0.00  0.00    +0.122 HD
BRANCH  21  23
ATOM     23  C   LIG    1       31.005 -19.976   8.577  0.00  0.00    +0.085 C 
BRANCH  23  24
ATOM     24  C   LIG    1       30.394 -18.566   8.647  0.00  0.00    +0.050 C 
BRANCH  24  25
ATOM     25  C   LIG    1       31.136 -17.655   9.604  0.00  0.00    -0.046 A 
ATOM     26  C   LIG    1       30.751 -17.572  10.950  0.00  0.00    +0.003 A 
ATOM     27  C   LIG    1       31.435 -16.738  11.837  0.00  0.00    +0.000 A 
ATOM     28  C   LIG    1       32.509 -15.971  11.390  0.00  0.00    +0.000 A 
ATOM     29  C   LIG    1       32.900 -16.042  10.054  0.00  0.00    +0.000 A 
ATOM     30  C   LIG    1       32.217 -16.877   9.165  0.00  0.00    +0.003 A 
ENDBRANCH  24  25
ENDBRANCH  23  24
ENDBRANCH  21  23
ENDBRANCH  20  21
ENDBRANCH  19  20
ENDBRANCH  18  19
ENDBRANCH  17  18
ENDBRANCH  16  17
ENDBRANCH   1  16
TORSDOF 15
ENDMDL
MODEL 6
REMARK VINA RESULT:      -8.0      3.000      7.916
REMARK  Name = *****
REMARK                            x       y       z     vdW  Elec       q    Type
REMARK                         _______ _______ _______ _____ _____    ______ ____
ROOT
ATOM      1  C   LIG    1       22.780 -22.699   7.222  0.00  0.00    +0.081 C 
ENDROOT
BRANCH   1   2
ATOM      2  N   LIG    1       23.231 -23.748   6.302  0.00  0.00    -0.316 NA
ATOM      3  H   LIG    1       22.802 -24.634   6.571  0.00  0.00    +0.122 HD
BRANCH   2   4
ATOM      4  C   LIG    1       24.698 -23.891   6.296  0.00  0.00    +0.085 C 
BRANCH   4   5
ATOM      5  C   LIG    1       25.126 -24.991   5.305  0.00  0.00    +0.050 C 
BRANCH   5   9
ATOM      6  C   LIG    1       25.070 -28.963   7.007  0.00  0.00    +0.158 A 
ATOM      7  C   LIG    1       25.875 -27.974   7.551  0.00  0.00    +0.159 A 
ATOM      8  C   LIG    1       25.916 -26.696   7.000  0.00  0.00    +0.052 A 
ATOM      9  C   LIG    1       25.124 -26.394   5.880  0.00  0.00    -0.043 A 
ATOM     10  C   LIG    1       24.310 -27.401   5.337  0.00  0.00    +0.007 A 
ATOM     11  C   LIG    1       24.279 -28.689   5.895  0.00  0.00    +0.049 A 
BRANCH   6  12
ATOM     12  O   LIG    1       25.078 -30.198   7.600  0.00  0.00    -0.503 OA
ATOM     13  H   LIG    1       24.277 -30.671   7.326  0.00  0.00    +0.292 HD
ENDBRANCH   6  12
BRANCH   7  14
ATOM     14  O   LIG    1       26.640 -28.248   8.653  0.00  0.00    -0.503 OA
ATOM     15  H   LIG    1       26.335 -29.129   8.945  0.00  0.00    +0.292 HD
ENDBRANCH   7  14
ENDBRANCH   5   9
ENDBRANCH   4   5
ENDBRANCH   2   4
ENDBRANCH   1   2
BRANCH   1  16
ATOM     16  C   LIG    1       23.594 -21.405   7.043  0.00  0.00    +0.015 C 
BRANCH  16  17
ATOM     17  C   LIG    1       22.951 -20.346   6.127  0.00  0.00    +0.001 C 
BRANCH  17  18
ATOM     18  C   LIG    1       23.303 -20.558   4.652  0.00  0.00    +0.001 C 
BRANCH  18  19
ATOM     19  C   LIG    1       23.587 -19.258   3.886  0.00  0.00    +0.015 C 
BRANCH  19  20
ATOM     20  C   LIG    1       25.079 -19.189   3.521  0.00  0.00    +0.081 C 
BRANCH  20  21
ATOM     21  N   LIG    1       25.864 -20.246   4.170  0.00  0.00    -0.316 NA
ATOM     22  H   LIG    1       25.245 -20.828   4.736  0.00  0.00    +0.122 HD
BRANCH  21  23
ATOM     23  C   LIG    1       26.906 -19.652   5.028  0.00  0.00    +0.085 C 
BRANCH  23  24
ATOM     24  C   LIG    1       27.143 -20.476   6.306  0.00  0.00    +0.050 C 
BRANCH  24  25
ATOM     25  C   LIG    1       28.540 -20.301   6.864  0.00  0.00    -0.046 A 
ATOM     26  C   LIG    1       29.052 -21.212   7.800  0.00  0.00    +0.003 A 
ATOM     27  C   LIG    1       30.342 -21.058   8.312  0.00  0.00    +0.000 A 
ATOM     28  C   LIG    1       31.135 -19.988   7.902  0.00  0.00    +0.000 A 
ATOM     29  C   LIG    1       30.637 -19.073   6.976  0.00  0.00    +0.000 A 
ATOM     30  C   LIG    1       29.347 -19.227   6.460  0.00  0.00    +0.003 A 
ENDBRANCH  24  25
ENDBRANCH  23  24
ENDBRANCH  21  23
ENDBRANCH  20  21
ENDBRANCH  19  20
ENDBRANCH  18  19
ENDBRANCH  17  18
ENDBRANCH  16  17
ENDBRANCH   1  16
TORSDOF 15
ENDMDL
MODEL 7
REMARK VINA RESULT:      -8.0      1.362      2.432
REMARK  Name = *****
REMARK                            x       y       z     vdW  Elec       q    Type
REMARK                         _______ _______ _______ _____ _____    ______ ____
ROOT
ATOM      1  C   LIG    1       24.140 -20.633   5.505  0.00  0.00    +0.081 C 
ENDROOT
BRANCH   1   2
ATOM      2  N   LIG    1       25.467 -21.244   5.630  0.00  0.00    -0.316 NA
ATOM      3  H   LIG    1       25.365 -22.188   6.008  0.00  0.00    +0.122 HD
BRANCH   2   4
ATOM      4  C   LIG    1       26.362 -20.459   6.497  0.00  0.00    +0.085 C 
BRANCH   4   5
ATOM      5  C   LIG    1       27.707 -20.202   5.788  0.00  0.00    +0.050 C 
BRANCH   5   9
ATOM      6  C   LIG    1       31.149 -19.966   8.390  0.00  0.00    +0.158 A 
ATOM      7  C   LIG    1       30.247 -21.013   8.506  0.00  0.00    +0.159 A 
ATOM      8  C   LIG    1       29.125 -21.090   7.687  0.00  0.00    +0.052 A 
ATOM      9  C   LIG    1       28.900 -20.098   6.717  0.00  0.00    -0.043 A 
ATOM     10  C   LIG    1       29.820 -19.044   6.604  0.00  0.00    +0.007 A 
ATOM     11  C   LIG    1       30.947 -18.970   7.439  0.00  0.00    +0.049 A 
BRANCH   6  12
ATOM     12  O   LIG    1       32.232 -19.954   9.229  0.00  0.00    -0.503 OA
ATOM     13  H   LIG    1       32.250 -19.099   9.688  0.00  0.00    +0.292 HD
ENDBRANCH   6  12
BRANCH   7  14
ATOM     14  O   LIG    1       30.461 -21.996   9.436  0.00  0.00    -0.503 OA
ATOM     15  H   LIG    1       29.566 -22.317   9.657  0.00  0.00    +0.292 HD
ENDBRANCH   7  14
ENDBRANCH   5   9
ENDBRANCH   4   5
ENDBRANCH   2   4
ENDBRANCH   1   2
BRANCH   1  16
ATOM     16  C   LIG    1       23.029 -21.606   5.937  0.00  0.00    +0.015 C 
BRANCH  16  17
ATOM     17  C   LIG    1       23.402 -22.560   7.087  0.00  0.00    +0.001 C 
BRANCH  17  18
ATOM     18  C   LIG    1       23.518 -24.015   6.625  0.00  0.00    +0.001 C 
BRANCH  18  19
ATOM     19  C   LIG    1       24.944 -24.581   6.702  0.00  0.00    +0.015 C 
BRANCH  19  20
ATOM     20  C   LIG    1       25.335 -25.180   5.340  0.00  0.00    +0.081 C 
BRANCH  20  21
ATOM     21  N   LIG    1       24.474 -26.304   4.955  0.00  0.00    -0.316 NA
ATOM     22  H   LIG    1       23.579 -26.226   5.438  0.00  0.00    +0.122 HD
BRANCH  21  23
ATOM     23  C   LIG    1       25.118 -27.583   5.308  0.00  0.00    +0.085 C 
BRANCH  23  24
ATOM     24  C   LIG    1       24.206 -28.471   6.171  0.00  0.00    +0.050 C 
BRANCH  24  25
ATOM     25  C   LIG    1       24.831 -28.830   7.504  0.00  0.00    -0.046 A 
ATOM     26  C   LIG    1       24.299 -29.867   8.283  0.00  0.00    +0.003 A 
ATOM     27  C   LIG    1       24.876 -30.206   9.509  0.00  0.00    +0.000 A 
ATOM     28  C   LIG    1       25.987 -29.507   9.977  0.00  0.00    +0.000 A 
ATOM     29  C   LIG    1       26.523 -28.471   9.214  0.00  0.00    +0.000 A 
ATOM     30  C   LIG    1       25.948 -28.132   7.985  0.00  0.00    +0.003 A 
ENDBRANCH  24  25
ENDBRANCH  23  24
ENDBRANCH  21  23
ENDBRANCH  20  21
ENDBRANCH  19  20
ENDBRANCH  18  19
ENDBRANCH  17  18
ENDBRANCH  16  17
ENDBRANCH   1  16
TORSDOF 15
ENDMDL
MODEL 8
REMARK VINA RESULT:      -7.9      4.266      8.727
REMARK  Name = *****
REMARK                            x       y       z     vdW  Elec       q    Type
REMARK                         _______ _______ _______ _____ _____    ______ ____
ROOT
ATOM      1  C   LIG    1       24.861 -23.746   5.635  0.00  0.00    +0.081 C 
ENDROOT
BRANCH   1   2
ATOM      2  N   LIG    1       25.387 -24.905   4.907  0.00  0.00    -0.316 NA
ATOM      3  H   LIG    1       24.615 -25.383   4.440  0.00  0.00    +0.122 HD
BRANCH   2   4
ATOM      4  C   LIG    1       26.088 -25.849   5.795  0.00  0.00    +0.085 C 
BRANCH   4   5
ATOM      5  C   LIG    1       26.071 -27.267   5.190  0.00  0.00    +0.050 C 
BRANCH   5   9
ATOM      6  C   LIG    1       24.129 -30.287   7.596  0.00  0.00    +0.158 A 
ATOM      7  C   LIG    1       24.025 -30.312   6.214  0.00  0.00    +0.159 A 
ATOM      8  C   LIG    1       24.629 -29.334   5.429  0.00  0.00    +0.052 A 
ATOM      9  C   LIG    1       25.369 -28.307   6.041  0.00  0.00    -0.043 A 
ATOM     10  C   LIG    1       25.471 -28.292   7.441  0.00  0.00    +0.007 A 
ATOM     11  C   LIG    1       24.853 -29.278   8.226  0.00  0.00    +0.049 A 
BRANCH   6  12
ATOM     12  O   LIG    1       23.509 -31.281   8.306  0.00  0.00    -0.503 OA
ATOM     13  H   LIG    1       23.617 -32.114   7.820  0.00  0.00    +0.292 HD
ENDBRANCH   6  12
BRANCH   7  14
ATOM     14  O   LIG    1       23.322 -31.315   5.602  0.00  0.00    -0.503 OA
ATOM     15  H   LIG    1       24.003 -31.837   5.136  0.00  0.00    +0.292 HD
ENDBRANCH   7  14
ENDBRANCH   5   9
ENDBRANCH   4   5
ENDBRANCH   2   4
ENDBRANCH   1   2
BRANCH   1  16
ATOM     16  C   LIG    1       23.771 -24.160   6.640  0.00  0.00    +0.015 C 
BRANCH  16  17
ATOM     17  C   LIG    1       22.598 -23.172   6.780  0.00  0.00    +0.001 C 
BRANCH  17  18
ATOM     18  C   LIG    1       22.933 -21.784   6.227  0.00  0.00    +0.001 C 
BRANCH  18  19
ATOM     19  C   LIG    1       23.350 -20.770   7.302  0.00  0.00    +0.015 C 
BRANCH  19  20
ATOM     20  C   LIG    1       24.882 -20.629   7.312  0.00  0.00    +0.081 C 
BRANCH  20  21
ATOM     21  N   LIG    1       25.467 -20.976   8.613  0.00  0.00    -0.316 NA
ATOM     22  H   LIG    1       25.632 -20.123   9.147  0.00  0.00    +0.122 HD
BRANCH  21  23
ATOM     23  C   LIG    1       26.740 -21.696   8.422  0.00  0.00    +0.085 C 
BRANCH  23  24
ATOM     24  C   LIG    1       27.329 -21.467   7.019  0.00  0.00    +0.050 C 
BRANCH  24  25
ATOM     25  C   LIG    1       28.610 -20.658   7.049  0.00  0.00    -0.046 A 
ATOM     26  C   LIG    1       28.788 -19.575   6.175  0.00  0.00    +0.003 A 
ATOM     27  C   LIG    1       29.964 -18.822   6.202  0.00  0.00    +0.000 A 
ATOM     28  C   LIG    1       30.981 -19.146   7.098  0.00  0.00    +0.000 A 
ATOM     29  C   LIG    1       30.819 -20.222   7.969  0.00  0.00    +0.000 A 
ATOM     30  C   LIG    1       29.641 -20.975   7.944  0.00  0.00    +0.003 A 
ENDBRANCH  24  25
ENDBRANCH  23  24
ENDBRANCH  21  23
ENDBRANCH  20  21
ENDBRANCH  19  20
ENDBRANCH  18  19
ENDBRANCH  17  18
ENDBRANCH  16  17
ENDBRANCH   1  16
TORSDOF 15
ENDMDL
MODEL 9
REMARK VINA RESULT:      -7.9      3.574      8.281
REMARK  Name = *****
REMARK                            x       y       z     vdW  Elec       q    Type
REMARK                         _______ _______ _______ _____ _____    ______ ____
ROOT
ATOM      1  C   LIG    1       26.568 -27.405   5.035  0.00  0.00    +0.081 C 
ENDROOT
BRANCH   1   2
ATOM      2  N   LIG    1       25.930 -28.711   5.230  0.00  0.00    -0.316 NA
ATOM      3  H   LIG    1       25.962 -29.231   4.352  0.00  0.00    +0.122 HD
BRANCH   2   4
ATOM      4  C   LIG    1       24.533 -28.586   5.681  0.00  0.00    +0.085 C 
BRANCH   4   5
ATOM      5  C   LIG    1       24.222 -29.640   6.762  0.00  0.00    +0.050 C 
BRANCH   5   9
ATOM      6  C   LIG    1       27.207 -29.881   9.879  0.00  0.00    +0.158 A 
ATOM      7  C   LIG    1       26.783 -31.025   9.218  0.00  0.00    +0.159 A 
ATOM      8  C   LIG    1       25.809 -30.962   8.226  0.00  0.00    +0.052 A 
ATOM      9  C   LIG    1       25.248 -29.722   7.876  0.00  0.00    -0.043 A 
ATOM     10  C   LIG    1       25.685 -28.570   8.548  0.00  0.00    +0.007 A 
ATOM     11  C   LIG    1       26.664 -28.642   9.552  0.00  0.00    +0.049 A 
BRANCH   6  12
ATOM     12  O   LIG    1       28.170 -30.017  10.844  0.00  0.00    -0.503 OA
ATOM     13  H   LIG    1       27.727 -30.128  11.700  0.00  0.00    +0.292 HD
ENDBRANCH   6  12
BRANCH   7  14
ATOM     14  O   LIG    1       27.332 -32.238   9.536  0.00  0.00    -0.503 OA
ATOM     15  H   LIG    1       27.511 -32.656   8.672  0.00  0.00    +0.292 HD
ENDBRANCH   7  14
ENDBRANCH   5   9
ENDBRANCH   4   5
ENDBRANCH   2   4
ENDBRANCH   1   2
BRANCH   1  16
ATOM     16  C   LIG    1       25.570 -26.253   5.249  0.00  0.00    +0.015 C 
BRANCH  16  17
ATOM     17  C   LIG    1       25.921 -25.282   6.391  0.00  0.00    +0.001 C 
BRANCH  17  18
ATOM     18  C   LIG    1       25.022 -24.043   6.402  0.00  0.00    +0.001 C 
BRANCH  18  19
ATOM     19  C   LIG    1       23.532 -24.356   6.602  0.00  0.00    +0.015 C 
BRANCH  19  20
ATOM     20  C   LIG    1       22.771 -23.059   6.926  0.00  0.00    +0.081 C 
BRANCH  20  21
ATOM     21  N   LIG    1       22.546 -22.230   5.736  0.00  0.00    -0.316 NA
ATOM     22  H   LIG    1       23.056 -22.625   4.947  0.00  0.00    +0.122 HD
BRANCH  21  23
ATOM     23  C   LIG    1       23.007 -20.850   5.983  0.00  0.00    +0.085 C 
BRANCH  23  24
ATOM     24  C   LIG    1       24.293 -20.522   5.206  0.00  0.00    +0.050 C 
BRANCH  24  25
ATOM     25  C   LIG    1       25.515 -20.461   6.099  0.00  0.00    -0.046 A 
ATOM     26  C   LIG    1       25.391 -20.623   7.487  0.00  0.00    +0.003 A 
ATOM     27  C   LIG    1       26.516 -20.574   8.313  0.00  0.00    +0.000 A 
ATOM     28  C   LIG    1       27.778 -20.353   7.765  0.00  0.00    +0.000 A 
ATOM     29  C   LIG    1       27.915 -20.186   6.389  0.00  0.00    +0.000 A 
ATOM     30  C   LIG    1       26.790 -20.238   5.559  0.00  0.00    +0.003 A 
ENDBRANCH  24  25
ENDBRANCH  23  24
ENDBRANCH  21  23
ENDBRANCH  20  21
ENDBRANCH  19  20
ENDBRANCH  18  19
ENDBRANCH  17  18
ENDBRANCH  16  17
ENDBRANCH   1  16
TORSDOF 15
ENDMDL
