MODEL 1
REMARK VINA RESULT:      -5.2      0.000      0.000
REMARK  Name = *****
REMARK                            x       y       z     vdW  Elec       q    Type
REMARK                         _______ _______ _______ _____ _____    ______ ____
ROOT
ATOM      1  N   LIG    1       30.224 -18.380   6.259  0.00  0.00    -0.314 NA
ATOM      2  H   LIG    1       31.007 -18.885   5.845  0.00  0.00    +0.122 HD
ENDROOT
BRANCH   1   3
ATOM      3  C   LIG    1       29.040 -18.611   5.426  0.00  0.00    +0.096 C 
BRANCH   3   4
ATOM      4  C   LIG    1       28.169 -19.807   5.843  0.00  0.00    +0.096 C 
BRANCH   4   5
ATOM      5  N   LIG    1       27.046 -20.114   4.940  0.00  0.00    -0.314 NA
ATOM      6  H   LIG    1       27.355 -20.826   4.276  0.00  0.00    +0.122 HD
BRANCH   5   7
ATOM      7  C   LIG    1       25.808 -20.588   5.601  0.00  0.00    +0.096 C 
BRANCH   7   8
ATOM      8  C   LIG    1       24.677 -21.145   4.731  0.00  0.00    +0.092 C 
BRANCH   8   9
ATOM      9  N   LIG    1       24.636 -22.602   4.704  0.00  0.00    -0.329 NA
ATOM     10  H   LIG    1       24.577 -22.937   3.744  0.00  0.00    +0.118 HD
ATOM     11  H   LIG    1       25.474 -22.997   5.122  0.00  0.00    +0.118 HD
ENDBRANCH   8   9
ENDBRANCH   7   8
ENDBRANCH   5   7
ENDBRANCH   4   5
ENDBRANCH   3   4
ENDBRANCH   1   3
BRANCH   1  12
ATOM     12  C   LIG    1       29.992 -18.897   7.624  0.00  0.00    +0.096 C 
BRANCH  12  13
ATOM     13  C   LIG    1       31.059 -19.867   8.216  0.00  0.00    +0.096 C 
BRANCH  13  14
ATOM     14  N   LIG    1       31.936 -19.298   9.249  0.00  0.00    -0.314 NA
ATOM     15  H   LIG    1       32.145 -19.997   9.966  0.00  0.00    +0.122 HD
BRANCH  14  16
ATOM     16  C   LIG    1       31.373 -18.118   9.904  0.00  0.00    +0.096 C 
BRANCH  16  17
ATOM     17  C   LIG    1       32.390 -16.965  10.047  0.00  0.00    +0.092 C 
BRANCH  17  18
ATOM     18  N   LIG    1       32.630 -16.242   8.793  0.00  0.00    -0.329 NA
ATOM     19  H   LIG    1       33.197 -15.419   9.000  0.00  0.00    +0.118 HD
ATOM     20  H   LIG    1       33.191 -16.817   8.167  0.00  0.00    +0.118 HD
ENDBRANCH  17  18
ENDBRANCH  16  17
ENDBRANCH  14  16
ENDBRANCH  13  14
ENDBRANCH  12  13
ENDBRANCH   1  12
TORSDOF 12
ENDMDL
MODEL 2
REMARK VINA RESULT:      -5.2      1.112      7.419
REMARK  Name = *****
REMARK                            x       y       z     vdW  Elec       q    Type
REMARK                         _______ _______ _______ _____ _____    ______ ____
ROOT
ATOM      1  N   LIG    1       29.571 -20.623   6.628  0.00  0.00    -0.314 NA
ATOM      2  H   LIG    1       30.470 -20.502   6.163  0.00  0.00    +0.122 HD
ENDROOT
BRANCH   1   3
ATOM      3  C   LIG    1       29.742 -20.289   8.045  0.00  0.00    +0.096 C 
BRANCH   3   4
ATOM      4  C   LIG    1       31.037 -20.809   8.690  0.00  0.00    +0.096 C 
BRANCH   4   5
ATOM      5  N   LIG    1       31.998 -19.771   9.100  0.00  0.00    -0.314 NA
ATOM      6  H   LIG    1       32.927 -20.050   8.779  0.00  0.00    +0.122 HD
BRANCH   5   7
ATOM      7  C   LIG    1       31.715 -18.406   8.598  0.00  0.00    +0.096 C 
BRANCH   7   8
ATOM      8  C   LIG    1       31.983 -17.213   9.521  0.00  0.00    +0.092 C 
BRANCH   8   9
ATOM      9  N   LIG    1       32.663 -16.110   8.852  0.00  0.00    -0.329 NA
ATOM     10  H   LIG    1       32.001 -15.568   8.300  0.00  0.00    +0.118 HD
ATOM     11  H   LIG    1       33.092 -15.484   9.529  0.00  0.00    +0.118 HD
ENDBRANCH   8   9
ENDBRANCH   7   8
ENDBRANCH   5   7
ENDBRANCH   4   5
ENDBRANCH   3   4
ENDBRANCH   1   3
BRANCH   1  12
ATOM     12  C   LIG    1       28.587 -19.710   6.008  0.00  0.00    +0.096 C 
BRANCH  12  13
ATOM     13  C   LIG    1       27.125 -20.228   5.852  0.00  0.00    +0.096 C 
BRANCH  13  14
ATOM     14  N   LIG    1       26.491 -19.969   4.552  0.00  0.00    -0.314 NA
ATOM     15  H   LIG    1       26.442 -18.964   4.371  0.00  0.00    +0.122 HD
BRANCH  14  16
ATOM     16  C   LIG    1       25.142 -20.524   4.442  0.00  0.00    +0.096 C 
BRANCH  16  17
ATOM     17  C   LIG    1       24.866 -21.645   5.468  0.00  0.00    +0.092 C 
BRANCH  17  18
ATOM     18  N   LIG    1       24.689 -22.965   4.854  0.00  0.00    -0.329 NA
ATOM     19  H   LIG    1       25.402 -23.084   4.134  0.00  0.00    +0.118 HD
ATOM     20  H   LIG    1       24.868 -23.692   5.546  0.00  0.00    +0.118 HD
ENDBRANCH  17  18
ENDBRANCH  16  17
ENDBRANCH  14  16
ENDBRANCH  13  14
ENDBRANCH  12  13
ENDBRANCH   1  12
TORSDOF 12
ENDMDL
MODEL 3
REMARK VINA RESULT:      -5.1      1.915      3.745
REMARK  Name = *****
REMARK                            x       y       z     vdW  Elec       q    Type
REMARK                         _______ _______ _______ _____ _____    ______ ____
ROOT
ATOM      1  N   LIG    1       26.445 -19.897   4.432  0.00  0.00    -0.314 NA
ATOM      2  H   LIG    1       26.962 -20.361   3.686  0.00  0.00    +0.122 HD
ENDROOT
BRANCH   1   3
ATOM      3  C   LIG    1       25.070 -20.406   4.420  0.00  0.00    +0.096 C 
BRANCH   3   4
ATOM      4  C   LIG    1       24.782 -21.541   5.416  0.00  0.00    +0.096 C 
BRANCH   4   5
ATOM      5  N   LIG    1       24.710 -22.891   4.830  0.00  0.00    -0.314 NA
ATOM      6  H   LIG    1       25.332 -22.922   4.021  0.00  0.00    +0.122 HD
BRANCH   5   7
ATOM      7  C   LIG    1       25.065 -24.002   5.743  0.00  0.00    +0.096 C 
BRANCH   7   8
ATOM      8  C   LIG    1       23.938 -24.823   6.377  0.00  0.00    +0.092 C 
BRANCH   8   9
ATOM      9  N   LIG    1       22.723 -24.050   6.607  0.00  0.00    -0.329 NA
ATOM     10  H   LIG    1       22.188 -23.966   5.744  0.00  0.00    +0.118 HD
ATOM     11  H   LIG    1       22.130 -24.502   7.299  0.00  0.00    +0.118 HD
ENDBRANCH   8   9
ENDBRANCH   7   8
ENDBRANCH   5   7
ENDBRANCH   4   5
ENDBRANCH   3   4
ENDBRANCH   1   3
BRANCH   1  12
ATOM     12  C   LIG    1       27.089 -20.212   5.725  0.00  0.00    +0.096 C 
BRANCH  12  13
ATOM     13  C   LIG    1       28.574 -19.774   5.912  0.00  0.00    +0.096 C 
BRANCH  13  14
ATOM     14  N   LIG    1       29.432 -20.722   6.636  0.00  0.00    -0.314 NA
ATOM     15  H   LIG    1       28.963 -21.625   6.738  0.00  0.00    +0.122 HD
BRANCH  14  16
ATOM     16  C   LIG    1       29.824 -20.253   7.965  0.00  0.00    +0.096 C 
BRANCH  16  17
ATOM     17  C   LIG    1       31.164 -19.486   7.963  0.00  0.00    +0.092 C 
BRANCH  17  18
ATOM     18  N   LIG    1       31.993 -19.758   9.143  0.00  0.00    -0.329 NA
ATOM     19  H   LIG    1       31.407 -19.672   9.975  0.00  0.00    +0.118 HD
ATOM     20  H   LIG    1       32.310 -20.726   9.124  0.00  0.00    +0.118 HD
ENDBRANCH  17  18
ENDBRANCH  16  17
ENDBRANCH  14  16
ENDBRANCH  13  14
ENDBRANCH  12  13
ENDBRANCH   1  12
TORSDOF 12
ENDMDL
MODEL 4
REMARK VINA RESULT:      -5.1      2.070      6.562
REMARK  Name = *****
REMARK                            x       y       z     vdW  Elec       q    Type
REMARK                         _______ _______ _______ _____ _____    ______ ____
ROOT
ATOM      1  N   LIG    1       29.329 -21.314   7.264  0.00  0.00    -0.314 NA
ATOM      2  H   LIG    1       29.683 -22.048   6.651  0.00  0.00    +0.122 HD
ENDROOT
BRANCH   1   3
ATOM      3  C   LIG    1       30.348 -21.037   8.280  0.00  0.00    +0.096 C 
BRANCH   3   4
ATOM      4  C   LIG    1       31.112 -19.716   8.100  0.00  0.00    +0.096 C 
BRANCH   4   5
ATOM      5  N   LIG    1       31.962 -19.318   9.236  0.00  0.00    -0.314 NA
ATOM      6  H   LIG    1       32.935 -19.504   8.989  0.00  0.00    +0.122 HD
BRANCH   5   7
ATOM      7  C   LIG    1       31.843 -17.902   9.655  0.00  0.00    +0.096 C 
BRANCH   7   8
ATOM      8  C   LIG    1       30.446 -17.290   9.794  0.00  0.00    +0.092 C 
BRANCH   8   9
ATOM      9  N   LIG    1       30.259 -16.560  11.043  0.00  0.00    -0.329 NA
ATOM     10  H   LIG    1       30.235 -17.205  11.830  0.00  0.00    +0.118 HD
ATOM     11  H   LIG    1       31.021 -15.905  11.198  0.00  0.00    +0.118 HD
ENDBRANCH   8   9
ENDBRANCH   7   8
ENDBRANCH   5   7
ENDBRANCH   4   5
ENDBRANCH   3   4
ENDBRANCH   1   3
BRANCH   1  12
ATOM     12  C   LIG    1       29.075 -20.101   6.458  0.00  0.00    +0.096 C 
BRANCH  12  13
ATOM     13  C   LIG    1       27.694 -19.991   5.741  0.00  0.00    +0.096 C 
BRANCH  13  14
ATOM     14  N   LIG    1       26.733 -21.062   6.040  0.00  0.00    -0.314 NA
ATOM     15  H   LIG    1       26.383 -21.481   5.176  0.00  0.00    +0.122 HD
BRANCH  14  16
ATOM     16  C   LIG    1       25.589 -20.611   6.831  0.00  0.00    +0.096 C 
BRANCH  16  17
ATOM     17  C   LIG    1       25.885 -20.561   8.346  0.00  0.00    +0.092 C 
BRANCH  17  18
ATOM     18  N   LIG    1       26.656 -21.712   8.827  0.00  0.00    -0.329 NA
ATOM     19  H   LIG    1       26.019 -22.349   9.308  0.00  0.00    +0.118 HD
ATOM     20  H   LIG    1       27.025 -22.234   8.033  0.00  0.00    +0.118 HD
ENDBRANCH  17  18
ENDBRANCH  16  17
ENDBRANCH  14  16
ENDBRANCH  13  14
ENDBRANCH  12  13
ENDBRANCH   1  12
TORSDOF 12
ENDMDL
MODEL 5
REMARK VINA RESULT:      -5.1      2.629      7.486
REMARK  Name = *****
REMARK                            x       y       z     vdW  Elec       q    Type
REMARK                         _______ _______ _______ _____ _____    ______ ____
ROOT
ATOM      1  N   LIG    1       32.013 -19.552   9.135  0.00  0.00    -0.314 NA
ATOM      2  H   LIG    1       32.937 -19.902   8.885  0.00  0.00    +0.122 HD
ENDROOT
BRANCH   1   3
ATOM      3  C   LIG    1       31.802 -18.280   8.439  0.00  0.00    +0.096 C 
BRANCH   3   4
ATOM      4  C   LIG    1       32.173 -17.023   9.243  0.00  0.00    +0.096 C 
BRANCH   4   5
ATOM      5  N   LIG    1       32.665 -17.270  10.609  0.00  0.00    -0.314 NA
ATOM      6  H   LIG    1       33.555 -16.783  10.722  0.00  0.00    +0.122 HD
BRANCH   5   7
ATOM      7  C   LIG    1       31.754 -16.849  11.700  0.00  0.00    +0.096 C 
BRANCH   7   8
ATOM      8  C   LIG    1       32.357 -16.468  13.056  0.00  0.00    +0.092 C 
BRANCH   8   9
ATOM      9  N   LIG    1       32.850 -15.096  13.101  0.00  0.00    -0.329 NA
ATOM     10  H   LIG    1       32.548 -14.640  13.959  0.00  0.00    +0.118 HD
ATOM     11  H   LIG    1       33.867 -15.075  13.075  0.00  0.00    +0.118 HD
ENDBRANCH   8   9
ENDBRANCH   7   8
ENDBRANCH   5   7
ENDBRANCH   4   5
ENDBRANCH   3   4
ENDBRANCH   1   3
BRANCH   1  12
ATOM     12  C   LIG    1       30.998 -20.538   8.706  0.00  0.00    +0.096 C 
BRANCH  12  13
ATOM     13  C   LIG    1       29.843 -20.027   7.791  0.00  0.00    +0.096 C 
BRANCH  13  14
ATOM     14  N   LIG    1       29.114 -21.062   7.045  0.00  0.00    -0.314 NA
ATOM     15  H   LIG    1       28.818 -20.706   6.133  0.00  0.00    +0.122 HD
BRANCH  14  16
ATOM     16  C   LIG    1       27.934 -21.563   7.749  0.00  0.00    +0.096 C 
BRANCH  16  17
ATOM     17  C   LIG    1       26.812 -20.509   7.871  0.00  0.00    +0.092 C 
BRANCH  17  18
ATOM     18  N   LIG    1       26.100 -20.562   9.152  0.00  0.00    -0.329 NA
ATOM     19  H   LIG    1       25.154 -20.905   8.982  0.00  0.00    +0.118 HD
ATOM     20  H   LIG    1       26.540 -21.251   9.761  0.00  0.00    +0.118 HD
ENDBRANCH  17  18
ENDBRANCH  16  17
ENDBRANCH  14  16
ENDBRANCH  13  14
ENDBRANCH  12  13
ENDBRANCH   1  12
TORSDOF 12
ENDMDL
MODEL 6
REMARK VINA RESULT:      -5.0      1.903      7.805
REMARK  Name = *****
REMARK                            x       y       z     vdW  Elec       q    Type
REMARK                         _______ _______ _______ _____ _____    ______ ____
ROOT
ATOM      1  N   LIG    1       29.176 -21.130   6.910  0.00  0.00    -0.314 NA
ATOM      2  H   LIG    1       29.673 -21.544   6.122  0.00  0.00    +0.122 HD
ENDROOT
BRANCH   1   3
ATOM      3  C   LIG    1       30.046 -20.120   7.520  0.00  0.00    +0.096 C 
BRANCH   3   4
ATOM      4  C   LIG    1       31.128 -20.670   8.464  0.00  0.00    +0.096 C 
BRANCH   4   5
ATOM      5  N   LIG    1       31.822 -19.661   9.283  0.00  0.00    -0.314 NA
ATOM      6  H   LIG    1       32.789 -19.963   9.412  0.00  0.00    +0.122 HD
BRANCH   5   7
ATOM      7  C   LIG    1       31.826 -18.285   8.732  0.00  0.00    +0.096 C 
BRANCH   7   8
ATOM      8  C   LIG    1       32.231 -17.127   9.649  0.00  0.00    +0.092 C 
BRANCH   8   9
ATOM      9  N   LIG    1       32.680 -15.947   8.920  0.00  0.00    -0.329 NA
ATOM     10  H   LIG    1       33.181 -16.221   8.077  0.00  0.00    +0.118 HD
ATOM     11  H   LIG    1       31.891 -15.369   8.642  0.00  0.00    +0.118 HD
ENDBRANCH   8   9
ENDBRANCH   7   8
ENDBRANCH   5   7
ENDBRANCH   4   5
ENDBRANCH   3   4
ENDBRANCH   1   3
BRANCH   1  12
ATOM     12  C   LIG    1       27.936 -20.496   6.413  0.00  0.00    +0.096 C 
BRANCH  12  13
ATOM     13  C   LIG    1       26.583 -21.026   6.979  0.00  0.00    +0.096 C 
BRANCH  13  14
ATOM     14  N   LIG    1       25.882 -22.008   6.140  0.00  0.00    -0.314 NA
ATOM     15  H   LIG    1       25.157 -21.550   5.582  0.00  0.00    +0.122 HD
BRANCH  14  16
ATOM     16  C   LIG    1       25.260 -23.088   6.906  0.00  0.00    +0.096 C 
BRANCH  16  17
ATOM     17  C   LIG    1       23.722 -23.111   6.776  0.00  0.00    +0.092 C 
BRANCH  17  18
ATOM     18  N   LIG    1       23.176 -24.455   6.554  0.00  0.00    -0.329 NA
ATOM     19  H   LIG    1       23.845 -25.138   6.911  0.00  0.00    +0.118 HD
ATOM     20  H   LIG    1       22.330 -24.577   7.108  0.00  0.00    +0.118 HD
ENDBRANCH  17  18
ENDBRANCH  16  17
ENDBRANCH  14  16
ENDBRANCH  13  14
ENDBRANCH  12  13
ENDBRANCH   1  12
TORSDOF 12
ENDMDL
MODEL 7
REMARK VINA RESULT:      -5.0      2.336      2.593
REMARK  Name = *****
REMARK                            x       y       z     vdW  Elec       q    Type
REMARK                         _______ _______ _______ _____ _____    ______ ____
ROOT
ATOM      1  N   LIG    1       28.483 -21.227   8.317  0.00  0.00    -0.314 NA
ATOM      2  H   LIG    1       28.396 -21.123   9.328  0.00  0.00    +0.122 HD
ENDROOT
BRANCH   1   3
ATOM      3  C   LIG    1       27.386 -20.488   7.687  0.00  0.00    +0.096 C 
BRANCH   3   4
ATOM      4  C   LIG    1       25.986 -20.783   8.250  0.00  0.00    +0.096 C 
BRANCH   4   5
ATOM      5  N   LIG    1       25.479 -22.143   8.000  0.00  0.00    -0.314 NA
ATOM      6  H   LIG    1       24.924 -22.432   8.807  0.00  0.00    +0.122 HD
BRANCH   5   7
ATOM      7  C   LIG    1       24.656 -22.302   6.779  0.00  0.00    +0.096 C 
BRANCH   7   8
ATOM      8  C   LIG    1       23.191 -22.725   6.929  0.00  0.00    +0.092 C 
BRANCH   8   9
ATOM      9  N   LIG    1       22.963 -24.131   6.616  0.00  0.00    -0.329 NA
ATOM     10  H   LIG    1       22.091 -24.449   7.033  0.00  0.00    +0.118 HD
ATOM     11  H   LIG    1       22.900 -24.273   5.611  0.00  0.00    +0.118 HD
ENDBRANCH   8   9
ENDBRANCH   7   8
ENDBRANCH   5   7
ENDBRANCH   4   5
ENDBRANCH   3   4
ENDBRANCH   1   3
BRANCH   1  12
ATOM     12  C   LIG    1       29.782 -20.666   7.890  0.00  0.00    +0.096 C 
BRANCH  12  13
ATOM     13  C   LIG    1       31.040 -21.046   8.731  0.00  0.00    +0.096 C 
BRANCH  13  14
ATOM     14  N   LIG    1       31.917 -19.929   9.107  0.00  0.00    -0.314 NA
ATOM     15  H   LIG    1       31.856 -19.748  10.112  0.00  0.00    +0.122 HD
BRANCH  14  16
ATOM     16  C   LIG    1       31.614 -18.687   8.397  0.00  0.00    +0.096 C 
BRANCH  16  17
ATOM     17  C   LIG    1       31.711 -17.437   9.298  0.00  0.00    +0.092 C 
BRANCH  17  18
ATOM     18  N   LIG    1       32.577 -16.388   8.749  0.00  0.00    -0.329 NA
ATOM     19  H   LIG    1       32.938 -15.830   9.523  0.00  0.00    +0.118 HD
ATOM     20  H   LIG    1       33.391 -16.812   8.307  0.00  0.00    +0.118 HD
ENDBRANCH  17  18
ENDBRANCH  16  17
ENDBRANCH  14  16
ENDBRANCH  13  14
ENDBRANCH  12  13
ENDBRANCH   1  12
TORSDOF 12
ENDMDL
MODEL 8
REMARK VINA RESULT:      -5.0      1.359      1.518
REMARK  Name = *****
REMARK                            x       y       z     vdW  Elec       q    Type
REMARK                         _______ _______ _______ _____ _____    ______ ____
ROOT
ATOM      1  N   LIG    1       28.564 -19.796   8.411  0.00  0.00    -0.314 NA
ATOM      2  H   LIG    1       28.453 -18.782   8.423  0.00  0.00    +0.122 HD
ENDROOT
BRANCH   1   3
ATOM      3  C   LIG    1       27.435 -20.371   7.675  0.00  0.00    +0.096 C 
BRANCH   3   4
ATOM      4  C   LIG    1       27.586 -20.383   6.145  0.00  0.00    +0.096 C 
BRANCH   4   5
ATOM      5  N   LIG    1       26.324 -20.429   5.387  0.00  0.00    -0.314 NA
ATOM      6  H   LIG    1       26.412 -21.143   4.662  0.00  0.00    +0.122 HD
BRANCH   5   7
ATOM      7  C   LIG    1       25.110 -20.716   6.187  0.00  0.00    +0.096 C 
BRANCH   7   8
ATOM      8  C   LIG    1       24.160 -21.820   5.713  0.00  0.00    +0.092 C 
BRANCH   8   9
ATOM      9  N   LIG    1       24.811 -22.817   4.872  0.00  0.00    -0.329 NA
ATOM     10  H   LIG    1       25.652 -22.429   4.449  0.00  0.00    +0.118 HD
ATOM     11  H   LIG    1       25.082 -23.632   5.417  0.00  0.00    +0.118 HD
ENDBRANCH   8   9
ENDBRANCH   7   8
ENDBRANCH   5   7
ENDBRANCH   4   5
ENDBRANCH   3   4
ENDBRANCH   1   3
BRANCH   1  12
ATOM     12  C   LIG    1       29.834 -20.128   7.730  0.00  0.00    +0.096 C 
BRANCH  12  13
ATOM     13  C   LIG    1       30.996 -20.683   8.609  0.00  0.00    +0.096 C 
BRANCH  13  14
ATOM     14  N   LIG    1       31.949 -19.683   9.112  0.00  0.00    -0.314 NA
ATOM     15  H   LIG    1       31.827 -19.547  10.118  0.00  0.00    +0.122 HD
BRANCH  14  16
ATOM     16  C   LIG    1       31.829 -18.383   8.453  0.00  0.00    +0.096 C 
BRANCH  16  17
ATOM     17  C   LIG    1       31.933 -17.197   9.436  0.00  0.00    +0.092 C 
BRANCH  17  18
ATOM     18  N   LIG    1       32.685 -16.058   8.897  0.00  0.00    -0.329 NA
ATOM     19  H   LIG    1       33.626 -16.375   8.662  0.00  0.00    +0.118 HD
ATOM     20  H   LIG    1       32.266 -15.755   8.020  0.00  0.00    +0.118 HD
ENDBRANCH  17  18
ENDBRANCH  16  17
ENDBRANCH  14  16
ENDBRANCH  13  14
ENDBRANCH  12  13
ENDBRANCH   1  12
TORSDOF 12
ENDMDL
MODEL 9
REMARK VINA RESULT:      -5.0      1.637      2.687
REMARK  Name = *****
REMARK                            x       y       z     vdW  Elec       q    Type
REMARK                         _______ _______ _______ _____ _____    ______ ____
ROOT
ATOM      1  N   LIG    1       28.247 -19.456   5.300  0.00  0.00    -0.314 NA
ATOM      2  H   LIG    1       28.516 -20.024   4.497  0.00  0.00    +0.122 HD
ENDROOT
BRANCH   1   3
ATOM      3  C   LIG    1       27.939 -20.357   6.414  0.00  0.00    +0.096 C 
BRANCH   3   4
ATOM      4  C   LIG    1       26.443 -20.598   6.670  0.00  0.00    +0.096 C 
BRANCH   4   5
ATOM      5  N   LIG    1       25.858 -21.749   5.960  0.00  0.00    -0.314 NA
ATOM      6  H   LIG    1       25.473 -22.392   6.655  0.00  0.00    +0.122 HD
BRANCH   5   7
ATOM      7  C   LIG    1       24.797 -21.421   4.980  0.00  0.00    +0.096 C 
BRANCH   7   8
ATOM      8  C   LIG    1       24.680 -19.979   4.476  0.00  0.00    +0.092 C 
BRANCH   8   9
ATOM      9  N   LIG    1       25.640 -19.656   3.428  0.00  0.00    -0.329 NA
ATOM     10  H   LIG    1       26.378 -19.058   3.795  0.00  0.00    +0.118 HD
ATOM     11  H   LIG    1       26.074 -20.499   3.060  0.00  0.00    +0.118 HD
ENDBRANCH   8   9
ENDBRANCH   7   8
ENDBRANCH   5   7
ENDBRANCH   4   5
ENDBRANCH   3   4
ENDBRANCH   1   3
BRANCH   1  12
ATOM     12  C   LIG    1       29.377 -18.573   5.660  0.00  0.00    +0.096 C 
BRANCH  12  13
ATOM     13  C   LIG    1       30.510 -19.181   6.543  0.00  0.00    +0.096 C 
BRANCH  13  14
ATOM     14  N   LIG    1       31.012 -18.319   7.621  0.00  0.00    -0.314 NA
ATOM     15  H   LIG    1       31.767 -17.720   7.279  0.00  0.00    +0.122 HD
BRANCH  14  16
ATOM     16  C   LIG    1       31.503 -19.063   8.780  0.00  0.00    +0.096 C 
BRANCH  16  17
ATOM     17  C   LIG    1       31.114 -20.557   8.746  0.00  0.00    +0.092 C 
BRANCH  17  18
ATOM     18  N   LIG    1       32.081 -21.427   9.424  0.00  0.00    -0.329 NA
ATOM     19  H   LIG    1       32.348 -20.986  10.305  0.00  0.00    +0.118 HD
ATOM     20  H   LIG    1       31.632 -22.306   9.677  0.00  0.00    +0.118 HD
ENDBRANCH  17  18
ENDBRANCH  16  17
ENDBRANCH  14  16
ENDBRANCH  13  14
ENDBRANCH  12  13
ENDBRANCH   1  12
TORSDOF 12
ENDMDL
