MODEL 1
REMARK VINA RESULT:      -5.0      0.000      0.000
REMARK  Name = *****
REMARK                            x       y       z     vdW  Elec       q    Type
REMARK                         _______ _______ _______ _____ _____    ______ ____
ROOT
ATOM      1  C   LIG    1       26.313 -18.497   3.625  0.00  0.00    +0.069 C 
ENDROOT
BRANCH   1   2
ATOM      2  C   LIG    1       25.007 -19.264   3.877  0.00  0.00    -0.038 A 
ATOM      3  C   LIG    1       23.811 -18.574   4.139  0.00  0.00    +0.006 A 
ATOM      4  C   LIG    1       22.633 -19.272   4.433  0.00  0.00    +0.020 A 
ATOM      5  C   LIG    1       22.644 -20.662   4.466  0.00  0.00    +0.041 A 
ATOM      6 CL   LIG    1       21.204 -21.522   4.864  0.00  0.00    -0.084 Cl
ATOM      7  C   LIG    1       23.812 -21.366   4.194  0.00  0.00    +0.020 A 
ATOM      8  C   LIG    1       24.987 -20.669   3.900  0.00  0.00    +0.006 A 
ENDBRANCH   1   2
BRANCH   1   9
ATOM      9  C   LIG    1       27.378 -18.792   4.681  0.00  0.00    +0.049 A 
ATOM     10  N   LIG    1       28.526 -18.067   4.655  0.00  0.00    -0.259 NA
ATOM     11  C   LIG    1       29.475 -18.352   5.577  0.00  0.00    +0.111 A 
ATOM     12  C   LIG    1       29.339 -19.336   6.539  0.00  0.00    +0.020 A 
ATOM     13  C   LIG    1       28.152 -20.052   6.579  0.00  0.00    +0.003 A 
ATOM     14  C   LIG    1       27.151 -19.777   5.646  0.00  0.00    +0.024 A 
ENDBRANCH   1   9
BRANCH   1  15
ATOM     15  C   LIG    1       26.015 -16.980   3.485  0.00  0.00    +0.029 C 
BRANCH  15  16
ATOM     16  C   LIG    1       27.243 -16.063   3.649  0.00  0.00    +0.085 C 
BRANCH  16  18
ATOM     17  C   LIG    1       25.732 -14.204   3.164  0.00  0.00    +0.104 C 
ATOM     18  N   LIG    1       27.093 -14.728   3.040  0.00  0.00    -0.308 NA
ATOM     19  C   LIG    1       28.042 -13.781   3.634  0.00  0.00    +0.104 C 
ENDBRANCH  16  18
ENDBRANCH  15  16
ENDBRANCH   1  15
TORSDOF 5
ENDMDL
MODEL 2
REMARK VINA RESULT:      -4.5      2.776      5.564
REMARK  Name = *****
REMARK                            x       y       z     vdW  Elec       q    Type
REMARK                         _______ _______ _______ _____ _____    ______ ____
ROOT
ATOM      1  C   LIG    1       25.578 -18.022   3.340  0.00  0.00    +0.069 C 
ENDROOT
BRANCH   1   2
ATOM      2  C   LIG    1       25.200 -16.550   3.552  0.00  0.00    -0.038 A 
ATOM      3  C   LIG    1       26.152 -15.532   3.363  0.00  0.00    +0.006 A 
ATOM      4  C   LIG    1       25.829 -14.194   3.619  0.00  0.00    +0.020 A 
ATOM      5  C   LIG    1       24.552 -13.866   4.064  0.00  0.00    +0.041 A 
ATOM      6 CL   LIG    1       24.162 -12.223   4.413  0.00  0.00    -0.084 Cl
ATOM      7  C   LIG    1       23.590 -14.854   4.241  0.00  0.00    +0.020 A 
ATOM      8  C   LIG    1       23.913 -16.189   3.986  0.00  0.00    +0.006 A 
ENDBRANCH   1   2
BRANCH   1   9
ATOM      9  C   LIG    1       24.493 -18.981   3.831  0.00  0.00    +0.049 A 
ATOM     10  N   LIG    1       24.721 -20.316   3.727  0.00  0.00    -0.259 NA
ATOM     11  C   LIG    1       23.745 -21.158   4.139  0.00  0.00    +0.111 A 
ATOM     12  C   LIG    1       22.535 -20.736   4.659  0.00  0.00    +0.020 A 
ATOM     13  C   LIG    1       22.322 -19.372   4.791  0.00  0.00    +0.003 A 
ATOM     14  C   LIG    1       23.312 -18.477   4.382  0.00  0.00    +0.024 A 
ENDBRANCH   1   9
BRANCH   1  15
ATOM     15  C   LIG    1       26.963 -18.309   3.980  0.00  0.00    +0.029 C 
BRANCH  15  16
ATOM     16  C   LIG    1       26.964 -19.428   5.040  0.00  0.00    +0.085 C 
BRANCH  16  18
ATOM     17  C   LIG    1       29.193 -18.580   5.577  0.00  0.00    +0.104 C 
ATOM     18  N   LIG    1       28.293 -19.735   5.601  0.00  0.00    -0.308 NA
ATOM     19  C   LIG    1       28.170 -20.234   6.976  0.00  0.00    +0.104 C 
ENDBRANCH  16  18
ENDBRANCH  15  16
ENDBRANCH   1  15
TORSDOF 5
ENDMDL
MODEL 3
REMARK VINA RESULT:      -4.5      2.596      5.511
REMARK  Name = *****
REMARK                            x       y       z     vdW  Elec       q    Type
REMARK                         _______ _______ _______ _____ _____    ______ ____
ROOT
ATOM      1  C   LIG    1       25.652 -17.829   3.394  0.00  0.00    +0.069 C 
ENDROOT
BRANCH   1   2
ATOM      2  C   LIG    1       26.595 -18.545   4.371  0.00  0.00    -0.038 A 
ATOM      3  C   LIG    1       27.886 -18.046   4.615  0.00  0.00    +0.006 A 
ATOM      4  C   LIG    1       28.772 -18.732   5.454  0.00  0.00    +0.020 A 
ATOM      5  C   LIG    1       28.371 -19.921   6.055  0.00  0.00    +0.041 A 
ATOM      6 CL   LIG    1       29.472 -20.787   7.060  0.00  0.00    -0.084 Cl
ATOM      7  C   LIG    1       27.093 -20.425   5.841  0.00  0.00    +0.020 A 
ATOM      8  C   LIG    1       26.210 -19.740   5.004  0.00  0.00    +0.006 A 
ENDBRANCH   1   2
BRANCH   1   9
ATOM      9  C   LIG    1       25.778 -16.307   3.470  0.00  0.00    +0.049 A 
ATOM     10  N   LIG    1       26.935 -15.737   3.044  0.00  0.00    -0.259 NA
ATOM     11  C   LIG    1       27.049 -14.392   3.139  0.00  0.00    +0.111 A 
ATOM     12  C   LIG    1       26.056 -13.570   3.643  0.00  0.00    +0.020 A 
ATOM     13  C   LIG    1       24.866 -14.156   4.047  0.00  0.00    +0.003 A 
ATOM     14  C   LIG    1       24.715 -15.540   3.955  0.00  0.00    +0.024 A 
ENDBRANCH   1   9
BRANCH   1  15
ATOM     15  C   LIG    1       24.195 -18.319   3.612  0.00  0.00    +0.029 C 
BRANCH  15  16
ATOM     16  C   LIG    1       23.995 -19.838   3.452  0.00  0.00    +0.085 C 
BRANCH  16  18
ATOM     17  C   LIG    1       23.432 -21.561   5.092  0.00  0.00    +0.104 C 
ATOM     18  N   LIG    1       22.952 -20.411   4.324  0.00  0.00    -0.308 NA
ATOM     19  C   LIG    1       22.427 -19.391   5.238  0.00  0.00    +0.104 C 
ENDBRANCH  16  18
ENDBRANCH  15  16
ENDBRANCH   1  15
TORSDOF 5
ENDMDL
MODEL 4
REMARK VINA RESULT:      -4.4      2.817      5.063
REMARK  Name = *****
REMARK                            x       y       z     vdW  Elec       q    Type
REMARK                         _______ _______ _______ _____ _____    ______ ____
ROOT
ATOM      1  C   LIG    1       25.416 -15.146   4.122  0.00  0.00    +0.069 C 
ENDROOT
BRANCH   1   2
ATOM      2  C   LIG    1       24.417 -16.310   4.079  0.00  0.00    -0.038 A 
ATOM      3  C   LIG    1       23.080 -16.121   4.471  0.00  0.00    +0.006 A 
ATOM      4  C   LIG    1       22.183 -17.196   4.495  0.00  0.00    +0.020 A 
ATOM      5  C   LIG    1       22.617 -18.466   4.127  0.00  0.00    +0.041 A 
ATOM      6 CL   LIG    1       21.524 -19.797   4.190  0.00  0.00    -0.084 Cl
ATOM      7  C   LIG    1       23.931 -18.673   3.720  0.00  0.00    +0.020 A 
ATOM      8  C   LIG    1       24.825 -17.600   3.697  0.00  0.00    +0.006 A 
ENDBRANCH   1   2
BRANCH   1   9
ATOM      9  C   LIG    1       24.813 -13.839   3.605  0.00  0.00    +0.049 A 
ATOM     10  N   LIG    1       24.805 -13.623   2.263  0.00  0.00    -0.259 NA
ATOM     11  C   LIG    1       24.294 -12.453   1.815  0.00  0.00    +0.111 A 
ATOM     12  C   LIG    1       23.781 -11.471   2.643  0.00  0.00    +0.020 A 
ATOM     13  C   LIG    1       23.765 -11.712   4.009  0.00  0.00    +0.003 A 
ATOM     14  C   LIG    1       24.278 -12.912   4.503  0.00  0.00    +0.024 A 
ENDBRANCH   1   9
BRANCH   1  15
ATOM     15  C   LIG    1       26.718 -15.540   3.375  0.00  0.00    +0.029 C 
BRANCH  15  16
ATOM     16  C   LIG    1       28.001 -14.886   3.926  0.00  0.00    +0.085 C 
BRANCH  16  18
ATOM     17  C   LIG    1       27.750 -13.129   5.606  0.00  0.00    +0.104 C 
ATOM     18  N   LIG    1       27.886 -13.438   4.182  0.00  0.00    -0.308 NA
ATOM     19  C   LIG    1       29.043 -12.724   3.631  0.00  0.00    +0.104 C 
ENDBRANCH  16  18
ENDBRANCH  15  16
ENDBRANCH   1  15
TORSDOF 5
ENDMDL
MODEL 5
REMARK VINA RESULT:      -4.1      2.804      5.563
REMARK  Name = *****
REMARK                            x       y       z     vdW  Elec       q    Type
REMARK                         _______ _______ _______ _____ _____    ______ ____
ROOT
ATOM      1  C   LIG    1       25.468 -17.994   3.318  0.00  0.00    +0.069 C 
ENDROOT
BRANCH   1   2
ATOM      2  C   LIG    1       25.143 -16.523   3.613  0.00  0.00    -0.038 A 
ATOM      3  C   LIG    1       23.865 -16.150   4.066  0.00  0.00    +0.006 A 
ATOM      4  C   LIG    1       23.545 -14.803   4.274  0.00  0.00    +0.020 A 
ATOM      5  C   LIG    1       24.501 -13.821   4.030  0.00  0.00    +0.041 A 
ATOM      6 CL   LIG    1       24.099 -12.159   4.251  0.00  0.00    -0.084 Cl
ATOM      7  C   LIG    1       25.776 -14.168   3.598  0.00  0.00    +0.020 A 
ATOM      8  C   LIG    1       26.094 -15.513   3.391  0.00  0.00    +0.006 A 
ENDBRANCH   1   2
BRANCH   1   9
ATOM      9  C   LIG    1       24.392 -18.947   3.839  0.00  0.00    +0.049 A 
ATOM     10  N   LIG    1       23.241 -18.412   4.323  0.00  0.00    -0.259 NA
ATOM     11  C   LIG    1       22.304 -19.260   4.807  0.00  0.00    +0.111 A 
ATOM     12  C   LIG    1       22.453 -20.635   4.834  0.00  0.00    +0.020 A 
ATOM     13  C   LIG    1       23.618 -21.176   4.310  0.00  0.00    +0.003 A 
ATOM     14  C   LIG    1       24.601 -20.328   3.797  0.00  0.00    +0.024 A 
ENDBRANCH   1   9
BRANCH   1  15
ATOM     15  C   LIG    1       26.883 -18.340   3.855  0.00  0.00    +0.029 C 
BRANCH  15  16
ATOM     16  C   LIG    1       26.897 -19.281   5.075  0.00  0.00    +0.085 C 
BRANCH  16  18
ATOM     17  C   LIG    1       29.171 -18.657   5.718  0.00  0.00    +0.104 C 
ATOM     18  N   LIG    1       28.238 -19.756   5.463  0.00  0.00    -0.308 NA
ATOM     19  C   LIG    1       28.157 -20.619   6.647  0.00  0.00    +0.104 C 
ENDBRANCH  16  18
ENDBRANCH  15  16
ENDBRANCH   1  15
TORSDOF 5
ENDMDL
MODEL 6
REMARK VINA RESULT:      -3.9      2.538      4.573
REMARK  Name = *****
REMARK                            x       y       z     vdW  Elec       q    Type
REMARK                         _______ _______ _______ _____ _____    ______ ____
ROOT
ATOM      1  C   LIG    1       25.245 -14.868   3.168  0.00  0.00    +0.069 C 
ENDROOT
BRANCH   1   2
ATOM      2  C   LIG    1       25.191 -16.371   3.476  0.00  0.00    -0.038 A 
ATOM      3  C   LIG    1       26.341 -17.169   3.346  0.00  0.00    +0.006 A 
ATOM      4  C   LIG    1       26.281 -18.551   3.563  0.00  0.00    +0.020 A 
ATOM      5  C   LIG    1       25.070 -19.142   3.912  0.00  0.00    +0.041 A 
ATOM      6 CL   LIG    1       24.985 -20.848   4.144  0.00  0.00    -0.084 Cl
ATOM      7  C   LIG    1       23.924 -18.370   4.061  0.00  0.00    +0.020 A 
ATOM      8  C   LIG    1       23.985 -16.991   3.845  0.00  0.00    +0.006 A 
ENDBRANCH   1   2
BRANCH   1   9
ATOM      9  C   LIG    1       26.438 -14.178   3.829  0.00  0.00    +0.049 A 
ATOM     10  N   LIG    1       26.369 -13.911   5.159  0.00  0.00    -0.259 NA
ATOM     11  C   LIG    1       27.418 -13.277   5.732  0.00  0.00    +0.111 A 
ATOM     12  C   LIG    1       28.551 -12.888   5.041  0.00  0.00    +0.020 A 
ATOM     13  C   LIG    1       28.628 -13.191   3.689  0.00  0.00    +0.003 A 
ATOM     14  C   LIG    1       27.566 -13.851   3.071  0.00  0.00    +0.024 A 
ENDBRANCH   1   9
BRANCH   1  15
ATOM     15  C   LIG    1       23.891 -14.205   3.538  0.00  0.00    +0.029 C 
BRANCH  15  16
ATOM     16  C   LIG    1       23.353 -13.208   2.493  0.00  0.00    +0.085 C 
BRANCH  16  18
ATOM     17  C   LIG    1       23.842 -11.510   4.181  0.00  0.00    +0.104 C 
ATOM     18  N   LIG    1       23.709 -11.800   2.753  0.00  0.00    -0.308 NA
ATOM     19  C   LIG    1       24.954 -11.447   2.060  0.00  0.00    +0.104 C 
ENDBRANCH  16  18
ENDBRANCH  15  16
ENDBRANCH   1  15
TORSDOF 5
ENDMDL
MODEL 7
REMARK VINA RESULT:      -3.4      2.797      4.801
REMARK  Name = *****
REMARK                            x       y       z     vdW  Elec       q    Type
REMARK                         _______ _______ _______ _____ _____    ______ ____
ROOT
ATOM      1  C   LIG    1       26.705 -15.732   3.286  0.00  0.00    +0.069 C 
ENDROOT
BRANCH   1   2
ATOM      2  C   LIG    1       27.152 -17.044   3.946  0.00  0.00    -0.038 A 
ATOM      3  C   LIG    1       26.317 -18.175   3.928  0.00  0.00    +0.006 A 
ATOM      4  C   LIG    1       26.693 -19.353   4.584  0.00  0.00    +0.020 A 
ATOM      5  C   LIG    1       27.908 -19.408   5.261  0.00  0.00    +0.041 A 
ATOM      6 CL   LIG    1       28.358 -20.845   6.100  0.00  0.00    -0.084 Cl
ATOM      7  C   LIG    1       28.758 -18.307   5.277  0.00  0.00    +0.020 A 
ATOM      8  C   LIG    1       28.381 -17.132   4.622  0.00  0.00    +0.006 A 
ENDBRANCH   1   2
BRANCH   1   9
ATOM      9  C   LIG    1       27.363 -14.506   3.920  0.00  0.00    +0.049 A 
ATOM     10  N   LIG    1       28.294 -13.831   3.196  0.00  0.00    -0.259 NA
ATOM     11  C   LIG    1       28.892 -12.763   3.774  0.00  0.00    +0.111 A 
ATOM     12  C   LIG    1       28.606 -12.322   5.053  0.00  0.00    +0.020 A 
ATOM     13  C   LIG    1       27.632 -12.997   5.774  0.00  0.00    +0.003 A 
ATOM     14  C   LIG    1       26.993 -14.098   5.204  0.00  0.00    +0.024 A 
ENDBRANCH   1   9
BRANCH   1  15
ATOM     15  C   LIG    1       25.156 -15.644   3.284  0.00  0.00    +0.029 C 
BRANCH  15  16
ATOM     16  C   LIG    1       24.578 -14.427   4.033  0.00  0.00    +0.085 C 
BRANCH  16  18
ATOM     17  C   LIG    1       23.855 -12.101   3.835  0.00  0.00    +0.104 C 
ATOM     18  N   LIG    1       23.997 -13.391   3.159  0.00  0.00    -0.308 NA
ATOM     19  C   LIG    1       24.808 -13.227   1.947  0.00  0.00    +0.104 C 
ENDBRANCH  16  18
ENDBRANCH  15  16
ENDBRANCH   1  15
TORSDOF 5
ENDMDL
MODEL 8
REMARK VINA RESULT:      -3.2      2.899      5.101
REMARK  Name = *****
REMARK                            x       y       z     vdW  Elec       q    Type
REMARK                         _______ _______ _______ _____ _____    ______ ____
ROOT
ATOM      1  C   LIG    1       25.783 -19.141   4.576  0.00  0.00    +0.069 C 
ENDROOT
BRANCH   1   2
ATOM      2  C   LIG    1       26.204 -17.741   4.109  0.00  0.00    -0.038 A 
ATOM      3  C   LIG    1       27.503 -17.264   4.358  0.00  0.00    +0.006 A 
ATOM      4  C   LIG    1       27.870 -15.963   3.990  0.00  0.00    +0.020 A 
ATOM      5  C   LIG    1       26.940 -15.134   3.371  0.00  0.00    +0.041 A 
ATOM      6 CL   LIG    1       27.378 -13.520   2.950  0.00  0.00    -0.084 Cl
ATOM      7  C   LIG    1       25.655 -15.590   3.100  0.00  0.00    +0.020 A 
ATOM      8  C   LIG    1       25.290 -16.888   3.467  0.00  0.00    +0.006 A 
ENDBRANCH   1   2
BRANCH   1   9
ATOM      9  C   LIG    1       26.864 -19.828   5.412  0.00  0.00    +0.049 A 
ATOM     10  N   LIG    1       28.154 -19.441   5.235  0.00  0.00    -0.259 NA
ATOM     11  C   LIG    1       29.108 -20.072   5.959  0.00  0.00    +0.111 A 
ATOM     12  C   LIG    1       28.842 -21.083   6.864  0.00  0.00    +0.020 A 
ATOM     13  C   LIG    1       27.519 -21.451   7.062  0.00  0.00    +0.003 A 
ATOM     14  C   LIG    1       26.512 -20.815   6.336  0.00  0.00    +0.024 A 
ENDBRANCH   1   9
BRANCH   1  15
ATOM     15  C   LIG    1       25.339 -19.994   3.357  0.00  0.00    +0.029 C 
BRANCH  15  16
ATOM     16  C   LIG    1       23.891 -20.517   3.429  0.00  0.00    +0.085 C 
BRANCH  16  18
ATOM     17  C   LIG    1       22.251 -18.899   4.245  0.00  0.00    +0.104 C 
ATOM     18  N   LIG    1       23.122 -20.025   4.587  0.00  0.00    -0.308 NA
ATOM     19  C   LIG    1       22.322 -21.107   5.172  0.00  0.00    +0.104 C 
ENDBRANCH  16  18
ENDBRANCH  15  16
ENDBRANCH   1  15
TORSDOF 5
ENDMDL
MODEL 9
REMARK VINA RESULT:      -3.1      2.910      5.852
REMARK  Name = *****
REMARK                            x       y       z     vdW  Elec       q    Type
REMARK                         _______ _______ _______ _____ _____    ______ ____
ROOT
ATOM      1  C   LIG    1       26.070 -18.751   3.478  0.00  0.00    +0.069 C 
ENDROOT
BRANCH   1   2
ATOM      2  C   LIG    1       26.429 -17.262   3.586  0.00  0.00    -0.038 A 
ATOM      3  C   LIG    1       25.520 -16.274   3.170  0.00  0.00    +0.006 A 
ATOM      4  C   LIG    1       25.870 -14.919   3.207  0.00  0.00    +0.020 A 
ATOM      5  C   LIG    1       27.131 -14.544   3.660  0.00  0.00    +0.041 A 
ATOM      6 CL   LIG    1       27.577 -12.879   3.672  0.00  0.00    -0.084 Cl
ATOM      7  C   LIG    1       28.040 -15.503   4.093  0.00  0.00    +0.020 A 
ATOM      8  C   LIG    1       27.690 -16.855   4.056  0.00  0.00    +0.006 A 
ENDBRANCH   1   2
BRANCH   1   9
ATOM      9  C   LIG    1       24.652 -19.047   3.970  0.00  0.00    +0.049 A 
ATOM     10  N   LIG    1       23.698 -18.097   3.787  0.00  0.00    -0.259 NA
ATOM     11  C   LIG    1       22.452 -18.356   4.249  0.00  0.00    +0.111 A 
ATOM     12  C   LIG    1       22.100 -19.528   4.892  0.00  0.00    +0.020 A 
ATOM     13  C   LIG    1       23.072 -20.505   5.049  0.00  0.00    +0.003 A 
ATOM     14  C   LIG    1       24.364 -20.272   4.577  0.00  0.00    +0.024 A 
ENDBRANCH   1   9
BRANCH   1  15
ATOM     15  C   LIG    1       27.143 -19.607   4.201  0.00  0.00    +0.029 C 
BRANCH  15  16
ATOM     16  C   LIG    1       26.757 -20.061   5.622  0.00  0.00    +0.085 C 
BRANCH  16  18
ATOM     17  C   LIG    1       28.279 -21.335   7.050  0.00  0.00    +0.104 C 
ATOM     18  N   LIG    1       27.860 -20.006   6.601  0.00  0.00    -0.308 NA
ATOM     19  C   LIG    1       29.011 -19.289   6.041  0.00  0.00    +0.104 C 
ENDBRANCH  16  18
ENDBRANCH  15  16
ENDBRANCH   1  15
TORSDOF 5
ENDMDL
