MODEL 1
REMARK VINA RESULT:      -3.4      0.000      0.000
REMARK  Name = *****
REMARK                            x       y       z     vdW  Elec       q    Type
REMARK                         _______ _______ _______ _____ _____    ______ ____
ROOT
ATOM      1  C   LIG    1       23.757 -18.002   4.113  0.00  0.00    +0.170 A 
ATOM      2  C   LIG    1       23.065 -16.727   4.372  0.00  0.00    +0.180 A 
ATOM      3  F   LIG    1       21.793 -16.641   4.770  0.00  0.00    -0.200 F 
ATOM      4  C   LIG    1       23.790 -15.633   4.209  0.00  0.00    +0.135 A 
ATOM      5  N   LIG    1       25.109 -15.703   3.817  0.00  0.00    -0.267 N 
ATOM      6  C   LIG    1       25.672 -16.921   3.418  0.00  0.00    +0.352 A 
ATOM      7  O   LIG    1       26.761 -16.992   2.860  0.00  0.00    -0.244 OA
ATOM      8  N   LIG    1       24.965 -18.082   3.671  0.00  0.00    -0.175 NA
ENDROOT
BRANCH   5   9
ATOM      9  C   LIG    1       25.828 -14.440   3.715  0.00  0.00    +0.255 C 
ATOM     10  C   LIG    1       26.157 -13.909   2.313  0.00  0.00    +0.195 C 
ATOM     11  C   LIG    1       26.211 -12.416   2.583  0.00  0.00    +0.176 C 
ATOM     12  C   LIG    1       25.154 -12.219   3.673  0.00  0.00    +0.149 C 
ATOM     13  C   LIG    1       23.749 -11.981   3.144  0.00  0.00    +0.040 C 
ATOM     14  O   LIG    1       25.116 -13.432   4.446  0.00  0.00    -0.348 OA
BRANCH  10  15
ATOM     15  O   LIG    1       27.398 -14.412   1.812  0.00  0.00    -0.385 OA
ATOM     16  H   LIG    1       27.154 -15.149   1.213  0.00  0.00    +0.210 HD
ENDBRANCH  10  15
BRANCH  11  17
ATOM     17  O   LIG    1       27.528 -12.117   3.086  0.00  0.00    -0.387 OA
ATOM     18  H   LIG    1       27.913 -12.955   3.403  0.00  0.00    +0.210 HD
ENDBRANCH  11  17
ENDBRANCH   5   9
BRANCH   1  20
ATOM     19  C   LIG    1       21.822 -19.554   4.271  0.00  0.00    +0.406 C 
ATOM     20  N   LIG    1       23.141 -19.204   4.329  0.00  0.00    -0.233 N 
ATOM     21  H   LIG    1       23.760 -19.945   4.633  0.00  0.00    +0.160 HD
ATOM     22  O   LIG    1       20.895 -18.887   3.825  0.00  0.00    -0.226 OA
BRANCH  19  23
ATOM     23  O   LIG    1       21.652 -20.802   4.765  0.00  0.00    -0.450 OA
BRANCH  23  24
ATOM     24  C   LIG    1       22.872 -21.431   5.191  0.00  0.00    +0.234 C 
BRANCH  24  25
ATOM     25  C   LIG    1       23.094 -21.286   6.703  0.00  0.00    +0.041 C 
BRANCH  25  26
ATOM     26  C   LIG    1       24.530 -20.896   7.062  0.00  0.00    +0.003 C 
BRANCH  26  28
ATOM     27  C   LIG    1       26.874 -20.437   6.198  0.00  0.00    +0.004 C 
ATOM     28  C   LIG    1       25.504 -21.022   5.887  0.00  0.00    -0.003 C 
ENDBRANCH  26  28
ENDBRANCH  25  26
ENDBRANCH  24  25
ENDBRANCH  23  24
ENDBRANCH  19  23
ENDBRANCH   1  20
TORSDOF 9
ENDMDL
MODEL 2
REMARK VINA RESULT:      -1.9      1.960      7.112
REMARK  Name = *****
REMARK                            x       y       z     vdW  Elec       q    Type
REMARK                         _______ _______ _______ _____ _____    ______ ____
ROOT
ATOM      1  C   LIG    1       25.361 -15.670   3.623  0.00  0.00    +0.170 A 
ATOM      2  C   LIG    1       24.017 -15.525   4.209  0.00  0.00    +0.180 A 
ATOM      3  F   LIG    1       23.483 -14.351   4.557  0.00  0.00    -0.200 F 
ATOM      4  C   LIG    1       23.329 -16.644   4.361  0.00  0.00    +0.135 A 
ATOM      5  N   LIG    1       23.856 -17.861   3.991  0.00  0.00    -0.267 N 
ATOM      6  C   LIG    1       25.196 -17.971   3.600  0.00  0.00    +0.352 A 
ATOM      7  O   LIG    1       25.760 -19.052   3.476  0.00  0.00    -0.244 OA
ATOM      8  N   LIG    1       25.899 -16.808   3.344  0.00  0.00    -0.175 NA
ENDROOT
BRANCH   5   9
ATOM      9  C   LIG    1       22.995 -19.024   4.157  0.00  0.00    +0.255 C 
ATOM     10  C   LIG    1       23.590 -20.409   3.869  0.00  0.00    +0.195 C 
ATOM     11  C   LIG    1       22.734 -21.277   4.774  0.00  0.00    +0.176 C 
ATOM     12  C   LIG    1       22.460 -20.367   5.974  0.00  0.00    +0.149 C 
ATOM     13  C   LIG    1       23.519 -20.432   7.062  0.00  0.00    +0.040 C 
ATOM     14  O   LIG    1       22.441 -19.015   5.481  0.00  0.00    -0.348 OA
BRANCH  10  15
ATOM     15  O   LIG    1       23.470 -20.783   2.493  0.00  0.00    -0.385 OA
ATOM     16  H   LIG    1       24.215 -20.336   2.040  0.00  0.00    +0.210 HD
ENDBRANCH  10  15
BRANCH  11  17
ATOM     17  O   LIG    1       21.516 -21.571   4.063  0.00  0.00    -0.387 OA
ATOM     18  H   LIG    1       20.994 -20.748   4.033  0.00  0.00    +0.210 HD
ENDBRANCH  11  17
ENDBRANCH   5   9
BRANCH   1  20
ATOM     19  C   LIG    1       25.883 -13.485   2.561  0.00  0.00    +0.406 C 
ATOM     20  N   LIG    1       26.136 -14.580   3.336  0.00  0.00    -0.233 N 
ATOM     21  H   LIG    1       27.072 -14.617   3.720  0.00  0.00    +0.160 HD
ATOM     22  O   LIG    1       24.805 -13.145   2.083  0.00  0.00    -0.226 OA
BRANCH  19  23
ATOM     23  O   LIG    1       27.015 -12.763   2.395  0.00  0.00    -0.450 OA
BRANCH  23  24
ATOM     24  C   LIG    1       28.204 -13.434   2.844  0.00  0.00    +0.234 C 
BRANCH  24  25
ATOM     25  C   LIG    1       29.086 -12.522   3.707  0.00  0.00    +0.041 C 
BRANCH  25  26
ATOM     26  C   LIG    1       28.497 -12.262   5.096  0.00  0.00    +0.003 C 
BRANCH  26  28
ATOM     27  C   LIG    1       26.552 -13.326   6.334  0.00  0.00    +0.004 C 
ATOM     28  C   LIG    1       27.951 -13.524   5.768  0.00  0.00    -0.003 C 
ENDBRANCH  26  28
ENDBRANCH  25  26
ENDBRANCH  24  25
ENDBRANCH  23  24
ENDBRANCH  19  23
ENDBRANCH   1  20
TORSDOF 9
ENDMDL
MODEL 3
REMARK VINA RESULT:      -1.6      2.704      7.006
REMARK  Name = *****
REMARK                            x       y       z     vdW  Elec       q    Type
REMARK                         _______ _______ _______ _____ _____    ______ ____
ROOT
ATOM      1  C   LIG    1       26.338 -15.997   3.192  0.00  0.00    +0.170 A 
ATOM      2  C   LIG    1       27.607 -15.999   3.942  0.00  0.00    +0.180 A 
ATOM      3  F   LIG    1       28.383 -14.923   4.090  0.00  0.00    -0.200 F 
ATOM      4  C   LIG    1       27.944 -17.149   4.501  0.00  0.00    +0.135 A 
ATOM      5  N   LIG    1       27.148 -18.265   4.375  0.00  0.00    -0.267 N 
ATOM      6  C   LIG    1       26.044 -18.262   3.513  0.00  0.00    +0.352 A 
ATOM      7  O   LIG    1       25.444 -19.285   3.206  0.00  0.00    -0.244 OA
ATOM      8  N   LIG    1       25.621 -17.050   2.999  0.00  0.00    -0.175 NA
ENDROOT
BRANCH   5   9
ATOM      9  C   LIG    1       27.590 -19.467   5.070  0.00  0.00    +0.255 C 
ATOM     10  C   LIG    1       28.079 -19.323   6.518  0.00  0.00    +0.195 C 
ATOM     11  C   LIG    1       27.761 -20.704   7.061  0.00  0.00    +0.176 C 
ATOM     12  C   LIG    1       26.485 -21.091   6.308  0.00  0.00    +0.149 C 
ATOM     13  C   LIG    1       25.201 -20.629   6.978  0.00  0.00    +0.040 C 
ATOM     14  O   LIG    1       26.546 -20.450   5.021  0.00  0.00    -0.348 OA
BRANCH  10  15
ATOM     15  O   LIG    1       29.475 -19.020   6.598  0.00  0.00    -0.385 OA
ATOM     16  H   LIG    1       29.523 -18.044   6.667  0.00  0.00    +0.210 HD
ENDBRANCH  10  15
BRANCH  11  17
ATOM     17  O   LIG    1       28.853 -21.572   6.699  0.00  0.00    -0.387 OA
ATOM     18  H   LIG    1       29.456 -21.055   6.133  0.00  0.00    +0.210 HD
ENDBRANCH  11  17
ENDBRANCH   5   9
BRANCH   1  20
ATOM     19  C   LIG    1       26.253 -13.552   2.751  0.00  0.00    +0.406 C 
ATOM     20  N   LIG    1       25.838 -14.849   2.642  0.00  0.00    -0.233 N 
ATOM     21  H   LIG    1       24.987 -14.975   2.108  0.00  0.00    +0.160 HD
ATOM     22  O   LIG    1       27.304 -13.147   3.236  0.00  0.00    -0.226 OA
BRANCH  19  23
ATOM     23  O   LIG    1       25.334 -12.723   2.205  0.00  0.00    -0.450 OA
BRANCH  23  24
ATOM     24  C   LIG    1       24.476 -12.090   3.170  0.00  0.00    +0.234 C 
BRANCH  24  25
ATOM     25  C   LIG    1       24.124 -13.032   4.329  0.00  0.00    +0.041 C 
BRANCH  25  26
ATOM     26  C   LIG    1       23.241 -14.206   3.899  0.00  0.00    +0.003 C 
BRANCH  26  28
ATOM     27  C   LIG    1       22.318 -16.497   4.487  0.00  0.00    +0.004 C 
ATOM     28  C   LIG    1       23.121 -15.297   4.966  0.00  0.00    -0.003 C 
ENDBRANCH  26  28
ENDBRANCH  25  26
ENDBRANCH  24  25
ENDBRANCH  23  24
ENDBRANCH  19  23
ENDBRANCH   1  20
TORSDOF 9
ENDMDL
MODEL 4
REMARK VINA RESULT:      -1.5      2.119      3.317
REMARK  Name = *****
REMARK                            x       y       z     vdW  Elec       q    Type
REMARK                         _______ _______ _______ _____ _____    ______ ____
ROOT
ATOM      1  C   LIG    1       25.622 -18.548   4.167  0.00  0.00    +0.170 A 
ATOM      2  C   LIG    1       24.212 -18.146   4.019  0.00  0.00    +0.180 A 
ATOM      3  F   LIG    1       23.180 -18.960   4.254  0.00  0.00    -0.200 F 
ATOM      4  C   LIG    1       24.005 -16.892   3.651  0.00  0.00    +0.135 A 
ATOM      5  N   LIG    1       25.056 -16.033   3.422  0.00  0.00    -0.267 N 
ATOM      6  C   LIG    1       26.374 -16.504   3.408  0.00  0.00    +0.352 A 
ATOM      7  O   LIG    1       27.311 -15.829   2.997  0.00  0.00    -0.244 OA
ATOM      8  N   LIG    1       26.617 -17.780   3.881  0.00  0.00    -0.175 NA
ENDROOT
BRANCH   5   9
ATOM      9  C   LIG    1       24.714 -14.661   3.069  0.00  0.00    +0.255 C 
ATOM     10  C   LIG    1       24.579 -13.636   4.203  0.00  0.00    +0.195 C 
ATOM     11  C   LIG    1       24.930 -12.355   3.468  0.00  0.00    +0.176 C 
ATOM     12  C   LIG    1       25.974 -12.813   2.445  0.00  0.00    +0.149 C 
ATOM     13  C   LIG    1       27.402 -12.802   2.963  0.00  0.00    +0.040 C 
ATOM     14  O   LIG    1       25.657 -14.175   2.103  0.00  0.00    -0.348 OA
BRANCH  10  15
ATOM     15  O   LIG    1       23.260 -13.597   4.755  0.00  0.00    -0.385 OA
ATOM     16  H   LIG    1       22.786 -12.913   4.238  0.00  0.00    +0.210 HD
ENDBRANCH  10  15
BRANCH  11  17
ATOM     17  O   LIG    1       23.734 -11.895   2.810  0.00  0.00    -0.387 OA
ATOM     18  H   LIG    1       23.802 -12.154   1.873  0.00  0.00    +0.210 HD
ENDBRANCH  11  17
ENDBRANCH   5   9
BRANCH   1  20
ATOM     19  C   LIG    1       25.612 -20.449   5.767  0.00  0.00    +0.406 C 
ATOM     20  N   LIG    1       25.965 -19.790   4.624  0.00  0.00    -0.233 N 
ATOM     21  H   LIG    1       26.633 -20.282   4.044  0.00  0.00    +0.160 HD
ATOM     22  O   LIG    1       24.741 -20.130   6.570  0.00  0.00    -0.226 OA
BRANCH  19  23
ATOM     23  O   LIG    1       26.355 -21.571   5.904  0.00  0.00    -0.450 OA
BRANCH  23  24
ATOM     24  C   LIG    1       27.226 -21.557   7.048  0.00  0.00    +0.234 C 
BRANCH  24  25
ATOM     25  C   LIG    1       28.706 -21.572   6.641  0.00  0.00    +0.041 C 
BRANCH  25  26
ATOM     26  C   LIG    1       29.454 -20.304   7.062  0.00  0.00    +0.003 C 
BRANCH  26  28
ATOM     27  C   LIG    1       29.413 -18.356   5.433  0.00  0.00    +0.004 C 
ATOM     28  C   LIG    1       28.749 -19.014   6.634  0.00  0.00    -0.003 C 
ENDBRANCH  26  28
ENDBRANCH  25  26
ENDBRANCH  24  25
ENDBRANCH  23  24
ENDBRANCH  19  23
ENDBRANCH   1  20
TORSDOF 9
ENDMDL
MODEL 5
REMARK VINA RESULT:      -1.3      2.078      7.501
REMARK  Name = *****
REMARK                            x       y       z     vdW  Elec       q    Type
REMARK                         _______ _______ _______ _____ _____    ______ ____
ROOT
ATOM      1  C   LIG    1       25.869 -15.998   3.634  0.00  0.00    +0.170 A 
ATOM      2  C   LIG    1       26.307 -17.383   3.385  0.00  0.00    +0.180 A 
ATOM      3  F   LIG    1       27.546 -17.712   3.013  0.00  0.00    -0.200 F 
ATOM      4  C   LIG    1       25.393 -18.319   3.573  0.00  0.00    +0.135 A 
ATOM      5  N   LIG    1       24.115 -18.000   3.974  0.00  0.00    -0.267 N 
ATOM      6  C   LIG    1       23.697 -16.665   4.032  0.00  0.00    +0.352 A 
ATOM      7  O   LIG    1       22.522 -16.347   4.170  0.00  0.00    -0.244 OA
ATOM      8  N   LIG    1       24.657 -15.675   3.934  0.00  0.00    -0.175 NA
ENDROOT
BRANCH   5   9
ATOM      9  C   LIG    1       23.202 -19.113   4.198  0.00  0.00    +0.255 C 
ATOM     10  C   LIG    1       23.697 -20.529   3.871  0.00  0.00    +0.195 C 
ATOM     11  C   LIG    1       22.857 -21.350   4.832  0.00  0.00    +0.176 C 
ATOM     12  C   LIG    1       22.714 -20.429   6.047  0.00  0.00    +0.149 C 
ATOM     13  C   LIG    1       23.839 -20.558   7.062  0.00  0.00    +0.040 C 
ATOM     14  O   LIG    1       22.740 -19.077   5.555  0.00  0.00    -0.348 OA
BRANCH  10  15
ATOM     15  O   LIG    1       23.466 -20.891   2.507  0.00  0.00    -0.385 OA
ATOM     16  H   LIG    1       22.794 -20.255   2.183  0.00  0.00    +0.210 HD
ENDBRANCH  10  15
BRANCH  11  17
ATOM     17  O   LIG    1       21.578 -21.572   4.204  0.00  0.00    -0.387 OA
ATOM     18  H   LIG    1       21.745 -21.717   3.255  0.00  0.00    +0.210 HD
ENDBRANCH  11  17
ENDBRANCH   5   9
BRANCH   1  20
ATOM     19  C   LIG    1       27.100 -14.015   4.490  0.00  0.00    +0.406 C 
ATOM     20  N   LIG    1       26.743 -14.948   3.558  0.00  0.00    -0.233 N 
ATOM     21  H   LIG    1       27.153 -14.809   2.644  0.00  0.00    +0.160 HD
ATOM     22  O   LIG    1       26.841 -14.025   5.688  0.00  0.00    -0.226 OA
BRANCH  19  23
ATOM     23  O   LIG    1       27.839 -13.041   3.910  0.00  0.00    -0.450 OA
BRANCH  23  24
ATOM     24  C   LIG    1       27.476 -12.770   2.546  0.00  0.00    +0.234 C 
BRANCH  24  25
ATOM     25  C   LIG    1       26.252 -11.849   2.450  0.00  0.00    +0.041 C 
BRANCH  25  26
ATOM     26  C   LIG    1       24.944 -12.614   2.233  0.00  0.00    +0.003 C 
BRANCH  26  28
ATOM     27  C   LIG    1       24.104 -12.147   4.584  0.00  0.00    +0.004 C 
ATOM     28  C   LIG    1       23.790 -12.097   3.096  0.00  0.00    -0.003 C 
ENDBRANCH  26  28
ENDBRANCH  25  26
ENDBRANCH  24  25
ENDBRANCH  23  24
ENDBRANCH  19  23
ENDBRANCH   1  20
TORSDOF 9
ENDMDL
MODEL 6
REMARK VINA RESULT:      -0.7      1.289      2.097
REMARK  Name = *****
REMARK                            x       y       z     vdW  Elec       q    Type
REMARK                         _______ _______ _______ _____ _____    ______ ____
ROOT
ATOM      1  C   LIG    1       23.965 -18.218   4.214  0.00  0.00    +0.170 A 
ATOM      2  C   LIG    1       22.940 -17.160   4.236  0.00  0.00    +0.180 A 
ATOM      3  F   LIG    1       21.677 -17.360   4.620  0.00  0.00    -0.200 F 
ATOM      4  C   LIG    1       23.344 -15.957   3.866  0.00  0.00    +0.135 A 
ATOM      5  N   LIG    1       24.647 -15.728   3.485  0.00  0.00    -0.267 N 
ATOM      6  C   LIG    1       25.540 -16.793   3.315  0.00  0.00    +0.352 A 
ATOM      7  O   LIG    1       26.631 -16.659   2.772  0.00  0.00    -0.244 OA
ATOM      8  N   LIG    1       25.168 -18.039   3.786  0.00  0.00    -0.175 NA
ENDROOT
BRANCH   5   9
ATOM      9  C   LIG    1       24.997 -14.356   3.143  0.00  0.00    +0.255 C 
ATOM     10  C   LIG    1       25.116 -13.336   4.284  0.00  0.00    +0.195 C 
ATOM     11  C   LIG    1       26.109 -12.356   3.684  0.00  0.00    +0.176 C 
ATOM     12  C   LIG    1       27.017 -13.253   2.838  0.00  0.00    +0.149 C 
ATOM     13  C   LIG    1       28.194 -13.842   3.598  0.00  0.00    +0.040 C 
ATOM     14  O   LIG    1       26.213 -14.355   2.381  0.00  0.00    -0.348 OA
BRANCH  10  15
ATOM     15  O   LIG    1       23.867 -12.714   4.598  0.00  0.00    -0.385 OA
ATOM     16  H   LIG    1       23.182 -13.322   4.248  0.00  0.00    +0.210 HD
ENDBRANCH  10  15
BRANCH  11  17
ATOM     17  O   LIG    1       25.365 -11.447   2.850  0.00  0.00    -0.387 OA
ATOM     18  H   LIG    1       25.988 -10.764   2.540  0.00  0.00    +0.210 HD
ENDBRANCH  11  17
ENDBRANCH   5   9
BRANCH   1  20
ATOM     19  C   LIG    1       22.943 -19.919   5.711  0.00  0.00    +0.406 C 
ATOM     20  N   LIG    1       23.694 -19.485   4.655  0.00  0.00    -0.233 N 
ATOM     21  H   LIG    1       24.171 -20.218   4.147  0.00  0.00    +0.160 HD
ATOM     22  O   LIG    1       22.181 -19.255   6.405  0.00  0.00    -0.226 OA
BRANCH  19  23
ATOM     23  O   LIG    1       23.126 -21.248   5.893  0.00  0.00    -0.450 OA
BRANCH  23  24
ATOM     24  C   LIG    1       23.941 -21.572   7.032  0.00  0.00    +0.234 C 
BRANCH  24  25
ATOM     25  C   LIG    1       25.237 -20.750   7.062  0.00  0.00    +0.041 C 
BRANCH  25  26
ATOM     26  C   LIG    1       26.196 -21.105   5.922  0.00  0.00    +0.003 C 
BRANCH  26  28
ATOM     27  C   LIG    1       28.605 -20.661   6.593  0.00  0.00    +0.004 C 
ATOM     28  C   LIG    1       27.393 -20.157   5.821  0.00  0.00    -0.003 C 
ENDBRANCH  26  28
ENDBRANCH  25  26
ENDBRANCH  24  25
ENDBRANCH  23  24
ENDBRANCH  19  23
ENDBRANCH   1  20
TORSDOF 9
ENDMDL
MODEL 7
REMARK VINA RESULT:      -0.4      1.600      2.053
REMARK  Name = *****
REMARK                            x       y       z     vdW  Elec       q    Type
REMARK                         _______ _______ _______ _____ _____    ______ ____
ROOT
ATOM      1  C   LIG    1       24.114 -17.849   4.052  0.00  0.00    +0.170 A 
ATOM      2  C   LIG    1       25.530 -17.757   3.653  0.00  0.00    +0.180 A 
ATOM      3  F   LIG    1       26.306 -18.819   3.423  0.00  0.00    -0.200 F 
ATOM      4  C   LIG    1       26.009 -16.534   3.507  0.00  0.00    +0.135 A 
ATOM      5  N   LIG    1       25.219 -15.427   3.722  0.00  0.00    -0.267 N 
ATOM      6  C   LIG    1       23.935 -15.560   4.264  0.00  0.00    +0.352 A 
ATOM      7  O   LIG    1       23.288 -14.602   4.671  0.00  0.00    -0.244 OA
ATOM      8  N   LIG    1       23.382 -16.826   4.332  0.00  0.00    -0.175 NA
ENDROOT
BRANCH   5   9
ATOM      9  C   LIG    1       25.834 -14.128   3.486  0.00  0.00    +0.255 C 
ATOM     10  C   LIG    1       26.315 -13.805   2.064  0.00  0.00    +0.195 C 
ATOM     11  C   LIG    1       26.202 -12.291   2.065  0.00  0.00    +0.176 C 
ATOM     12  C   LIG    1       24.985 -12.032   2.959  0.00  0.00    +0.149 C 
ATOM     13  C   LIG    1       23.657 -12.042   2.221  0.00  0.00    +0.040 C 
ATOM     14  O   LIG    1       24.940 -13.096   3.927  0.00  0.00    -0.348 OA
BRANCH  10  15
ATOM     15  O   LIG    1       27.655 -14.245   1.824  0.00  0.00    -0.385 OA
ATOM     16  H   LIG    1       28.071 -13.529   1.301  0.00  0.00    +0.210 HD
ENDBRANCH  10  15
BRANCH  11  17
ATOM     17  O   LIG    1       27.402 -11.770   2.669  0.00  0.00    -0.387 OA
ATOM     18  H   LIG    1       27.163 -11.454   3.560  0.00  0.00    +0.210 HD
ENDBRANCH  11  17
ENDBRANCH   5   9
BRANCH   1  20
ATOM     19  C   LIG    1       23.735 -20.253   3.545  0.00  0.00    +0.406 C 
ATOM     20  N   LIG    1       23.478 -19.057   4.152  0.00  0.00    -0.233 N 
ATOM     21  H   LIG    1       22.649 -19.048   4.731  0.00  0.00    +0.160 HD
ATOM     22  O   LIG    1       24.730 -20.559   2.896  0.00  0.00    -0.226 OA
BRANCH  19  23
ATOM     23  O   LIG    1       22.722 -21.119   3.779  0.00  0.00    -0.450 OA
BRANCH  23  24
ATOM     24  C   LIG    1       22.061 -20.913   5.039  0.00  0.00    +0.234 C 
BRANCH  24  25
ATOM     25  C   LIG    1       22.824 -21.565   6.200  0.00  0.00    +0.041 C 
BRANCH  25  26
ATOM     26  C   LIG    1       24.341 -21.572   5.989  0.00  0.00    +0.003 C 
BRANCH  26  28
ATOM     27  C   LIG    1       26.522 -20.442   6.632  0.00  0.00    +0.004 C 
ATOM     28  C   LIG    1       25.104 -20.790   7.061  0.00  0.00    -0.003 C 
ENDBRANCH  26  28
ENDBRANCH  25  26
ENDBRANCH  24  25
ENDBRANCH  23  24
ENDBRANCH  19  23
ENDBRANCH   1  20
TORSDOF 9
ENDMDL
