MODEL 1
REMARK VINA RESULT:      -6.0      0.000      0.000
REMARK  Name = *****
REMARK                            x       y       z     vdW  Elec       q    Type
REMARK                         _______ _______ _______ _____ _____    ______ ____
ROOT
ATOM      1  C   LIG    1       22.435 -30.831  10.040  0.00  0.00    +0.064 C 
ATOM      2  C   LIG    1       22.081 -32.244   9.514  0.00  0.00    +0.119 C 
ATOM      3  C   LIG    1       22.258 -33.388  10.501  0.00  0.00    +0.074 C 
ATOM      4  C   LIG    1       23.710 -33.732  10.338  0.00  0.00    +0.239 C 
ATOM      5  O   LIG    1       23.943 -33.539   8.921  0.00  0.00    -0.464 OA
ATOM      6  C   LIG    1       21.680 -33.113  11.890  0.00  0.00    +0.159 C 
ATOM      7  C   LIG    1       21.906 -31.700  12.380  0.00  0.00    -0.011 A 
ATOM      8  C   LIG    1       21.861 -31.454  13.762  0.00  0.00    +0.056 A 
ATOM      9  C   LIG    1       21.738 -30.157  14.205  0.00  0.00    +0.167 A 
ATOM     10  O   LIG    1       21.582 -29.772  15.499  0.00  0.00    -0.453 OA
ATOM     11  C   LIG    1       21.407 -28.348  15.334  0.00  0.00    +0.466 C 
ATOM     12  O   LIG    1       21.581 -27.908  13.970  0.00  0.00    -0.453 OA
ATOM     13  C   LIG    1       21.727 -29.100  13.334  0.00  0.00    +0.167 A 
ATOM     14  C   LIG    1       21.886 -29.287  11.979  0.00  0.00    +0.054 A 
ATOM     15  C   LIG    1       22.970 -32.717   8.384  0.00  0.00    +0.312 C 
ATOM     16  O   LIG    1       22.880 -32.417   7.230  0.00  0.00    -0.251 OA
ATOM     17  C   LIG    1       22.002 -30.608  11.487  0.00  0.00    -0.030 A 
ENDROOT
BRANCH   1  22
ATOM     18  C   LIG    1       25.540 -29.155   8.537  0.00  0.00    +0.165 A 
ATOM     19  C   LIG    1       26.515 -29.461   9.492  0.00  0.00    +0.201 A 
ATOM     20  C   LIG    1       26.201 -30.216  10.628  0.00  0.00    +0.165 A 
ATOM     21  C   LIG    1       24.907 -30.704  10.788  0.00  0.00    +0.053 A 
ATOM     22  C   LIG    1       23.899 -30.401   9.856  0.00  0.00    -0.032 A 
ATOM     23  C   LIG    1       24.242 -29.637   8.730  0.00  0.00    +0.053 A 
BRANCH  18  25
ATOM     24  C   LIG    1       24.887 -28.213   6.471  0.00  0.00    +0.277 C 
ATOM     25  O   LIG    1       25.908 -28.406   7.450  0.00  0.00    -0.491 OA
ENDBRANCH  18  25
BRANCH  19  26
ATOM     26  O   LIG    1       27.795 -28.980   9.363  0.00  0.00    -0.501 OA
ATOM     27  H   LIG    1       27.713 -28.202   8.778  0.00  0.00    +0.292 HD
ENDBRANCH  19  26
BRANCH  20  28
ATOM     28  O   LIG    1       27.220 -30.428  11.524  0.00  0.00    -0.491 OA
ATOM     29  C   LIG    1       27.019 -29.834  12.807  0.00  0.00    +0.277 C 
ENDBRANCH  20  28
ENDBRANCH   1  22
BRANCH   6  30
ATOM     30  O   LIG    1       20.261 -33.336  11.723  0.00  0.00    -0.340 OA
BRANCH  30  31
ATOM     31  C   LIG    1       19.362 -32.561  12.530  0.00  0.00    +0.282 C 
ATOM     32  C   LIG    1       18.330 -31.911  11.593  0.00  0.00    +0.201 C 
ATOM     33  C   LIG    1       17.341 -31.107  12.426  0.00  0.00    +0.179 C 
ATOM     34  C   LIG    1       16.722 -31.901  13.584  0.00  0.00    +0.184 C 
ATOM     35  C   LIG    1       17.743 -32.771  14.332  0.00  0.00    +0.178 C 
ATOM     36  C   LIG    1       18.350 -31.985  15.497  0.00  0.00    +0.197 C 
ATOM     37  O   LIG    1       18.242 -30.587  15.242  0.00  0.00    -0.344 OA
ATOM     38  C   LIG    1       16.869 -30.194  15.296  0.00  0.00    +0.289 C 
ATOM     39  O   LIG    1       16.017 -31.032  14.494  0.00  0.00    -0.338 OA
ATOM     40  O   LIG    1       18.710 -33.404  13.481  0.00  0.00    -0.341 OA
BRANCH  38  41
ATOM     41  C   LIG    1       16.758 -28.756  14.840  0.00  0.00    +0.045 A 
ATOM     42  S   LIG    1       17.958 -27.609  15.309  0.00  0.00    -0.097 S 
ATOM     43  C   LIG    1       17.197 -26.343  14.446  0.00  0.00    +0.045 A 
ATOM     44  C   LIG    1       16.033 -26.757  13.845  0.00  0.00    +0.008 A 
ATOM     45  C   LIG    1       15.775 -28.137  14.085  0.00  0.00    +0.016 A 
ENDBRANCH  38  41
BRANCH  32  46
ATOM     46  O   LIG    1       18.941 -30.996  10.663  0.00  0.00    -0.384 OA
ATOM     47  H   LIG    1       19.642 -30.532  11.167  0.00  0.00    +0.210 HD
ENDBRANCH  32  46
BRANCH  33  48
ATOM     48  O   LIG    1       16.329 -30.587  11.541  0.00  0.00    -0.386 OA
ATOM     49  H   LIG    1       16.338 -31.111  10.721  0.00  0.00    +0.210 HD
ENDBRANCH  33  48
ENDBRANCH  30  31
ENDBRANCH   6  30
TORSDOF 9
ENDMDL
MODEL 2
REMARK VINA RESULT:      -5.6      3.093      7.782
REMARK  Name = *****
REMARK                            x       y       z     vdW  Elec       q    Type
REMARK                         _______ _______ _______ _____ _____    ______ ____
ROOT
ATOM      1  C   LIG    1       24.658 -29.566  12.050  0.00  0.00    +0.064 C 
ATOM      2  C   LIG    1       26.001 -30.210  12.477  0.00  0.00    +0.119 C 
ATOM      3  C   LIG    1       25.899 -31.477  13.311  0.00  0.00    +0.074 C 
ATOM      4  C   LIG    1       25.760 -30.935  14.704  0.00  0.00    +0.239 C 
ATOM      5  O   LIG    1       26.614 -29.763  14.695  0.00  0.00    -0.464 OA
ATOM      6  C   LIG    1       24.897 -32.502  12.778  0.00  0.00    +0.159 C 
ATOM      7  C   LIG    1       23.622 -31.890  12.241  0.00  0.00    -0.011 A 
ATOM      8  C   LIG    1       22.472 -32.693  12.168  0.00  0.00    +0.056 A 
ATOM      9  C   LIG    1       21.412 -32.272  11.399  0.00  0.00    +0.167 A 
ATOM     10  O   LIG    1       20.279 -32.983  11.153  0.00  0.00    -0.453 OA
ATOM     11  C   LIG    1       19.608 -32.101  10.227  0.00  0.00    +0.466 C 
ATOM     12  O   LIG    1       20.295 -30.844  10.038  0.00  0.00    -0.453 OA
ATOM     13  C   LIG    1       21.428 -31.062  10.758  0.00  0.00    +0.167 A 
ATOM     14  C   LIG    1       22.486 -30.192  10.896  0.00  0.00    +0.054 A 
ATOM     15  C   LIG    1       26.831 -29.341  13.397  0.00  0.00    +0.312 C 
ATOM     16  O   LIG    1       27.531 -28.425  13.078  0.00  0.00    -0.251 OA
ATOM     17  C   LIG    1       23.598 -30.597  11.669  0.00  0.00    -0.030 A 
ENDROOT
BRANCH   1  22
ATOM     18  C   LIG    1       24.074 -26.251  13.885  0.00  0.00    +0.165 A 
ATOM     19  C   LIG    1       22.985 -26.568  14.703  0.00  0.00    +0.201 A 
ATOM     20  C   LIG    1       22.423 -27.850  14.689  0.00  0.00    +0.165 A 
ATOM     21  C   LIG    1       22.984 -28.834  13.880  0.00  0.00    +0.053 A 
ATOM     22  C   LIG    1       24.069 -28.543  13.034  0.00  0.00    -0.032 A 
ATOM     23  C   LIG    1       24.607 -27.249  13.064  0.00  0.00    +0.053 A 
BRANCH  18  25
ATOM     24  C   LIG    1       25.999 -24.882  13.957  0.00  0.00    +0.277 C 
ATOM     25  O   LIG    1       24.576 -24.975  13.938  0.00  0.00    -0.491 OA
ENDBRANCH  18  25
BRANCH  19  26
ATOM     26  O   LIG    1       22.405 -25.612  15.500  0.00  0.00    -0.501 OA
ATOM     27  H   LIG    1       21.895 -25.050  14.885  0.00  0.00    +0.292 HD
ENDBRANCH  19  26
BRANCH  20  28
ATOM     28  O   LIG    1       21.331 -28.050  15.499  0.00  0.00    -0.491 OA
ATOM     29  C   LIG    1       20.162 -28.509  14.821  0.00  0.00    +0.277 C 
ENDBRANCH  20  28
ENDBRANCH   1  22
BRANCH   6  30
ATOM     30  O   LIG    1       25.608 -33.145  11.695  0.00  0.00    -0.340 OA
BRANCH  30  31
ATOM     31  C   LIG    1       25.274 -32.759  10.353  0.00  0.00    +0.282 C 
ATOM     32  C   LIG    1       26.587 -32.464   9.608  0.00  0.00    +0.201 C 
ATOM     33  C   LIG    1       26.266 -32.084   8.169  0.00  0.00    +0.179 C 
ATOM     34  C   LIG    1       25.352 -33.087   7.454  0.00  0.00    +0.184 C 
ATOM     35  C   LIG    1       24.197 -33.585   8.335  0.00  0.00    +0.178 C 
ATOM     36  C   LIG    1       22.971 -32.686   8.151  0.00  0.00    +0.197 C 
ATOM     37  O   LIG    1       23.381 -31.401   7.691  0.00  0.00    -0.344 OA
ATOM     38  C   LIG    1       23.883 -31.505   6.357  0.00  0.00    +0.289 C 
ATOM     39  O   LIG    1       24.860 -32.552   6.209  0.00  0.00    -0.338 OA
ATOM     40  O   LIG    1       24.559 -33.812   9.705  0.00  0.00    -0.341 OA
BRANCH  38  41
ATOM     41  C   LIG    1       24.484 -30.176   5.960  0.00  0.00    +0.045 A 
ATOM     42  S   LIG    1       24.340 -28.817   7.013  0.00  0.00    -0.097 S 
ATOM     43  C   LIG    1       25.223 -27.803   5.954  0.00  0.00    +0.045 A 
ATOM     44  C   LIG    1       25.588 -28.457   4.802  0.00  0.00    +0.008 A 
ATOM     45  C   LIG    1       25.151 -29.812   4.801  0.00  0.00    +0.016 A 
ENDBRANCH  38  41
BRANCH  32  46
ATOM     46  O   LIG    1       27.304 -31.358  10.188  0.00  0.00    -0.384 OA
ATOM     47  H   LIG    1       27.500 -31.622  11.111  0.00  0.00    +0.210 HD
ENDBRANCH  32  46
BRANCH  33  48
ATOM     48  O   LIG    1       27.511 -31.906   7.465  0.00  0.00    -0.386 OA
ATOM     49  H   LIG    1       27.753 -30.964   7.499  0.00  0.00    +0.210 HD
ENDBRANCH  33  48
ENDBRANCH  30  31
ENDBRANCH   6  30
TORSDOF 9
ENDMDL
MODEL 3
REMARK VINA RESULT:      -4.4      1.482      2.685
REMARK  Name = *****
REMARK                            x       y       z     vdW  Elec       q    Type
REMARK                         _______ _______ _______ _____ _____    ______ ____
ROOT
ATOM      1  C   LIG    1       22.891 -30.838   9.465  0.00  0.00    +0.064 C 
ATOM      2  C   LIG    1       23.037 -32.330   9.074  0.00  0.00    +0.119 C 
ATOM      3  C   LIG    1       23.881 -33.185  10.006  0.00  0.00    +0.074 C 
ATOM      4  C   LIG    1       25.271 -32.951   9.487  0.00  0.00    +0.239 C 
ATOM      5  O   LIG    1       25.082 -32.855   8.054  0.00  0.00    -0.464 OA
ATOM      6  C   LIG    1       23.569 -32.991  11.491  0.00  0.00    +0.159 C 
ATOM      7  C   LIG    1       23.301 -31.554  11.879  0.00  0.00    -0.011 A 
ATOM      8  C   LIG    1       23.469 -31.180  13.222  0.00  0.00    +0.056 A 
ATOM      9  C   LIG    1       22.929 -29.990  13.656  0.00  0.00    +0.167 A 
ATOM     10  O   LIG    1       22.924 -29.544  14.940  0.00  0.00    -0.453 OA
ATOM     11  C   LIG    1       22.150 -28.333  14.797  0.00  0.00    +0.466 C 
ATOM     12  O   LIG    1       21.819 -28.029  13.424  0.00  0.00    -0.453 OA
ATOM     13  C   LIG    1       22.293 -29.137  12.795  0.00  0.00    +0.167 A 
ATOM     14  C   LIG    1       22.207 -29.409  11.448  0.00  0.00    +0.054 A 
ATOM     15  C   LIG    1       23.765 -32.551   7.765  0.00  0.00    +0.312 C 
ATOM     16  O   LIG    1       23.304 -32.452   6.665  0.00  0.00    -0.251 OA
ATOM     17  C   LIG    1       22.740 -30.628  10.969  0.00  0.00    -0.030 A 
ENDROOT
BRANCH   1  22
ATOM     18  C   LIG    1       26.173 -28.874   9.190  0.00  0.00    +0.165 A 
ATOM     19  C   LIG    1       26.049 -28.293   7.924  0.00  0.00    +0.201 A 
ATOM     20  C   LIG    1       24.910 -28.510   7.139  0.00  0.00    +0.165 A 
ATOM     21  C   LIG    1       23.869 -29.283   7.645  0.00  0.00    +0.053 A 
ATOM     22  C   LIG    1       23.969 -29.895   8.907  0.00  0.00    -0.032 A 
ATOM     23  C   LIG    1       25.124 -29.665   9.668  0.00  0.00    +0.053 A 
BRANCH  18  25
ATOM     24  C   LIG    1       27.141 -27.825  11.073  0.00  0.00    +0.277 C 
ATOM     25  O   LIG    1       27.316 -28.630   9.908  0.00  0.00    -0.491 OA
ENDBRANCH  18  25
BRANCH  19  26
ATOM     26  O   LIG    1       27.068 -27.537   7.398  0.00  0.00    -0.501 OA
ATOM     27  H   LIG    1       26.693 -27.141   6.588  0.00  0.00    +0.292 HD
ENDBRANCH  19  26
BRANCH  20  28
ATOM     28  O   LIG    1       24.902 -27.926   5.896  0.00  0.00    -0.491 OA
ATOM     29  C   LIG    1       24.149 -26.716   5.811  0.00  0.00    +0.277 C 
ENDBRANCH  20  28
ENDBRANCH   1  22
BRANCH   6  30
ATOM     30  O   LIG    1       22.367 -33.770  11.693  0.00  0.00    -0.340 OA
BRANCH  30  31
ATOM     31  C   LIG    1       21.375 -33.249  12.590  0.00  0.00    +0.282 C 
ATOM     32  C   LIG    1       19.991 -33.600  12.019  0.00  0.00    +0.201 C 
ATOM     33  C   LIG    1       18.918 -33.088  12.969  0.00  0.00    +0.179 C 
ATOM     34  C   LIG    1       19.123 -33.525  14.425  0.00  0.00    +0.184 C 
ATOM     35  C   LIG    1       20.585 -33.430  14.884  0.00  0.00    +0.178 C 
ATOM     36  C   LIG    1       20.853 -32.053  15.499  0.00  0.00    +0.197 C 
ATOM     37  O   LIG    1       19.911 -31.110  14.997  0.00  0.00    -0.344 OA
ATOM     38  C   LIG    1       18.609 -31.417  15.500  0.00  0.00    +0.289 C 
ATOM     39  O   LIG    1       18.253 -32.799  15.316  0.00  0.00    -0.338 OA
ATOM     40  O   LIG    1       21.539 -33.825  13.887  0.00  0.00    -0.341 OA
BRANCH  38  41
ATOM     41  C   LIG    1       17.601 -30.526  14.811  0.00  0.00    +0.045 A 
ATOM     42  S   LIG    1       17.676 -28.815  15.025  0.00  0.00    -0.097 S 
ATOM     43  C   LIG    1       16.337 -28.549  13.992  0.00  0.00    +0.045 A 
ATOM     44  C   LIG    1       15.807 -29.726  13.523  0.00  0.00    +0.008 A 
ATOM     45  C   LIG    1       16.524 -30.859  14.006  0.00  0.00    +0.016 A 
ENDBRANCH  38  41
BRANCH  32  46
ATOM     46  O   LIG    1       19.758 -32.977  10.741  0.00  0.00    -0.384 OA
ATOM     47  H   LIG    1       19.448 -32.070  10.940  0.00  0.00    +0.210 HD
ENDBRANCH  32  46
BRANCH  33  48
ATOM     48  O   LIG    1       17.635 -33.511  12.465  0.00  0.00    -0.386 OA
ATOM     49  H   LIG    1       17.260 -34.164  13.081  0.00  0.00    +0.210 HD
ENDBRANCH  33  48
ENDBRANCH  30  31
ENDBRANCH   6  30
TORSDOF 9
ENDMDL
MODEL 4
REMARK VINA RESULT:      -4.3      3.162      7.872
REMARK  Name = *****
REMARK                            x       y       z     vdW  Elec       q    Type
REMARK                         _______ _______ _______ _____ _____    ______ ____
ROOT
ATOM      1  C   LIG    1       24.116 -29.661  11.837  0.00  0.00    +0.064 C 
ATOM      2  C   LIG    1       25.516 -30.144  12.293  0.00  0.00    +0.119 C 
ATOM      3  C   LIG    1       25.538 -31.359  13.207  0.00  0.00    +0.074 C 
ATOM      4  C   LIG    1       25.348 -30.744  14.564  0.00  0.00    +0.239 C 
ATOM      5  O   LIG    1       26.085 -29.499  14.474  0.00  0.00    -0.464 OA
ATOM      6  C   LIG    1       24.639 -32.507  12.747  0.00  0.00    +0.159 C 
ATOM      7  C   LIG    1       23.310 -32.057  12.182  0.00  0.00    -0.011 A 
ATOM      8  C   LIG    1       22.243 -32.970  12.170  0.00  0.00    +0.056 A 
ATOM      9  C   LIG    1       21.146 -32.704  11.382  0.00  0.00    +0.167 A 
ATOM     10  O   LIG    1       20.087 -33.534  11.191  0.00  0.00    -0.453 OA
ATOM     11  C   LIG    1       19.333 -32.782  10.216  0.00  0.00    +0.466 C 
ATOM     12  O   LIG    1       19.895 -31.480   9.943  0.00  0.00    -0.453 OA
ATOM     13  C   LIG    1       21.044 -31.541  10.666  0.00  0.00    +0.167 A 
ATOM     14  C   LIG    1       22.013 -30.566  10.740  0.00  0.00    +0.054 A 
ATOM     15  C   LIG    1       26.259 -29.142  13.151  0.00  0.00    +0.312 C 
ATOM     16  O   LIG    1       26.867 -28.185  12.768  0.00  0.00    -0.251 OA
ATOM     17  C   LIG    1       23.160 -30.811  11.530  0.00  0.00    -0.030 A 
ENDROOT
BRANCH   1  22
ATOM     18  C   LIG    1       21.817 -28.219  14.545  0.00  0.00    +0.165 A 
ATOM     19  C   LIG    1       22.212 -26.877  14.565  0.00  0.00    +0.201 A 
ATOM     20  C   LIG    1       23.212 -26.407  13.707  0.00  0.00    +0.165 A 
ATOM     21  C   LIG    1       23.794 -27.280  12.792  0.00  0.00    +0.053 A 
ATOM     22  C   LIG    1       23.432 -28.639  12.758  0.00  0.00    -0.032 A 
ATOM     23  C   LIG    1       22.431 -29.083  13.634  0.00  0.00    +0.053 A 
BRANCH  18  25
ATOM     24  C   LIG    1       20.610 -30.028  15.469  0.00  0.00    +0.277 C 
ATOM     25  O   LIG    1       20.836 -28.620  15.416  0.00  0.00    -0.491 OA
ENDBRANCH  18  25
BRANCH  19  26
ATOM     26  O   LIG    1       21.662 -25.999  15.467  0.00  0.00    -0.501 OA
ATOM     27  H   LIG    1       21.155 -25.366  14.924  0.00  0.00    +0.292 HD
ENDBRANCH  19  26
BRANCH  20  28
ATOM     28  O   LIG    1       23.555 -25.082  13.831  0.00  0.00    -0.491 OA
ATOM     29  C   LIG    1       24.740 -24.705  13.131  0.00  0.00    +0.277 C 
ENDBRANCH  20  28
ENDBRANCH   1  22
BRANCH   6  30
ATOM     30  O   LIG    1       25.407 -33.147  11.702  0.00  0.00    -0.340 OA
BRANCH  30  31
ATOM     31  C   LIG    1       25.123 -32.781  10.344  0.00  0.00    +0.282 C 
ATOM     32  C   LIG    1       26.465 -32.593   9.616  0.00  0.00    +0.201 C 
ATOM     33  C   LIG    1       26.194 -32.236   8.161  0.00  0.00    +0.179 C 
ATOM     34  C   LIG    1       25.231 -33.201   7.458  0.00  0.00    +0.184 C 
ATOM     35  C   LIG    1       24.031 -33.598   8.330  0.00  0.00    +0.178 C 
ATOM     36  C   LIG    1       22.869 -32.628   8.095  0.00  0.00    +0.197 C 
ATOM     37  O   LIG    1       23.369 -31.386   7.607  0.00  0.00    -0.344 OA
ATOM     38  C   LIG    1       23.887 -31.562   6.287  0.00  0.00    +0.289 C 
ATOM     39  O   LIG    1       24.797 -32.673   6.188  0.00  0.00    -0.338 OA
ATOM     40  O   LIG    1       24.353 -33.806   9.712  0.00  0.00    -0.341 OA
BRANCH  38  41
ATOM     41  C   LIG    1       24.578 -30.286   5.863  0.00  0.00    +0.045 A 
ATOM     42  S   LIG    1       24.276 -28.819   6.718  0.00  0.00    -0.097 S 
ATOM     43  C   LIG    1       25.358 -27.930   5.734  0.00  0.00    +0.045 A 
ATOM     44  C   LIG    1       25.910 -28.708   4.745  0.00  0.00    +0.008 A 
ATOM     45  C   LIG    1       25.451 -30.055   4.812  0.00  0.00    +0.016 A 
ENDBRANCH  38  41
BRANCH  32  46
ATOM     46  O   LIG    1       27.241 -31.517  10.178  0.00  0.00    -0.384 OA
ATOM     47  H   LIG    1       27.510 -30.958   9.421  0.00  0.00    +0.210 HD
ENDBRANCH  32  46
BRANCH  33  48
ATOM     48  O   LIG    1       27.461 -32.158   7.476  0.00  0.00    -0.386 OA
ATOM     49  H   LIG    1       28.064 -31.607   8.005  0.00  0.00    +0.210 HD
ENDBRANCH  33  48
ENDBRANCH  30  31
ENDBRANCH   6  30
TORSDOF 9
ENDMDL
MODEL 5
REMARK VINA RESULT:      -4.1      2.699      7.905
REMARK  Name = *****
REMARK                            x       y       z     vdW  Elec       q    Type
REMARK                         _______ _______ _______ _____ _____    ______ ____
ROOT
ATOM      1  C   LIG    1       22.637 -30.847  12.396  0.00  0.00    +0.064 C 
ATOM      2  C   LIG    1       23.171 -31.578  13.653  0.00  0.00    +0.119 C 
ATOM      3  C   LIG    1       23.718 -32.980  13.429  0.00  0.00    +0.074 C 
ATOM      4  C   LIG    1       22.480 -33.825  13.510  0.00  0.00    +0.239 C 
ATOM      5  O   LIG    1       21.693 -33.170  14.535  0.00  0.00    -0.464 OA
ATOM      6  C   LIG    1       24.660 -33.102  12.230  0.00  0.00    +0.159 C 
ATOM      7  C   LIG    1       24.224 -32.298  11.024  0.00  0.00    -0.011 A 
ATOM      8  C   LIG    1       24.703 -32.676   9.759  0.00  0.00    +0.056 A 
ATOM      9  C   LIG    1       24.592 -31.790   8.712  0.00  0.00    +0.167 A 
ATOM     10  O   LIG    1       25.095 -31.972   7.462  0.00  0.00    -0.453 OA
ATOM     11  C   LIG    1       24.769 -30.702   6.857  0.00  0.00    +0.466 C 
ATOM     12  O   LIG    1       23.981 -29.848   7.715  0.00  0.00    -0.453 OA
ATOM     13  C   LIG    1       23.969 -30.580   8.861  0.00  0.00    +0.167 A 
ATOM     14  C   LIG    1       23.382 -30.218  10.053  0.00  0.00    +0.054 A 
ATOM     15  C   LIG    1       22.110 -31.861  14.694  0.00  0.00    +0.312 C 
ATOM     16  O   LIG    1       21.673 -31.091  15.499  0.00  0.00    -0.251 OA
ATOM     17  C   LIG    1       23.488 -31.098  11.154  0.00  0.00    -0.030 A 
ENDROOT
BRANCH   1  22
ATOM     18  C   LIG    1       18.817 -30.605  12.624  0.00  0.00    +0.165 A 
ATOM     19  C   LIG    1       18.420 -31.336  11.499  0.00  0.00    +0.201 A 
ATOM     20  C   LIG    1       19.365 -31.928  10.653  0.00  0.00    +0.165 A 
ATOM     21  C   LIG    1       20.719 -31.820  10.960  0.00  0.00    +0.053 A 
ATOM     22  C   LIG    1       21.152 -31.078  12.074  0.00  0.00    -0.032 A 
ATOM     23  C   LIG    1       20.183 -30.492  12.900  0.00  0.00    +0.053 A 
BRANCH  18  25
ATOM     24  C   LIG    1       18.273 -28.953  14.223  0.00  0.00    +0.277 C 
ATOM     25  O   LIG    1       17.843 -30.043  13.410  0.00  0.00    -0.491 OA
ENDBRANCH  18  25
BRANCH  19  26
ATOM     26  O   LIG    1       17.092 -31.445  11.168  0.00  0.00    -0.501 OA
ATOM     27  H   LIG    1       16.675 -30.644  11.541  0.00  0.00    +0.292 HD
ENDBRANCH  19  26
BRANCH  20  28
ATOM     28  O   LIG    1       18.875 -32.591   9.555  0.00  0.00    -0.491 OA
ATOM     29  C   LIG    1       19.639 -33.729   9.156  0.00  0.00    +0.277 C 
ENDBRANCH  20  28
ENDBRANCH   1  22
BRANCH   6  30
ATOM     30  O   LIG    1       25.914 -32.577  12.723  0.00  0.00    -0.340 OA
BRANCH  30  31
ATOM     31  C   LIG    1       26.090 -31.152  12.719  0.00  0.00    +0.282 C 
ATOM     32  C   LIG    1       26.613 -30.738  14.105  0.00  0.00    +0.201 C 
ATOM     33  C   LIG    1       26.842 -29.233  14.119  0.00  0.00    +0.179 C 
ATOM     34  C   LIG    1       27.699 -28.729  12.951  0.00  0.00    +0.184 C 
ATOM     35  C   LIG    1       27.336 -29.382  11.610  0.00  0.00    +0.178 C 
ATOM     36  C   LIG    1       26.272 -28.547  10.891  0.00  0.00    +0.197 C 
ATOM     37  O   LIG    1       25.548 -27.769  11.840  0.00  0.00    -0.344 OA
ATOM     38  C   LIG    1       26.401 -26.763  12.388  0.00  0.00    +0.289 C 
ATOM     39  O   LIG    1       27.656 -27.290  12.855  0.00  0.00    -0.338 OA
ATOM     40  O   LIG    1       27.023 -30.779  11.703  0.00  0.00    -0.341 OA
BRANCH  38  41
ATOM     41  C   LIG    1       25.675 -26.075  13.522  0.00  0.00    +0.045 A 
ATOM     42  S   LIG    1       26.543 -25.052  14.606  0.00  0.00    -0.097 S 
ATOM     43  C   LIG    1       25.134 -24.671  15.499  0.00  0.00    +0.045 A 
ATOM     44  C   LIG    1       24.028 -25.333  15.023  0.00  0.00    +0.008 A 
ATOM     45  C   LIG    1       24.344 -26.149  13.899  0.00  0.00    +0.016 A 
ENDBRANCH  38  41
BRANCH  32  46
ATOM     46  O   LIG    1       25.667 -31.032  15.151  0.00  0.00    -0.384 OA
ATOM     47  H   LIG    1       24.930 -31.511  14.718  0.00  0.00    +0.210 HD
ENDBRANCH  32  46
BRANCH  33  48
ATOM     48  O   LIG    1       27.420 -28.881  15.392  0.00  0.00    -0.386 OA
ATOM     49  H   LIG    1       26.804 -28.288  15.857  0.00  0.00    +0.210 HD
ENDBRANCH  33  48
ENDBRANCH  30  31
ENDBRANCH   6  30
TORSDOF 9
ENDMDL
MODEL 6
REMARK VINA RESULT:      -4.1      2.543      7.809
REMARK  Name = *****
REMARK                            x       y       z     vdW  Elec       q    Type
REMARK                         _______ _______ _______ _____ _____    ______ ____
ROOT
ATOM      1  C   LIG    1       22.544 -30.892  12.378  0.00  0.00    +0.064 C 
ATOM      2  C   LIG    1       23.070 -31.558  13.674  0.00  0.00    +0.119 C 
ATOM      3  C   LIG    1       23.566 -32.989  13.535  0.00  0.00    +0.074 C 
ATOM      4  C   LIG    1       22.302 -33.784  13.683  0.00  0.00    +0.239 C 
ATOM      5  O   LIG    1       21.550 -33.038  14.673  0.00  0.00    -0.464 OA
ATOM      6  C   LIG    1       24.488 -33.220  12.336  0.00  0.00    +0.159 C 
ATOM      7  C   LIG    1       24.064 -32.481  11.086  0.00  0.00    -0.011 A 
ATOM      8  C   LIG    1       24.514 -32.955   9.843  0.00  0.00    +0.056 A 
ATOM      9  C   LIG    1       24.419 -32.135   8.742  0.00  0.00    +0.167 A 
ATOM     10  O   LIG    1       24.900 -32.414   7.501  0.00  0.00    -0.453 OA
ATOM     11  C   LIG    1       24.608 -31.175   6.819  0.00  0.00    +0.466 C 
ATOM     12  O   LIG    1       23.860 -30.242   7.628  0.00  0.00    -0.453 OA
ATOM     13  C   LIG    1       23.838 -30.897   8.819  0.00  0.00    +0.167 A 
ATOM     14  C   LIG    1       23.280 -30.440   9.991  0.00  0.00    +0.054 A 
ATOM     15  C   LIG    1       22.013 -31.737  14.742  0.00  0.00    +0.312 C 
ATOM     16  O   LIG    1       21.612 -30.902  15.500  0.00  0.00    -0.251 OA
ATOM     17  C   LIG    1       23.370 -31.251  11.146  0.00  0.00    -0.030 A 
ENDROOT
BRANCH   1  22
ATOM     18  C   LIG    1       19.320 -32.366  10.916  0.00  0.00    +0.165 A 
ATOM     19  C   LIG    1       18.342 -31.620  11.582  0.00  0.00    +0.201 A 
ATOM     20  C   LIG    1       18.694 -30.627  12.502  0.00  0.00    +0.165 A 
ATOM     21  C   LIG    1       20.040 -30.350  12.727  0.00  0.00    +0.053 A 
ATOM     22  C   LIG    1       21.048 -31.092  12.087  0.00  0.00    -0.032 A 
ATOM     23  C   LIG    1       20.665 -32.085  11.174  0.00  0.00    +0.053 A 
BRANCH  18  25
ATOM     24  C   LIG    1       19.911 -33.780   9.117  0.00  0.00    +0.277 C 
ATOM     25  O   LIG    1       18.911 -33.330  10.031  0.00  0.00    -0.491 OA
ENDBRANCH  18  25
BRANCH  19  26
ATOM     26  O   LIG    1       17.008 -31.884  11.387  0.00  0.00    -0.501 OA
ATOM     27  H   LIG    1       16.990 -32.706  10.860  0.00  0.00    +0.292 HD
ENDBRANCH  19  26
BRANCH  20  28
ATOM     28  O   LIG    1       17.659 -29.978  13.131  0.00  0.00    -0.491 OA
ATOM     29  C   LIG    1       17.965 -29.500  14.442  0.00  0.00    +0.277 C 
ENDBRANCH  20  28
ENDBRANCH   1  22
BRANCH   6  30
ATOM     30  O   LIG    1       25.765 -32.707  12.781  0.00  0.00    -0.340 OA
BRANCH  30  31
ATOM     31  C   LIG    1       25.949 -31.284  12.787  0.00  0.00    +0.282 C 
ATOM     32  C   LIG    1       26.545 -30.892  14.150  0.00  0.00    +0.201 C 
ATOM     33  C   LIG    1       26.783 -29.388  14.173  0.00  0.00    +0.179 C 
ATOM     34  C   LIG    1       27.581 -28.871  12.969  0.00  0.00    +0.184 C 
ATOM     35  C   LIG    1       27.145 -29.504  11.639  0.00  0.00    +0.178 C 
ATOM     36  C   LIG    1       26.050 -28.654  10.988  0.00  0.00    +0.197 C 
ATOM     37  O   LIG    1       25.380 -27.886  11.984  0.00  0.00    -0.344 OA
ATOM     38  C   LIG    1       26.267 -26.892  12.501  0.00  0.00    +0.289 C 
ATOM     39  O   LIG    1       27.541 -27.432  12.895  0.00  0.00    -0.338 OA
ATOM     40  O   LIG    1       26.830 -30.901  11.730  0.00  0.00    -0.341 OA
BRANCH  38  41
ATOM     41  C   LIG    1       25.604 -26.217  13.680  0.00  0.00    +0.045 A 
ATOM     42  S   LIG    1       24.062 -26.762  14.229  0.00  0.00    -0.097 S 
ATOM     43  C   LIG    1       24.019 -25.612  15.496  0.00  0.00    +0.045 A 
ATOM     44  C   LIG    1       25.124 -24.796  15.488  0.00  0.00    +0.008 A 
ATOM     45  C   LIG    1       26.024 -25.135  14.437  0.00  0.00    +0.016 A 
ENDBRANCH  38  41
BRANCH  32  46
ATOM     46  O   LIG    1       25.654 -31.196  15.240  0.00  0.00    -0.384 OA
ATOM     47  H   LIG    1       24.763 -30.918  14.942  0.00  0.00    +0.210 HD
ENDBRANCH  32  46
BRANCH  33  48
ATOM     48  O   LIG    1       27.429 -29.056  15.418  0.00  0.00    -0.386 OA
ATOM     49  H   LIG    1       27.988 -29.807  15.686  0.00  0.00    +0.210 HD
ENDBRANCH  33  48
ENDBRANCH  30  31
ENDBRANCH   6  30
TORSDOF 9
ENDMDL
MODEL 7
REMARK VINA RESULT:      -3.9      3.003      5.662
REMARK  Name = *****
REMARK                            x       y       z     vdW  Elec       q    Type
REMARK                         _______ _______ _______ _____ _____    ______ ____
ROOT
ATOM      1  C   LIG    1       24.644 -29.578   8.132  0.00  0.00    +0.064 C 
ATOM      2  C   LIG    1       24.496 -30.927   7.386  0.00  0.00    +0.119 C 
ATOM      3  C   LIG    1       25.759 -31.764   7.261  0.00  0.00    +0.074 C 
ATOM      4  C   LIG    1       26.402 -31.196   6.029  0.00  0.00    +0.239 C 
ATOM      5  O   LIG    1       25.273 -30.887   5.174  0.00  0.00    -0.464 OA
ATOM      6  C   LIG    1       26.558 -31.893   8.559  0.00  0.00    +0.159 C 
ATOM      7  C   LIG    1       26.617 -30.618   9.371  0.00  0.00    -0.011 A 
ATOM      8  C   LIG    1       27.663 -30.460  10.295  0.00  0.00    +0.056 A 
ATOM      9  C   LIG    1       27.561 -29.482  11.258  0.00  0.00    +0.167 A 
ATOM     10  O   LIG    1       28.440 -29.274  12.274  0.00  0.00    -0.453 OA
ATOM     11  C   LIG    1       27.768 -28.218  12.994  0.00  0.00    +0.466 C 
ATOM     12  O   LIG    1       26.577 -27.744  12.329  0.00  0.00    -0.453 OA
ATOM     13  C   LIG    1       26.497 -28.621  11.294  0.00  0.00    +0.167 A 
ATOM     14  C   LIG    1       25.506 -28.665  10.338  0.00  0.00    +0.054 A 
ATOM     15  C   LIG    1       24.119 -30.781   5.927  0.00  0.00    +0.312 C 
ATOM     16  O   LIG    1       23.024 -30.577   5.488  0.00  0.00    -0.251 OA
ATOM     17  C   LIG    1       25.573 -29.665   9.341  0.00  0.00    -0.030 A 
ENDROOT
BRANCH   1  22
ATOM     18  C   LIG    1       24.326 -26.294   6.179  0.00  0.00    +0.165 A 
ATOM     19  C   LIG    1       25.647 -26.077   5.774  0.00  0.00    +0.201 A 
ATOM     20  C   LIG    1       26.662 -26.982   6.109  0.00  0.00    +0.165 A 
ATOM     21  C   LIG    1       26.342 -28.134   6.821  0.00  0.00    +0.053 A 
ATOM     22  C   LIG    1       25.027 -28.373   7.258  0.00  0.00    -0.032 A 
ATOM     23  C   LIG    1       24.032 -27.447   6.913  0.00  0.00    +0.053 A 
BRANCH  18  25
ATOM     24  C   LIG    1       23.288 -24.233   6.685  0.00  0.00    +0.277 C 
ATOM     25  O   LIG    1       23.378 -25.368   5.826  0.00  0.00    -0.491 OA
ENDBRANCH  18  25
BRANCH  19  26
ATOM     26  O   LIG    1       25.990 -24.942   5.082  0.00  0.00    -0.501 OA
ATOM     27  H   LIG    1       26.448 -24.379   5.735  0.00  0.00    +0.292 HD
ENDBRANCH  19  26
BRANCH  20  28
ATOM     28  O   LIG    1       27.932 -26.659   5.697  0.00  0.00    -0.491 OA
ATOM     29  C   LIG    1       28.359 -27.322   4.507  0.00  0.00    +0.277 C 
ENDBRANCH  20  28
ENDBRANCH   1  22
BRANCH   6  30
ATOM     30  O   LIG    1       25.838 -32.899   9.307  0.00  0.00    -0.340 OA
BRANCH  30  31
ATOM     31  C   LIG    1       25.172 -32.490  10.510  0.00  0.00    +0.282 C 
ATOM     32  C   LIG    1       23.720 -32.992  10.439  0.00  0.00    +0.201 C 
ATOM     33  C   LIG    1       22.996 -32.600  11.720  0.00  0.00    +0.179 C 
ATOM     34  C   LIG    1       23.738 -33.010  12.998  0.00  0.00    +0.184 C 
ATOM     35  C   LIG    1       25.251 -32.754  12.927  0.00  0.00    +0.178 C 
ATOM     36  C   LIG    1       25.571 -31.356  13.462  0.00  0.00    +0.197 C 
ATOM     37  O   LIG    1       24.421 -30.522  13.352  0.00  0.00    -0.344 OA
ATOM     38  C   LIG    1       23.414 -30.970  14.262  0.00  0.00    +0.289 C 
ATOM     39  O   LIG    1       23.161 -32.383  14.162  0.00  0.00    -0.338 OA
ATOM     40  O   LIG    1       25.835 -33.042  11.648  0.00  0.00    -0.341 OA
BRANCH  38  41
ATOM     41  C   LIG    1       22.143 -30.196  13.997  0.00  0.00    +0.045 A 
ATOM     42  S   LIG    1       20.637 -30.781  14.604  0.00  0.00    -0.097 S 
ATOM     43  C   LIG    1       19.773 -29.450  13.963  0.00  0.00    +0.045 A 
ATOM     44  C   LIG    1       20.589 -28.595  13.263  0.00  0.00    +0.008 A 
ATOM     45  C   LIG    1       21.945 -29.033  13.272  0.00  0.00    +0.016 A 
ENDBRANCH  38  41
BRANCH  32  46
ATOM     46  O   LIG    1       22.993 -32.400   9.345  0.00  0.00    -0.384 OA
ATOM     47  H   LIG    1       22.921 -33.099   8.663  0.00  0.00    +0.210 HD
ENDBRANCH  32  46
BRANCH  33  48
ATOM     48  O   LIG    1       21.669 -33.162  11.674  0.00  0.00    -0.386 OA
ATOM     49  H   LIG    1       21.740 -34.100  11.426  0.00  0.00    +0.210 HD
ENDBRANCH  33  48
ENDBRANCH  30  31
ENDBRANCH   6  30
TORSDOF 9
ENDMDL
MODEL 8
REMARK VINA RESULT:      -3.9      2.733      8.499
REMARK  Name = *****
REMARK                            x       y       z     vdW  Elec       q    Type
REMARK                         _______ _______ _______ _____ _____    ______ ____
ROOT
ATOM      1  C   LIG    1       22.286 -28.515  12.411  0.00  0.00    +0.064 C 
ATOM      2  C   LIG    1       23.544 -28.168  13.245  0.00  0.00    +0.119 C 
ATOM      3  C   LIG    1       24.090 -29.283  14.124  0.00  0.00    +0.074 C 
ATOM      4  C   LIG    1       23.269 -29.139  15.373  0.00  0.00    +0.239 C 
ATOM      5  O   LIG    1       23.100 -27.705  15.500  0.00  0.00    -0.464 OA
ATOM      6  C   LIG    1       24.200 -30.638  13.424  0.00  0.00    +0.159 C 
ATOM      7  C   LIG    1       23.039 -30.950  12.506  0.00  0.00    -0.011 A 
ATOM      8  C   LIG    1       22.778 -32.292  12.188  0.00  0.00    +0.056 A 
ATOM      9  C   LIG    1       21.955 -32.578  11.122  0.00  0.00    +0.167 A 
ATOM     10  O   LIG    1       21.691 -33.819  10.634  0.00  0.00    -0.453 OA
ATOM     11  C   LIG    1       20.879 -33.487   9.487  0.00  0.00    +0.466 C 
ATOM     12  O   LIG    1       20.583 -32.076   9.389  0.00  0.00    -0.453 OA
ATOM     13  C   LIG    1       21.336 -31.586  10.410  0.00  0.00    +0.167 A 
ATOM     14  C   LIG    1       21.471 -30.261  10.759  0.00  0.00    +0.054 A 
ATOM     15  C   LIG    1       23.314 -27.090  14.281  0.00  0.00    +0.312 C 
ATOM     16  O   LIG    1       23.286 -25.909  14.091  0.00  0.00    -0.251 OA
ATOM     17  C   LIG    1       22.319 -29.930  11.842  0.00  0.00    -0.030 A 
ENDROOT
BRANCH   1  22
ATOM     18  C   LIG    1       19.205 -29.065  14.627  0.00  0.00    +0.165 A 
ATOM     19  C   LIG    1       18.548 -27.836  14.507  0.00  0.00    +0.201 A 
ATOM     20  C   LIG    1       19.072 -26.813  13.708  0.00  0.00    +0.165 A 
ATOM     21  C   LIG    1       20.244 -27.038  12.991  0.00  0.00    +0.053 A 
ATOM     22  C   LIG    1       20.938 -28.256  13.103  0.00  0.00    -0.032 A 
ATOM     23  C   LIG    1       20.392 -29.260  13.915  0.00  0.00    +0.053 A 
BRANCH  18  25
ATOM     24  C   LIG    1       18.526 -31.318  14.839  0.00  0.00    +0.277 C 
ATOM     25  O   LIG    1       18.645 -30.025  15.430  0.00  0.00    -0.491 OA
ENDBRANCH  18  25
BRANCH  19  26
ATOM     26  O   LIG    1       17.398 -27.585  15.214  0.00  0.00    -0.501 OA
ATOM     27  H   LIG    1       17.318 -26.612  15.225  0.00  0.00    +0.292 HD
ENDBRANCH  19  26
BRANCH  20  28
ATOM     28  O   LIG    1       18.372 -25.631  13.687  0.00  0.00    -0.491 OA
ATOM     29  C   LIG    1       16.953 -25.778  13.745  0.00  0.00    +0.277 C 
ENDBRANCH  20  28
ENDBRANCH   1  22
BRANCH   6  30
ATOM     30  O   LIG    1       25.409 -30.522  12.638  0.00  0.00    -0.340 OA
BRANCH  30  31
ATOM     31  C   LIG    1       25.273 -30.428  11.213  0.00  0.00    +0.282 C 
ATOM     32  C   LIG    1       26.421 -29.549  10.687  0.00  0.00    +0.201 C 
ATOM     33  C   LIG    1       26.323 -29.459   9.170  0.00  0.00    +0.179 C 
ATOM     34  C   LIG    1       26.211 -30.823   8.477  0.00  0.00    +0.184 C 
ATOM     35  C   LIG    1       25.260 -31.790   9.198  0.00  0.00    +0.178 C 
ATOM     36  C   LIG    1       23.842 -31.645   8.638  0.00  0.00    +0.197 C 
ATOM     37  O   LIG    1       23.684 -30.356   8.053  0.00  0.00    -0.344 OA
ATOM     38  C   LIG    1       24.486 -30.261   6.874  0.00  0.00    +0.289 C 
ATOM     39  O   LIG    1       25.846 -30.676   7.090  0.00  0.00    -0.338 OA
ATOM     40  O   LIG    1       25.336 -31.730  10.629  0.00  0.00    -0.341 OA
BRANCH  38  41
ATOM     41  C   LIG    1       24.452 -28.833   6.378  0.00  0.00    +0.045 A 
ATOM     42  S   LIG    1       25.110 -28.443   4.832  0.00  0.00    -0.097 S 
ATOM     43  C   LIG    1       24.696 -26.790   4.985  0.00  0.00    +0.045 A 
ATOM     44  C   LIG    1       24.109 -26.517   6.197  0.00  0.00    +0.008 A 
ATOM     45  C   LIG    1       23.984 -27.687   7.000  0.00  0.00    +0.016 A 
ENDBRANCH  38  41
BRANCH  32  46
ATOM     46  O   LIG    1       26.351 -28.204  11.196  0.00  0.00    -0.384 OA
ATOM     47  H   LIG    1       26.723 -28.241  12.102  0.00  0.00    +0.210 HD
ENDBRANCH  32  46
BRANCH  33  48
ATOM     48  O   LIG    1       27.459 -28.713   8.692  0.00  0.00    -0.386 OA
ATOM     49  H   LIG    1       27.643 -28.984   7.775  0.00  0.00    +0.210 HD
ENDBRANCH  33  48
ENDBRANCH  30  31
ENDBRANCH   6  30
TORSDOF 9
ENDMDL
