MODEL 1
REMARK VINA RESULT:      -7.1      0.000      0.000
REMARK  Name = *****
REMARK                            x       y       z     vdW  Elec       q    Type
REMARK                         _______ _______ _______ _____ _____    ______ ____
ROOT
ATOM      1  C   LIG    1       24.637 -27.404   6.240  0.00  0.00    +0.019 A 
ATOM      2  C   LIG    1       25.429 -27.896   7.288  0.00  0.00    +0.133 A 
ATOM      3  F   LIG    1       26.165 -27.059   8.036  0.00  0.00    -0.205 F 
ATOM      4  C   LIG    1       25.515 -29.259   7.599  0.00  0.00    +0.062 A 
ATOM      5  C   LIG    1       24.824 -30.213   6.846  0.00  0.00    +0.042 A 
ATOM      6  C   LIG    1       24.049 -29.741   5.781  0.00  0.00    +0.024 A 
ATOM      7  C   LIG    1       23.958 -28.369   5.484  0.00  0.00    +0.013 A 
ENDROOT
BRANCH   1  11
ATOM      8  C   LIG    1       24.345 -23.227   5.383  0.00  0.00    +0.111 A 
ATOM      9  N   LIG    1       25.045 -24.032   4.551  0.00  0.00    -0.251 NA
ATOM     10  C   LIG    1       25.103 -25.351   4.858  0.00  0.00    +0.120 A 
ATOM     11  C   LIG    1       24.495 -25.957   5.961  0.00  0.00    +0.003 A 
ATOM     12  C   LIG    1       23.775 -25.088   6.795  0.00  0.00    +0.012 A 
ATOM     13  C   LIG    1       23.702 -23.720   6.513  0.00  0.00    +0.032 A 
BRANCH   8  17
ATOM     14  C   LIG    1       22.862 -18.764   4.236  0.00  0.00    +0.199 C 
ATOM     15  N   LIG    1       23.690 -19.895   4.550  0.00  0.00    -0.166 N 
ATOM     16  N   LIG    1       23.167 -21.108   4.800  0.00  0.00    -0.129 NA
ATOM     17  C   LIG    1       24.297 -21.806   5.045  0.00  0.00    +0.223 A 
ATOM     18  N   LIG    1       25.427 -21.021   4.942  0.00  0.00    -0.106 NA
ATOM     19  N   LIG    1       25.022 -19.799   4.626  0.00  0.00    -0.046 NA
ENDBRANCH   8  17
ENDBRANCH   1  11
BRANCH   5  20
ATOM     20  N   LIG    1       24.937 -31.598   7.140  0.00  0.00    -0.234 N 
ATOM     21  C   LIG    1       25.984 -32.446   6.814  0.00  0.00    +0.408 C 
ATOM     22  O   LIG    1       27.021 -32.185   6.213  0.00  0.00    -0.226 OA
ATOM     23  O   LIG    1       25.723 -33.711   7.262  0.00  0.00    -0.443 OA
ATOM     24  C   LIG    1       24.576 -33.665   8.122  0.00  0.00    +0.222 C 
ATOM     25  C   LIG    1       23.895 -32.360   7.767  0.00  0.00    +0.164 C 
BRANCH  24  26
ATOM     26  C   LIG    1       25.021 -33.736   9.589  0.00  0.00    +0.218 C 
BRANCH  26  27
ATOM     27  O   LIG    1       24.475 -32.689  10.385  0.00  0.00    -0.283 OA
BRANCH  27  28
ATOM     28  P   LIG    1       25.445 -31.624  11.077  0.00  0.00    +0.472 P 
ATOM     29  O   LIG    1       25.819 -31.868  12.495  0.00  0.00    -0.228 OA
BRANCH  28  30
ATOM     30  O   LIG    1       24.749 -30.202  10.879  0.00  0.00    -0.303 OA
ATOM     31  H   LIG    1       23.809 -30.318  10.651  0.00  0.00    +0.222 HD
ENDBRANCH  28  30
BRANCH  28  32
ATOM     32  O   LIG    1       26.716 -31.526  10.122  0.00  0.00    -0.303 OA
ATOM     33  H   LIG    1       26.473 -31.128   9.265  0.00  0.00    +0.222 HD
ENDBRANCH  28  32
ENDBRANCH  27  28
ENDBRANCH  26  27
ENDBRANCH  24  26
ENDBRANCH   5  20
TORSDOF 8
ENDMDL
MODEL 2
REMARK VINA RESULT:      -6.9      0.505      1.104
REMARK  Name = *****
REMARK                            x       y       z     vdW  Elec       q    Type
REMARK                         _______ _______ _______ _____ _____    ______ ____
ROOT
ATOM      1  C   LIG    1       24.623 -27.337   6.235  0.00  0.00    +0.019 A 
ATOM      2  C   LIG    1       25.433 -27.818   7.275  0.00  0.00    +0.133 A 
ATOM      3  F   LIG    1       26.164 -26.970   8.016  0.00  0.00    -0.205 F 
ATOM      4  C   LIG    1       25.542 -29.180   7.583  0.00  0.00    +0.062 A 
ATOM      5  C   LIG    1       24.858 -30.143   6.837  0.00  0.00    +0.042 A 
ATOM      6  C   LIG    1       24.065 -29.683   5.780  0.00  0.00    +0.024 A 
ATOM      7  C   LIG    1       23.950 -28.312   5.485  0.00  0.00    +0.013 A 
ENDROOT
BRANCH   1  11
ATOM      8  C   LIG    1       24.263 -23.163   5.392  0.00  0.00    +0.111 A 
ATOM      9  N   LIG    1       25.031 -23.941   4.594  0.00  0.00    -0.251 NA
ATOM     10  C   LIG    1       25.108 -25.261   4.895  0.00  0.00    +0.120 A 
ATOM     11  C   LIG    1       24.457 -25.893   5.958  0.00  0.00    +0.003 A 
ATOM     12  C   LIG    1       23.668 -25.051   6.757  0.00  0.00    +0.012 A 
ATOM     13  C   LIG    1       23.572 -23.683   6.480  0.00  0.00    +0.032 A 
BRANCH   8  17
ATOM     14  C   LIG    1       25.156 -18.749   3.615  0.00  0.00    +0.199 C 
ATOM     15  N   LIG    1       24.556 -19.848   4.321  0.00  0.00    -0.166 N 
ATOM     16  N   LIG    1       25.087 -21.082   4.291  0.00  0.00    -0.129 NA
ATOM     17  C   LIG    1       24.195 -21.740   5.061  0.00  0.00    +0.223 A 
ATOM     18  N   LIG    1       23.187 -20.914   5.515  0.00  0.00    -0.106 NA
ATOM     19  N   LIG    1       23.431 -19.704   5.030  0.00  0.00    -0.046 NA
ENDBRANCH   8  17
ENDBRANCH   1  11
BRANCH   5  20
ATOM     20  N   LIG    1       24.994 -31.527   7.129  0.00  0.00    -0.234 N 
ATOM     21  C   LIG    1       26.007 -32.379   6.718  0.00  0.00    +0.408 C 
ATOM     22  O   LIG    1       26.988 -32.124   6.026  0.00  0.00    -0.226 OA
ATOM     23  O   LIG    1       25.785 -33.641   7.195  0.00  0.00    -0.443 OA
ATOM     24  C   LIG    1       24.718 -33.587   8.151  0.00  0.00    +0.222 C 
ATOM     25  C   LIG    1       24.010 -32.284   7.849  0.00  0.00    +0.164 C 
BRANCH  24  26
ATOM     26  C   LIG    1       25.290 -33.649   9.575  0.00  0.00    +0.218 C 
BRANCH  26  27
ATOM     27  O   LIG    1       24.681 -32.715  10.459  0.00  0.00    -0.283 OA
BRANCH  27  28
ATOM     28  P   LIG    1       25.505 -31.446  10.971  0.00  0.00    +0.472 P 
ATOM     29  O   LIG    1       24.815 -30.129  10.936  0.00  0.00    -0.228 OA
BRANCH  28  30
ATOM     30  O   LIG    1       26.859 -31.432  10.128  0.00  0.00    -0.303 OA
ATOM     31  H   LIG    1       27.067 -30.523   9.842  0.00  0.00    +0.222 HD
ENDBRANCH  28  30
BRANCH  28  32
ATOM     32  O   LIG    1       26.008 -31.828  12.433  0.00  0.00    -0.303 OA
ATOM     33  H   LIG    1       25.844 -32.772  12.617  0.00  0.00    +0.222 HD
ENDBRANCH  28  32
ENDBRANCH  27  28
ENDBRANCH  26  27
ENDBRANCH  24  26
ENDBRANCH   5  20
TORSDOF 8
ENDMDL
MODEL 3
REMARK VINA RESULT:      -6.6      2.088      3.296
REMARK  Name = *****
REMARK                            x       y       z     vdW  Elec       q    Type
REMARK                         _______ _______ _______ _____ _____    ______ ____
ROOT
ATOM      1  C   LIG    1       25.294 -26.666   6.842  0.00  0.00    +0.019 A 
ATOM      2  C   LIG    1       24.607 -27.754   6.283  0.00  0.00    +0.133 A 
ATOM      3  F   LIG    1       23.707 -27.561   5.306  0.00  0.00    -0.205 F 
ATOM      4  C   LIG    1       24.799 -29.073   6.713  0.00  0.00    +0.062 A 
ATOM      5  C   LIG    1       25.678 -29.369   7.757  0.00  0.00    +0.042 A 
ATOM      6  C   LIG    1       26.354 -28.292   8.343  0.00  0.00    +0.024 A 
ATOM      7  C   LIG    1       26.166 -26.972   7.897  0.00  0.00    +0.013 A 
ENDROOT
BRANCH   1  11
ATOM      8  C   LIG    1       24.897 -22.711   5.272  0.00  0.00    +0.111 A 
ATOM      9  N   LIG    1       24.696 -23.775   4.460  0.00  0.00    -0.251 NA
ATOM     10  C   LIG    1       24.824 -25.010   5.004  0.00  0.00    +0.120 A 
ATOM     11  C   LIG    1       25.141 -25.283   6.338  0.00  0.00    +0.003 A 
ATOM     12  C   LIG    1       25.336 -24.152   7.146  0.00  0.00    +0.012 A 
ATOM     13  C   LIG    1       25.219 -22.863   6.615  0.00  0.00    +0.032 A 
BRANCH   8  17
ATOM     14  C   LIG    1       25.783 -18.298   3.491  0.00  0.00    +0.199 C 
ATOM     15  N   LIG    1       25.114 -19.498   3.911  0.00  0.00    -0.166 N 
ATOM     16  N   LIG    1       25.782 -20.522   4.470  0.00  0.00    -0.129 NA
ATOM     17  C   LIG    1       24.763 -21.385   4.671  0.00  0.00    +0.223 A 
ATOM     18  N   LIG    1       23.555 -20.876   4.240  0.00  0.00    -0.106 NA
ATOM     19  N   LIG    1       23.796 -19.667   3.753  0.00  0.00    -0.046 NA
ENDBRANCH   8  17
ENDBRANCH   1  11
BRANCH   5  20
ATOM     20  N   LIG    1       25.848 -30.703   8.215  0.00  0.00    -0.234 N 
ATOM     21  C   LIG    1       25.395 -31.248   9.406  0.00  0.00    +0.408 C 
ATOM     22  O   LIG    1       24.762 -30.705  10.305  0.00  0.00    -0.226 OA
ATOM     23  O   LIG    1       25.761 -32.563   9.492  0.00  0.00    -0.443 OA
ATOM     24  C   LIG    1       26.269 -32.981   8.218  0.00  0.00    +0.222 C 
ATOM     25  C   LIG    1       26.620 -31.688   7.513  0.00  0.00    +0.164 C 
BRANCH  24  26
ATOM     26  C   LIG    1       25.207 -33.804   7.477  0.00  0.00    +0.218 C 
BRANCH  26  27
ATOM     27  O   LIG    1       24.954 -33.328   6.159  0.00  0.00    -0.283 OA
BRANCH  27  28
ATOM     28  P   LIG    1       23.451 -33.127   5.658  0.00  0.00    +0.472 P 
ATOM     29  O   LIG    1       22.381 -33.824   6.422  0.00  0.00    -0.228 OA
BRANCH  28  30
ATOM     30  O   LIG    1       23.443 -33.534   4.115  0.00  0.00    -0.303 OA
ATOM     31  H   LIG    1       24.131 -33.038   3.634  0.00  0.00    +0.222 HD
ENDBRANCH  28  30
BRANCH  28  32
ATOM     32  O   LIG    1       23.228 -31.551   5.604  0.00  0.00    -0.303 OA
ATOM     33  H   LIG    1       22.276 -31.337   5.634  0.00  0.00    +0.222 HD
ENDBRANCH  28  32
ENDBRANCH  27  28
ENDBRANCH  26  27
ENDBRANCH  24  26
ENDBRANCH   5  20
TORSDOF 8
ENDMDL
MODEL 4
REMARK VINA RESULT:      -6.5      1.389      1.845
REMARK  Name = *****
REMARK                            x       y       z     vdW  Elec       q    Type
REMARK                         _______ _______ _______ _____ _____    ______ ____
ROOT
ATOM      1  C   LIG    1       24.700 -27.024   6.214  0.00  0.00    +0.019 A 
ATOM      2  C   LIG    1       25.531 -27.457   7.258  0.00  0.00    +0.133 A 
ATOM      3  F   LIG    1       26.246 -26.572   7.970  0.00  0.00    -0.205 F 
ATOM      4  C   LIG    1       25.678 -28.807   7.600  0.00  0.00    +0.062 A 
ATOM      5  C   LIG    1       25.013 -29.807   6.885  0.00  0.00    +0.042 A 
ATOM      6  C   LIG    1       24.199 -29.394   5.825  0.00  0.00    +0.024 A 
ATOM      7  C   LIG    1       24.046 -28.035   5.496  0.00  0.00    +0.013 A 
ENDROOT
BRANCH   1  11
ATOM      8  C   LIG    1       24.216 -22.889   5.251  0.00  0.00    +0.111 A 
ATOM      9  N   LIG    1       24.847 -23.708   4.378  0.00  0.00    -0.251 NA
ATOM     10  C   LIG    1       24.969 -25.013   4.722  0.00  0.00    +0.120 A 
ATOM     11  C   LIG    1       24.493 -25.592   5.902  0.00  0.00    +0.003 A 
ATOM     12  C   LIG    1       23.842 -24.709   6.777  0.00  0.00    +0.012 A 
ATOM     13  C   LIG    1       23.705 -23.354   6.457  0.00  0.00    +0.032 A 
BRANCH   8  17
ATOM     14  C   LIG    1       25.039 -18.464   3.468  0.00  0.00    +0.199 C 
ATOM     15  N   LIG    1       24.427 -19.585   4.125  0.00  0.00    -0.166 N 
ATOM     16  N   LIG    1       25.037 -20.781   4.200  0.00  0.00    -0.129 NA
ATOM     17  C   LIG    1       24.098 -21.482   4.871  0.00  0.00    +0.223 A 
ATOM     18  N   LIG    1       22.989 -20.717   5.169  0.00  0.00    -0.106 NA
ATOM     19  N   LIG    1       23.214 -19.504   4.682  0.00  0.00    -0.046 NA
ENDBRANCH   8  17
ENDBRANCH   1  11
BRANCH   5  20
ATOM     20  N   LIG    1       25.187 -31.179   7.211  0.00  0.00    -0.234 N 
ATOM     21  C   LIG    1       26.040 -31.716   8.162  0.00  0.00    +0.408 C 
ATOM     22  O   LIG    1       26.814 -31.133   8.914  0.00  0.00    -0.226 OA
ATOM     23  O   LIG    1       25.930 -33.079   8.177  0.00  0.00    -0.443 OA
ATOM     24  C   LIG    1       24.799 -33.456   7.381  0.00  0.00    +0.222 C 
ATOM     25  C   LIG    1       24.537 -32.247   6.507  0.00  0.00    +0.164 C 
BRANCH  24  26
ATOM     26  C   LIG    1       23.615 -33.812   8.290  0.00  0.00    +0.218 C 
BRANCH  26  27
ATOM     27  O   LIG    1       22.643 -32.775   8.368  0.00  0.00    -0.283 OA
BRANCH  27  28
ATOM     28  P   LIG    1       22.411 -32.001   9.746  0.00  0.00    +0.472 P 
ATOM     29  O   LIG    1       23.094 -32.541  10.952  0.00  0.00    -0.228 OA
BRANCH  28  30
ATOM     30  O   LIG    1       20.830 -31.919   9.944  0.00  0.00    -0.303 OA
ATOM     31  H   LIG    1       20.620 -31.608  10.844  0.00  0.00    +0.222 HD
ENDBRANCH  28  30
BRANCH  28  32
ATOM     32  O   LIG    1       22.806 -30.486   9.453  0.00  0.00    -0.303 OA
ATOM     33  H   LIG    1       23.658 -30.266   9.874  0.00  0.00    +0.222 HD
ENDBRANCH  28  32
ENDBRANCH  27  28
ENDBRANCH  26  27
ENDBRANCH  24  26
ENDBRANCH   5  20
TORSDOF 8
ENDMDL
MODEL 5
REMARK VINA RESULT:      -6.4      1.169      1.591
REMARK  Name = *****
REMARK                            x       y       z     vdW  Elec       q    Type
REMARK                         _______ _______ _______ _____ _____    ______ ____
ROOT
ATOM      1  C   LIG    1       25.162 -27.470   6.687  0.00  0.00    +0.019 A 
ATOM      2  C   LIG    1       24.645 -28.443   5.819  0.00  0.00    +0.133 A 
ATOM      3  F   LIG    1       24.030 -28.083   4.681  0.00  0.00    -0.205 F 
ATOM      4  C   LIG    1       24.720 -29.816   6.088  0.00  0.00    +0.062 A 
ATOM      5  C   LIG    1       25.298 -30.286   7.270  0.00  0.00    +0.042 A 
ATOM      6  C   LIG    1       25.796 -29.328   8.159  0.00  0.00    +0.024 A 
ATOM      7  C   LIG    1       25.730 -27.952   7.875  0.00  0.00    +0.013 A 
ENDROOT
BRANCH   1  11
ATOM      8  C   LIG    1       25.141 -23.328   5.636  0.00  0.00    +0.111 A 
ATOM      9  N   LIG    1       24.751 -24.249   4.725  0.00  0.00    -0.251 NA
ATOM     10  C   LIG    1       24.765 -25.550   5.106  0.00  0.00    +0.120 A 
ATOM     11  C   LIG    1       25.144 -26.025   6.365  0.00  0.00    +0.003 A 
ATOM     12  C   LIG    1       25.537 -25.036   7.280  0.00  0.00    +0.012 A 
ATOM     13  C   LIG    1       25.542 -23.686   6.918  0.00  0.00    +0.032 A 
BRANCH   8  17
ATOM     14  C   LIG    1       23.992 -19.100   3.576  0.00  0.00    +0.199 C 
ATOM     15  N   LIG    1       24.663 -20.116   4.339  0.00  0.00    -0.166 N 
ATOM     16  N   LIG    1       24.205 -21.379   4.392  0.00  0.00    -0.129 NA
ATOM     17  C   LIG    1       25.128 -21.929   5.210  0.00  0.00    +0.223 A 
ATOM     18  N   LIG    1       26.080 -21.015   5.613  0.00  0.00    -0.106 NA
ATOM     19  N   LIG    1       25.767 -19.856   5.048  0.00  0.00    -0.046 NA
ENDBRANCH   8  17
ENDBRANCH   1  11
BRANCH   5  20
ATOM     20  N   LIG    1       25.344 -31.677   7.559  0.00  0.00    -0.234 N 
ATOM     21  C   LIG    1       26.351 -32.571   7.232  0.00  0.00    +0.408 C 
ATOM     22  O   LIG    1       27.401 -32.358   6.635  0.00  0.00    -0.226 OA
ATOM     23  O   LIG    1       26.029 -33.825   7.675  0.00  0.00    -0.443 OA
ATOM     24  C   LIG    1       24.884 -33.728   8.531  0.00  0.00    +0.222 C 
ATOM     25  C   LIG    1       24.265 -32.392   8.179  0.00  0.00    +0.164 C 
BRANCH  24  26
ATOM     26  C   LIG    1       25.320 -33.825   9.999  0.00  0.00    +0.218 C 
BRANCH  26  27
ATOM     27  O   LIG    1       24.469 -33.099  10.881  0.00  0.00    -0.283 OA
BRANCH  27  28
ATOM     28  P   LIG    1       25.077 -31.957  11.817  0.00  0.00    +0.472 P 
ATOM     29  O   LIG    1       24.141 -30.909  12.304  0.00  0.00    -0.228 OA
BRANCH  28  30
ATOM     30  O   LIG    1       26.303 -31.332  11.009  0.00  0.00    -0.303 OA
ATOM     31  H   LIG    1       26.729 -30.632  11.536  0.00  0.00    +0.222 HD
ENDBRANCH  28  30
BRANCH  28  32
ATOM     32  O   LIG    1       25.800 -32.726  13.009  0.00  0.00    -0.303 OA
ATOM     33  H   LIG    1       25.330 -33.555  13.218  0.00  0.00    +0.222 HD
ENDBRANCH  28  32
ENDBRANCH  27  28
ENDBRANCH  26  27
ENDBRANCH  24  26
ENDBRANCH   5  20
TORSDOF 8
ENDMDL
MODEL 6
REMARK VINA RESULT:      -6.4      1.509      2.081
REMARK  Name = *****
REMARK                            x       y       z     vdW  Elec       q    Type
REMARK                         _______ _______ _______ _____ _____    ______ ____
ROOT
ATOM      1  C   LIG    1       24.838 -26.937   6.503  0.00  0.00    +0.019 A 
ATOM      2  C   LIG    1       24.381 -28.026   5.746  0.00  0.00    +0.133 A 
ATOM      3  F   LIG    1       23.595 -27.828   4.676  0.00  0.00    -0.205 F 
ATOM      4  C   LIG    1       24.693 -29.354   6.062  0.00  0.00    +0.062 A 
ATOM      5  C   LIG    1       25.464 -29.664   7.185  0.00  0.00    +0.042 A 
ATOM      6  C   LIG    1       25.908 -28.591   7.966  0.00  0.00    +0.024 A 
ATOM      7  C   LIG    1       25.602 -27.259   7.634  0.00  0.00    +0.013 A 
ENDROOT
BRANCH   1  11
ATOM      8  C   LIG    1       24.170 -22.874   5.362  0.00  0.00    +0.111 A 
ATOM      9  N   LIG    1       24.970 -23.657   4.602  0.00  0.00    -0.251 NA
ATOM     10  C   LIG    1       25.146 -24.941   4.998  0.00  0.00    +0.120 A 
ATOM     11  C   LIG    1       24.565 -25.533   6.124  0.00  0.00    +0.003 A 
ATOM     12  C   LIG    1       23.739 -24.687   6.880  0.00  0.00    +0.012 A 
ATOM     13  C   LIG    1       23.542 -23.355   6.506  0.00  0.00    +0.032 A 
BRANCH   8  17
ATOM     14  C   LIG    1       22.345 -18.496   4.393  0.00  0.00    +0.199 C 
ATOM     15  N   LIG    1       23.238 -19.616   4.500  0.00  0.00    -0.166 N 
ATOM     16  N   LIG    1       22.846 -20.785   5.034  0.00  0.00    -0.129 NA
ATOM     17  C   LIG    1       23.994 -21.488   4.928  0.00  0.00    +0.223 A 
ATOM     18  N   LIG    1       25.008 -20.749   4.356  0.00  0.00    -0.106 NA
ATOM     19  N   LIG    1       24.509 -19.549   4.089  0.00  0.00    -0.046 NA
ENDBRANCH   8  17
ENDBRANCH   1  11
BRANCH   5  20
ATOM     20  N   LIG    1       25.753 -31.013   7.526  0.00  0.00    -0.234 N 
ATOM     21  C   LIG    1       26.541 -31.467   8.572  0.00  0.00    +0.408 C 
ATOM     22  O   LIG    1       27.146 -30.812   9.414  0.00  0.00    -0.226 OA
ATOM     23  O   LIG    1       26.585 -32.834   8.570  0.00  0.00    -0.443 OA
ATOM     24  C   LIG    1       25.609 -33.322   7.640  0.00  0.00    +0.222 C 
ATOM     25  C   LIG    1       25.319 -32.136   6.745  0.00  0.00    +0.164 C 
BRANCH  24  26
ATOM     26  C   LIG    1       24.372 -33.824   8.397  0.00  0.00    +0.218 C 
BRANCH  26  27
ATOM     27  O   LIG    1       23.254 -32.951   8.276  0.00  0.00    -0.283 OA
BRANCH  27  28
ATOM     28  P   LIG    1       22.685 -32.201   9.566  0.00  0.00    +0.472 P 
ATOM     29  O   LIG    1       21.334 -32.602  10.044  0.00  0.00    -0.228 OA
BRANCH  28  30
ATOM     30  O   LIG    1       22.763 -30.642   9.239  0.00  0.00    -0.303 OA
ATOM     31  H   LIG    1       22.965 -30.507   8.295  0.00  0.00    +0.222 HD
ENDBRANCH  28  30
BRANCH  28  32
ATOM     32  O   LIG    1       23.801 -32.379  10.688  0.00  0.00    -0.303 OA
ATOM     33  H   LIG    1       24.560 -32.885  10.341  0.00  0.00    +0.222 HD
ENDBRANCH  28  32
ENDBRANCH  27  28
ENDBRANCH  26  27
ENDBRANCH  24  26
ENDBRANCH   5  20
TORSDOF 8
ENDMDL
MODEL 7
REMARK VINA RESULT:      -6.3      7.689     11.667
REMARK  Name = *****
REMARK                            x       y       z     vdW  Elec       q    Type
REMARK                         _______ _______ _______ _____ _____    ______ ____
ROOT
ATOM      1  C   LIG    1       24.906 -24.738   6.015  0.00  0.00    +0.019 A 
ATOM      2  C   LIG    1       24.859 -24.443   4.644  0.00  0.00    +0.133 A 
ATOM      3  F   LIG    1       25.081 -25.404   3.734  0.00  0.00    -0.205 F 
ATOM      4  C   LIG    1       24.603 -23.156   4.154  0.00  0.00    +0.062 A 
ATOM      5  C   LIG    1       24.408 -22.080   5.024  0.00  0.00    +0.042 A 
ATOM      6  C   LIG    1       24.476 -22.352   6.395  0.00  0.00    +0.024 A 
ATOM      7  C   LIG    1       24.720 -23.650   6.880  0.00  0.00    +0.013 A 
ENDROOT
BRANCH   1  11
ATOM      8  C   LIG    1       25.356 -28.722   7.493  0.00  0.00    +0.111 A 
ATOM      9  N   LIG    1       24.353 -28.440   6.630  0.00  0.00    -0.251 NA
ATOM     10  C   LIG    1       24.254 -27.165   6.181  0.00  0.00    +0.120 A 
ATOM     11  C   LIG    1       25.106 -26.112   6.528  0.00  0.00    +0.003 A 
ATOM     12  C   LIG    1       26.135 -26.449   7.421  0.00  0.00    +0.012 A 
ATOM     13  C   LIG    1       26.261 -27.753   7.910  0.00  0.00    +0.032 A 
BRANCH   8  17
ATOM     14  C   LIG    1       25.486 -33.553   7.785  0.00  0.00    +0.199 C 
ATOM     15  N   LIG    1       25.500 -32.157   8.128  0.00  0.00    -0.166 N 
ATOM     16  N   LIG    1       25.354 -31.198   7.197  0.00  0.00    -0.129 NA
ATOM     17  C   LIG    1       25.446 -30.099   7.976  0.00  0.00    +0.223 A 
ATOM     18  N   LIG    1       25.639 -30.416   9.305  0.00  0.00    -0.106 NA
ATOM     19  N   LIG    1       25.674 -31.739   9.386  0.00  0.00    -0.046 NA
ENDBRANCH   8  17
ENDBRANCH   1  11
BRANCH   5  20
ATOM     20  N   LIG    1       24.182 -20.769   4.527  0.00  0.00    -0.234 N 
ATOM     21  C   LIG    1       23.367 -19.790   5.074  0.00  0.00    +0.408 C 
ATOM     22  O   LIG    1       22.679 -19.846   6.088  0.00  0.00    -0.226 OA
ATOM     23  O   LIG    1       23.404 -18.661   4.304  0.00  0.00    -0.443 OA
ATOM     24  C   LIG    1       24.456 -18.799   3.340  0.00  0.00    +0.222 C 
ATOM     25  C   LIG    1       24.723 -20.288   3.288  0.00  0.00    +0.164 C 
BRANCH  24  26
ATOM     26  C   LIG    1       25.677 -17.980   3.780  0.00  0.00    +0.218 C 
BRANCH  26  27
ATOM     27  O   LIG    1       26.031 -16.964   2.847  0.00  0.00    -0.283 OA
BRANCH  27  28
ATOM     28  P   LIG    1       26.308 -15.476   3.355  0.00  0.00    +0.472 P 
ATOM     29  O   LIG    1       25.263 -14.842   4.203  0.00  0.00    -0.228 OA
BRANCH  28  30
ATOM     30  O   LIG    1       26.619 -14.615   2.049  0.00  0.00    -0.303 OA
ATOM     31  H   LIG    1       27.563 -14.374   2.022  0.00  0.00    +0.222 HD
ENDBRANCH  28  30
BRANCH  28  32
ATOM     32  O   LIG    1       27.725 -15.532   4.081  0.00  0.00    -0.303 OA
ATOM     33  H   LIG    1       27.700 -15.041   4.923  0.00  0.00    +0.222 HD
ENDBRANCH  28  32
ENDBRANCH  27  28
ENDBRANCH  26  27
ENDBRANCH  24  26
ENDBRANCH   5  20
TORSDOF 8
ENDMDL
MODEL 8
REMARK VINA RESULT:      -5.9      7.853     11.750
REMARK  Name = *****
REMARK                            x       y       z     vdW  Elec       q    Type
REMARK                         _______ _______ _______ _____ _____    ______ ____
ROOT
ATOM      1  C   LIG    1       24.933 -24.477   5.831  0.00  0.00    +0.019 A 
ATOM      2  C   LIG    1       25.207 -23.336   6.600  0.00  0.00    +0.133 A 
ATOM      3  F   LIG    1       25.589 -23.455   7.882  0.00  0.00    -0.205 F 
ATOM      4  C   LIG    1       25.084 -22.034   6.097  0.00  0.00    +0.062 A 
ATOM      5  C   LIG    1       24.646 -21.807   4.790  0.00  0.00    +0.042 A 
ATOM      6  C   LIG    1       24.344 -22.934   4.016  0.00  0.00    +0.024 A 
ATOM      7  C   LIG    1       24.483 -24.238   4.525  0.00  0.00    +0.013 A 
ENDROOT
BRANCH   1  11
ATOM      8  C   LIG    1       25.382 -28.460   7.314  0.00  0.00    +0.111 A 
ATOM      9  N   LIG    1       24.365 -28.173   6.468  0.00  0.00    -0.251 NA
ATOM     10  C   LIG    1       24.268 -26.898   6.017  0.00  0.00    +0.120 A 
ATOM     11  C   LIG    1       25.133 -25.850   6.344  0.00  0.00    +0.003 A 
ATOM     12  C   LIG    1       26.176 -26.192   7.219  0.00  0.00    +0.012 A 
ATOM     13  C   LIG    1       26.302 -27.495   7.711  0.00  0.00    +0.032 A 
BRANCH   8  17
ATOM     14  C   LIG    1       25.025 -33.265   7.773  0.00  0.00    +0.199 C 
ATOM     15  N   LIG    1       25.327 -31.883   8.022  0.00  0.00    -0.166 N 
ATOM     16  N   LIG    1       24.977 -30.915   7.157  0.00  0.00    -0.129 NA
ATOM     17  C   LIG    1       25.472 -29.836   7.799  0.00  0.00    +0.223 A 
ATOM     18  N   LIG    1       26.085 -30.172   8.989  0.00  0.00    -0.106 NA
ATOM     19  N   LIG    1       25.987 -31.488   9.116  0.00  0.00    -0.046 NA
ENDBRANCH   8  17
ENDBRANCH   1  11
BRANCH   5  20
ATOM     20  N   LIG    1       24.489 -20.487   4.290  0.00  0.00    -0.234 N 
ATOM     21  C   LIG    1       23.580 -19.529   4.712  0.00  0.00    +0.408 C 
ATOM     22  O   LIG    1       22.731 -19.616   5.593  0.00  0.00    -0.226 OA
ATOM     23  O   LIG    1       23.731 -18.382   3.983  0.00  0.00    -0.443 OA
ATOM     24  C   LIG    1       24.933 -18.487   3.209  0.00  0.00    +0.222 C 
ATOM     25  C   LIG    1       25.225 -19.972   3.171  0.00  0.00    +0.164 C 
BRANCH  24  26
ATOM     26  C   LIG    1       26.051 -17.667   3.867  0.00  0.00    +0.218 C 
BRANCH  26  27
ATOM     27  O   LIG    1       26.587 -16.668   3.006  0.00  0.00    -0.283 OA
BRANCH  27  28
ATOM     28  P   LIG    1       26.334 -15.123   3.321  0.00  0.00    +0.472 P 
ATOM     29  O   LIG    1       25.024 -14.759   3.926  0.00  0.00    -0.228 OA
BRANCH  28  30
ATOM     30  O   LIG    1       26.595 -14.345   1.953  0.00  0.00    -0.303 OA
ATOM     31  H   LIG    1       26.454 -14.942   1.196  0.00  0.00    +0.222 HD
ENDBRANCH  28  30
BRANCH  28  32
ATOM     32  O   LIG    1       27.565 -14.666   4.223  0.00  0.00    -0.303 OA
ATOM     33  H   LIG    1       28.386 -15.105   3.930  0.00  0.00    +0.222 HD
ENDBRANCH  28  32
ENDBRANCH  27  28
ENDBRANCH  26  27
ENDBRANCH  24  26
ENDBRANCH   5  20
TORSDOF 8
ENDMDL
MODEL 9
REMARK VINA RESULT:      -5.5      1.691      2.458
REMARK  Name = *****
REMARK                            x       y       z     vdW  Elec       q    Type
REMARK                         _______ _______ _______ _____ _____    ______ ____
ROOT
ATOM      1  C   LIG    1       25.392 -26.786   6.889  0.00  0.00    +0.019 A 
ATOM      2  C   LIG    1       24.773 -27.936   6.376  0.00  0.00    +0.133 A 
ATOM      3  F   LIG    1       23.911 -27.845   5.351  0.00  0.00    -0.205 F 
ATOM      4  C   LIG    1       24.996 -29.215   6.902  0.00  0.00    +0.062 A 
ATOM      5  C   LIG    1       25.838 -29.404   8.000  0.00  0.00    +0.042 A 
ATOM      6  C   LIG    1       26.444 -28.264   8.540  0.00  0.00    +0.024 A 
ATOM      7  C   LIG    1       26.226 -26.985   7.998  0.00  0.00    +0.013 A 
ENDROOT
BRANCH   1  11
ATOM      8  C   LIG    1       24.815 -22.877   5.259  0.00  0.00    +0.111 A 
ATOM      9  N   LIG    1       25.150 -23.014   6.563  0.00  0.00    -0.251 NA
ATOM     10  C   LIG    1       25.332 -24.272   7.034  0.00  0.00    +0.120 A 
ATOM     11  C   LIG    1       25.208 -25.447   6.285  0.00  0.00    +0.003 A 
ATOM     12  C   LIG    1       24.864 -25.260   4.938  0.00  0.00    +0.012 A 
ATOM     13  C   LIG    1       24.662 -23.976   4.421  0.00  0.00    +0.032 A 
BRANCH   8  17
ATOM     14  C   LIG    1       25.491 -18.420   3.495  0.00  0.00    +0.199 C 
ATOM     15  N   LIG    1       24.877 -19.608   4.021  0.00  0.00    -0.166 N 
ATOM     16  N   LIG    1       25.601 -20.691   4.352  0.00  0.00    -0.129 NA
ATOM     17  C   LIG    1       24.615 -21.516   4.766  0.00  0.00    +0.223 A 
ATOM     18  N   LIG    1       23.370 -20.928   4.674  0.00  0.00    -0.106 NA
ATOM     19  N   LIG    1       23.554 -19.706   4.192  0.00  0.00    -0.046 NA
ENDBRANCH   8  17
ENDBRANCH   1  11
BRANCH   5  20
ATOM     20  N   LIG    1       26.038 -30.697   8.554  0.00  0.00    -0.234 N 
ATOM     21  C   LIG    1       26.962 -31.065   9.521  0.00  0.00    +0.408 C 
ATOM     22  O   LIG    1       27.789 -30.365  10.095  0.00  0.00    -0.226 OA
ATOM     23  O   LIG    1       26.854 -32.402   9.790  0.00  0.00    -0.443 OA
ATOM     24  C   LIG    1       25.667 -32.902   9.161  0.00  0.00    +0.222 C 
ATOM     25  C   LIG    1       25.339 -31.867   8.106  0.00  0.00    +0.164 C 
BRANCH  24  26
ATOM     26  C   LIG    1       24.556 -33.074  10.206  0.00  0.00    +0.218 C 
BRANCH  26  27
ATOM     27  O   LIG    1       24.650 -32.140  11.276  0.00  0.00    -0.283 OA
BRANCH  27  28
ATOM     28  P   LIG    1       24.745 -32.660  12.783  0.00  0.00    +0.472 P 
ATOM     29  O   LIG    1       26.073 -33.136  13.255  0.00  0.00    -0.228 OA
BRANCH  28  30
ATOM     30  O   LIG    1       23.622 -33.784  12.932  0.00  0.00    -0.303 OA
ATOM     31  H   LIG    1       22.993 -33.539  13.635  0.00  0.00    +0.222 HD
ENDBRANCH  28  30
BRANCH  28  32
ATOM     32  O   LIG    1       24.172 -31.474  13.679  0.00  0.00    -0.303 OA
ATOM     33  H   LIG    1       24.844 -31.170  14.317  0.00  0.00    +0.222 HD
ENDBRANCH  28  32
ENDBRANCH  27  28
ENDBRANCH  26  27
ENDBRANCH  24  26
ENDBRANCH   5  20
TORSDOF 8
ENDMDL
