MODEL 1
REMARK VINA RESULT:      44.1      0.000      0.000
REMARK  Name = *****
REMARK                            x       y       z     vdW  Elec       q    Type
REMARK                         _______ _______ _______ _____ _____    ______ ____
ROOT
ATOM      1  C   LIG    1       20.057 -19.374   6.411  0.00  0.00    +0.028 C 
ATOM      2  C   LIG    1       20.568 -20.145   5.184  0.00  0.00    +0.078 C 
ATOM      3  N   LIG    1       21.668 -19.432   4.527  0.00  0.00    -0.266 N 
ATOM      4  C   LIG    1       23.005 -19.576   5.093  0.00  0.00    +0.228 C 
ATOM      5  C   LIG    1       24.097 -19.095   4.123  0.00  0.00    +0.173 C 
ATOM      6  N   LIG    1       23.805 -17.739   3.647  0.00  0.00    -0.335 NA
ATOM      7  C   LIG    1       22.479 -17.375   3.374  0.00  0.00    +0.150 C 
ATOM      8  C   LIG    1       22.145 -16.192   2.806  0.00  0.00    +0.194 C 
ATOM      9  C   LIG    1       23.258 -15.227   2.493  0.00  0.00    +0.236 C 
ATOM     10  O   LIG    1       23.024 -14.115   2.019  0.00  0.00    -0.283 OA
ATOM     11  C   LIG    1       24.655 -15.642   2.789  0.00  0.00    +0.103 C 
ATOM     12  C   LIG    1       24.828 -16.861   3.322  0.00  0.00    +0.103 C 
ATOM     13  O   LIG    1       23.283 -20.950   5.377  0.00  0.00    -0.357 OA
ATOM     14  C   LIG    1       22.330 -21.558   6.237  0.00  0.00    +0.164 C 
ATOM     15  C   LIG    1       21.348 -18.313   3.762  0.00  0.00    +0.269 C 
ATOM     16  O   LIG    1       20.191 -18.049   3.425  0.00  0.00    -0.268 OA
ATOM     17  C   LIG    1       20.981 -21.568   5.548  0.00  0.00    +0.050 C 
ENDROOT
BRANCH  11  18
ATOM     18  C   LIG    1       25.854 -14.782   2.593  0.00  0.00    +0.250 C 
ATOM     19  N   LIG    1       25.592 -13.448   2.429  0.00  0.00    -0.307 N 
ATOM     20  H   LIG    1       24.625 -13.152   2.297  0.00  0.00    +0.149 HD
ATOM     21  O   LIG    1       26.991 -15.247   2.624  0.00  0.00    -0.270 OA
BRANCH  19  22
ATOM     22  C   LIG    1       26.628 -12.458   2.272  0.00  0.00    +0.143 C 
BRANCH  22  23
ATOM     23  C   LIG    1       27.399 -12.257   3.544  0.00  0.00    +0.005 C 
ATOM     24  C   LIG    1       26.771 -12.418   4.783  0.00  0.00    +0.131 C 
ATOM     25  F   LIG    1       25.480 -12.774   4.836  0.00  0.00    -0.205 F 
ATOM     26  C   LIG    1       27.460 -12.222   5.975  0.00  0.00    +0.077 C 
ATOM     27  C   LIG    1       28.796 -11.853   5.922  0.00  0.00    +0.126 C 
ATOM     28  F   LIG    1       29.475 -11.662   7.061  0.00  0.00    -0.205 F 
ATOM     29  C   LIG    1       29.447 -11.675   4.706  0.00  0.00    +0.039 C 
ATOM     30  C   LIG    1       28.747 -11.871   3.514  0.00  0.00    +0.011 C 
ENDBRANCH  22  23
ENDBRANCH  19  22
ENDBRANCH  11  18
BRANCH   8  31
ATOM     31  O   LIG    1       20.854 -15.779   2.509  0.00  0.00    -0.502 OA
ATOM     32  H   LIG    1       20.573 -16.216   1.675  0.00  0.00    +0.292 HD
ENDBRANCH   8  31
TORSDOF 4
ENDMDL
