MODEL 1
REMARK VINA RESULT:      -2.7      0.000      0.000
REMARK  Name = *****
REMARK                            x       y       z     vdW  Elec       q    Type
REMARK                         _______ _______ _______ _____ _____    ______ ____
ROOT
ATOM      1  C   LIG    1       23.491 -11.447   2.885  0.00  0.00    +0.143 C 
ATOM      2  N   LIG    1       24.353 -12.309   3.673  0.00  0.00    -0.228 N 
ATOM      3  C   LIG    1       25.389 -12.957   3.009  0.00  0.00    +0.242 C 
ATOM      4  O   LIG    1       25.619 -12.759   1.812  0.00  0.00    -0.274 OA
ATOM      5  C   LIG    1       26.177 -13.996   3.824  0.00  0.00    +0.142 C 
ATOM      6  C   LIG    1       27.593 -14.093   3.225  0.00  0.00    +0.035 C 
ATOM      7  C   LIG    1       26.265 -13.544   5.278  0.00  0.00    +0.239 C 
ATOM      8  O   LIG    1       27.235 -13.742   6.008  0.00  0.00    -0.274 OA
ATOM      9  N   LIG    1       25.143 -12.950   5.778  0.00  0.00    -0.239 N 
ATOM     10  H   LIG    1       25.170 -12.711   6.760  0.00  0.00    +0.159 HD
ATOM     11  C   LIG    1       24.256 -12.223   5.047  0.00  0.00    +0.315 C 
ATOM     12  O   LIG    1       23.483 -11.467   5.632  0.00  0.00    -0.252 OA
ENDROOT
BRANCH   5  13
ATOM     13  C   LIG    1       25.498 -15.394   3.799  0.00  0.00    -0.050 C 
ATOM     14  C   LIG    1       26.389 -16.575   3.429  0.00  0.00    +0.032 C 
ATOM     15  C   LIG    1       25.624 -17.845   3.046  0.00  0.00    +0.005 C 
ATOM     16  C   LIG    1       24.503 -18.120   4.036  0.00  0.00    +0.004 C 
ATOM     17  C   LIG    1       23.522 -16.953   4.075  0.00  0.00    +0.027 C 
ATOM     18  C   LIG    1       24.191 -15.605   4.068  0.00  0.00    -0.026 C 
ENDBRANCH   5  13
TORSDOF 1
ENDMDL
MODEL 2
REMARK VINA RESULT:      -1.9      1.576      3.646
REMARK  Name = *****
REMARK                            x       y       z     vdW  Elec       q    Type
REMARK                         _______ _______ _______ _____ _____    ______ ____
ROOT
ATOM      1  C   LIG    1       28.348 -13.282   5.912  0.00  0.00    +0.143 C 
ATOM      2  N   LIG    1       27.362 -13.379   4.851  0.00  0.00    -0.228 N 
ATOM      3  C   LIG    1       26.029 -13.184   5.195  0.00  0.00    +0.242 C 
ATOM      4  O   LIG    1       25.694 -12.870   6.341  0.00  0.00    -0.274 OA
ATOM      5  C   LIG    1       24.993 -13.463   4.094  0.00  0.00    +0.142 C 
ATOM      6  C   LIG    1       23.748 -12.603   4.387  0.00  0.00    +0.035 C 
ATOM      7  C   LIG    1       25.573 -13.079   2.737  0.00  0.00    +0.239 C 
ATOM      8  O   LIG    1       24.918 -12.603   1.812  0.00  0.00    -0.274 OA
ATOM      9  N   LIG    1       26.895 -13.370   2.560  0.00  0.00    -0.239 N 
ATOM     10  H   LIG    1       27.268 -13.182   1.640  0.00  0.00    +0.159 HD
ATOM     11  C   LIG    1       27.827 -13.392   3.551  0.00  0.00    +0.315 C 
ATOM     12  O   LIG    1       29.017 -13.333   3.249  0.00  0.00    -0.252 OA
ENDROOT
BRANCH   5  13
ATOM     13  C   LIG    1       24.594 -14.964   4.036  0.00  0.00    -0.050 C 
ATOM     14  C   LIG    1       23.162 -15.302   4.439  0.00  0.00    +0.032 C 
ATOM     15  C   LIG    1       22.925 -16.785   4.735  0.00  0.00    +0.005 C 
ATOM     16  C   LIG    1       23.555 -17.658   3.661  0.00  0.00    +0.004 C 
ATOM     17  C   LIG    1       25.058 -17.411   3.582  0.00  0.00    +0.027 C 
ATOM     18  C   LIG    1       25.434 -15.957   3.670  0.00  0.00    -0.026 C 
ENDBRANCH   5  13
TORSDOF 1
ENDMDL
MODEL 3
REMARK VINA RESULT:      -1.7      1.543      3.417
REMARK  Name = *****
REMARK                            x       y       z     vdW  Elec       q    Type
REMARK                         _______ _______ _______ _____ _____    ______ ____
ROOT
ATOM      1  C   LIG    1       28.391 -13.355   5.942  0.00  0.00    +0.143 C 
ATOM      2  N   LIG    1       27.425 -13.447   4.864  0.00  0.00    -0.228 N 
ATOM      3  C   LIG    1       26.082 -13.297   5.193  0.00  0.00    +0.242 C 
ATOM      4  O   LIG    1       25.721 -13.026   6.343  0.00  0.00    -0.274 OA
ATOM      5  C   LIG    1       25.069 -13.571   4.069  0.00  0.00    +0.142 C 
ATOM      6  C   LIG    1       23.797 -12.754   4.368  0.00  0.00    +0.035 C 
ATOM      7  C   LIG    1       25.659 -13.132   2.733  0.00  0.00    +0.239 C 
ATOM      8  O   LIG    1       25.004 -12.647   1.812  0.00  0.00    -0.274 OA
ATOM      9  N   LIG    1       26.990 -13.383   2.567  0.00  0.00    -0.239 N 
ATOM     10  H   LIG    1       27.371 -13.158   1.658  0.00  0.00    +0.159 HD
ATOM     11  C   LIG    1       27.907 -13.410   3.571  0.00  0.00    +0.315 C 
ATOM     12  O   LIG    1       29.100 -13.310   3.289  0.00  0.00    -0.252 OA
ENDROOT
BRANCH   5  13
ATOM     13  C   LIG    1       24.712 -15.080   3.962  0.00  0.00    -0.050 C 
ATOM     14  C   LIG    1       25.859 -16.027   3.624  0.00  0.00    +0.032 C 
ATOM     15  C   LIG    1       25.413 -17.415   3.158  0.00  0.00    +0.005 C 
ATOM     16  C   LIG    1       24.321 -17.963   4.062  0.00  0.00    +0.004 C 
ATOM     17  C   LIG    1       23.109 -17.037   4.064  0.00  0.00    +0.027 C 
ATOM     18  C   LIG    1       23.468 -15.578   4.136  0.00  0.00    -0.026 C 
ENDBRANCH   5  13
TORSDOF 1
ENDMDL
MODEL 4
REMARK VINA RESULT:      -1.4      4.695      6.823
REMARK  Name = *****
REMARK                            x       y       z     vdW  Elec       q    Type
REMARK                         _______ _______ _______ _____ _____    ______ ____
ROOT
ATOM      1  C   LIG    1       26.383 -20.576   7.062  0.00  0.00    +0.143 C 
ATOM      2  N   LIG    1       25.459 -20.379   5.960  0.00  0.00    -0.228 N 
ATOM      3  C   LIG    1       25.981 -19.891   4.766  0.00  0.00    +0.242 C 
ATOM      4  O   LIG    1       27.191 -19.697   4.618  0.00  0.00    -0.274 OA
ATOM      5  C   LIG    1       24.961 -19.527   3.675  0.00  0.00    +0.142 C 
ATOM      6  C   LIG    1       25.661 -19.664   2.309  0.00  0.00    +0.035 C 
ATOM      7  C   LIG    1       23.777 -20.486   3.743  0.00  0.00    +0.239 C 
ATOM      8  O   LIG    1       23.149 -20.883   2.763  0.00  0.00    -0.274 OA
ATOM      9  N   LIG    1       23.378 -20.839   4.999  0.00  0.00    -0.239 N 
ATOM     10  H   LIG    1       22.551 -21.417   5.053  0.00  0.00    +0.159 HD
ATOM     11  C   LIG    1       24.200 -20.930   6.080  0.00  0.00    +0.315 C 
ATOM     12  O   LIG    1       23.821 -21.566   7.062  0.00  0.00    -0.252 OA
ENDROOT
BRANCH   5  13
ATOM     13  C   LIG    1       24.417 -18.081   3.845  0.00  0.00    -0.050 C 
ATOM     14  C   LIG    1       23.011 -17.949   4.422  0.00  0.00    +0.032 C 
ATOM     15  C   LIG    1       22.376 -16.571   4.221  0.00  0.00    +0.005 C 
ATOM     16  C   LIG    1       23.361 -15.465   4.566  0.00  0.00    +0.004 C 
ATOM     17  C   LIG    1       24.605 -15.561   3.688  0.00  0.00    +0.027 C 
ATOM     18  C   LIG    1       25.104 -16.969   3.505  0.00  0.00    -0.026 C 
ENDBRANCH   5  13
TORSDOF 1
ENDMDL
MODEL 5
REMARK VINA RESULT:      -1.3      4.602      6.700
REMARK  Name = *****
REMARK                            x       y       z     vdW  Elec       q    Type
REMARK                         _______ _______ _______ _____ _____    ______ ____
ROOT
ATOM      1  C   LIG    1       26.244 -20.606   7.062  0.00  0.00    +0.143 C 
ATOM      2  N   LIG    1       25.362 -20.361   5.935  0.00  0.00    -0.228 N 
ATOM      3  C   LIG    1       25.931 -19.834   4.780  0.00  0.00    +0.242 C 
ATOM      4  O   LIG    1       27.147 -19.646   4.683  0.00  0.00    -0.274 OA
ATOM      5  C   LIG    1       24.954 -19.421   3.667  0.00  0.00    +0.142 C 
ATOM      6  C   LIG    1       25.702 -19.514   2.323  0.00  0.00    +0.035 C 
ATOM      7  C   LIG    1       23.760 -20.369   3.657  0.00  0.00    +0.239 C 
ATOM      8  O   LIG    1       23.165 -20.724   2.641  0.00  0.00    -0.274 OA
ATOM      9  N   LIG    1       23.313 -20.764   4.884  0.00  0.00    -0.239 N 
ATOM     10  H   LIG    1       22.480 -21.336   4.887  0.00  0.00    +0.159 HD
ATOM     11  C   LIG    1       24.094 -20.903   5.990  0.00  0.00    +0.315 C 
ATOM     12  O   LIG    1       23.675 -21.570   6.933  0.00  0.00    -0.252 OA
ENDROOT
BRANCH   5  13
ATOM     13  C   LIG    1       24.416 -17.977   3.871  0.00  0.00    -0.050 C 
ATOM     14  C   LIG    1       25.341 -16.841   3.444  0.00  0.00    +0.032 C 
ATOM     15  C   LIG    1       24.951 -15.469   4.000  0.00  0.00    +0.005 C 
ATOM     16  C   LIG    1       23.459 -15.227   3.845  0.00  0.00    +0.004 C 
ATOM     17  C   LIG    1       22.661 -16.297   4.584  0.00  0.00    +0.027 C 
ATOM     18  C   LIG    1       23.210 -17.686   4.405  0.00  0.00    -0.026 C 
ENDBRANCH   5  13
TORSDOF 1
ENDMDL
MODEL 6
REMARK VINA RESULT:      -1.3      4.652      6.633
REMARK  Name = *****
REMARK                            x       y       z     vdW  Elec       q    Type
REMARK                         _______ _______ _______ _____ _____    ______ ____
ROOT
ATOM      1  C   LIG    1       27.307 -20.171   4.959  0.00  0.00    +0.143 C 
ATOM      2  N   LIG    1       25.861 -20.043   4.943  0.00  0.00    -0.228 N 
ATOM      3  C   LIG    1       25.257 -19.761   3.722  0.00  0.00    +0.242 C 
ATOM      4  O   LIG    1       25.909 -19.690   2.676  0.00  0.00    -0.274 OA
ATOM      5  C   LIG    1       23.750 -19.459   3.761  0.00  0.00    +0.142 C 
ATOM      6  C   LIG    1       23.157 -19.832   2.388  0.00  0.00    +0.035 C 
ATOM      7  C   LIG    1       23.089 -20.298   4.850  0.00  0.00    +0.239 C 
ATOM      8  O   LIG    1       21.955 -20.766   4.772  0.00  0.00    -0.274 OA
ATOM      9  N   LIG    1       23.814 -20.449   5.996  0.00  0.00    -0.239 N 
ATOM     10  H   LIG    1       23.353 -20.944   6.747  0.00  0.00    +0.159 HD
ATOM     11  C   LIG    1       25.173 -20.466   6.062  0.00  0.00    +0.315 C 
ATOM     12  O   LIG    1       25.713 -20.934   7.062  0.00  0.00    -0.252 OA
ENDROOT
BRANCH   5  13
ATOM     13  C   LIG    1       23.463 -17.963   4.069  0.00  0.00    -0.050 C 
ATOM     14  C   LIG    1       24.518 -16.961   3.609  0.00  0.00    +0.032 C 
ATOM     15  C   LIG    1       24.394 -15.578   4.252  0.00  0.00    +0.005 C 
ATOM     16  C   LIG    1       22.950 -15.102   4.239  0.00  0.00    +0.004 C 
ATOM     17  C   LIG    1       22.056 -16.076   5.001  0.00  0.00    +0.027 C 
ATOM     18  C   LIG    1       22.364 -17.521   4.718  0.00  0.00    -0.026 C 
ENDBRANCH   5  13
TORSDOF 1
ENDMDL
MODEL 7
REMARK VINA RESULT:      -1.1      4.005      5.782
REMARK  Name = *****
REMARK                            x       y       z     vdW  Elec       q    Type
REMARK                         _______ _______ _______ _____ _____    ______ ____
ROOT
ATOM      1  C   LIG    1       22.286 -16.636   4.907  0.00  0.00    +0.143 C 
ATOM      2  N   LIG    1       23.369 -17.418   4.339  0.00  0.00    -0.228 N 
ATOM      3  C   LIG    1       23.118 -18.759   4.072  0.00  0.00    +0.242 C 
ATOM      4  O   LIG    1       22.001 -19.257   4.241  0.00  0.00    -0.274 OA
ATOM      5  C   LIG    1       24.327 -19.605   3.637  0.00  0.00    +0.142 C 
ATOM      6  C   LIG    1       23.802 -20.774   2.781  0.00  0.00    +0.035 C 
ATOM      7  C   LIG    1       25.278 -18.748   2.809  0.00  0.00    +0.239 C 
ATOM      8  O   LIG    1       25.940 -19.166   1.861  0.00  0.00    -0.274 OA
ATOM      9  N   LIG    1       25.428 -17.460   3.232  0.00  0.00    -0.239 N 
ATOM     10  H   LIG    1       26.109 -16.907   2.730  0.00  0.00    +0.159 HD
ATOM     11  C   LIG    1       24.468 -16.731   3.863  0.00  0.00    +0.315 C 
ATOM     12  O   LIG    1       24.578 -15.507   3.899  0.00  0.00    -0.252 OA
ENDROOT
BRANCH   5  13
ATOM     13  C   LIG    1       25.118 -20.159   4.855  0.00  0.00    -0.050 C 
ATOM     14  C   LIG    1       24.423 -21.233   5.685  0.00  0.00    +0.032 C 
ATOM     15  C   LIG    1       25.051 -21.471   7.060  0.00  0.00    +0.005 C 
ATOM     16  C   LIG    1       26.565 -21.565   6.954  0.00  0.00    +0.004 C 
ATOM     17  C   LIG    1       27.144 -20.281   6.369  0.00  0.00    +0.027 C 
ATOM     18  C   LIG    1       26.351 -19.738   5.211  0.00  0.00    -0.026 C 
ENDBRANCH   5  13
TORSDOF 1
ENDMDL
MODEL 8
REMARK VINA RESULT:      -0.4      1.398      2.625
REMARK  Name = *****
REMARK                            x       y       z     vdW  Elec       q    Type
REMARK                         _______ _______ _______ _____ _____    ______ ____
ROOT
ATOM      1  C   LIG    1       25.476 -12.002   6.361  0.00  0.00    +0.143 C 
ATOM      2  N   LIG    1       25.768 -12.875   5.240  0.00  0.00    -0.228 N 
ATOM      3  C   LIG    1       24.831 -12.934   4.213  0.00  0.00    +0.242 C 
ATOM      4  O   LIG    1       23.822 -12.223   4.213  0.00  0.00    -0.274 OA
ATOM      5  C   LIG    1       25.078 -13.992   3.125  0.00  0.00    +0.142 C 
ATOM      6  C   LIG    1       24.411 -13.499   1.826  0.00  0.00    +0.035 C 
ATOM      7  C   LIG    1       26.578 -14.155   2.902  0.00  0.00    +0.239 C 
ATOM      8  O   LIG    1       27.095 -14.393   1.812  0.00  0.00    -0.274 OA
ATOM      9  N   LIG    1       27.349 -14.099   4.027  0.00  0.00    -0.239 N 
ATOM     10  H   LIG    1       28.335 -14.276   3.895  0.00  0.00    +0.159 HD
ATOM     11  C   LIG    1       27.051 -13.374   5.139  0.00  0.00    +0.315 C 
ATOM     12  O   LIG    1       27.947 -13.125   5.943  0.00  0.00    -0.252 OA
ENDROOT
BRANCH   5  13
ATOM     13  C   LIG    1       24.499 -15.380   3.520  0.00  0.00    -0.050 C 
ATOM     14  C   LIG    1       25.411 -16.583   3.301  0.00  0.00    +0.032 C 
ATOM     15  C   LIG    1       24.691 -17.933   3.335  0.00  0.00    +0.005 C 
ATOM     16  C   LIG    1       23.737 -18.007   4.517  0.00  0.00    +0.004 C 
ATOM     17  C   LIG    1       22.692 -16.899   4.434  0.00  0.00    +0.027 C 
ATOM     18  C   LIG    1       23.259 -15.568   4.021  0.00  0.00    -0.026 C 
ENDBRANCH   5  13
TORSDOF 1
ENDMDL
