MODEL 1
REMARK VINA RESULT:      -5.1      0.000      0.000
REMARK  Name = *****
REMARK                            x       y       z     vdW  Elec       q    Type
REMARK                         _______ _______ _______ _____ _____    ______ ____
ROOT
ATOM      1  C   LIG    1       23.403 -20.296   6.871  0.00  0.00    +0.041 C 
ATOM      2  C   LIG    1       23.201 -20.636   5.387  0.00  0.00    +0.131 C 
ENDROOT
BRANCH   2   3
ATOM      3  C   LIG    1       22.955 -19.322   4.581  0.00  0.00    +0.326 C 
ATOM      4  O   LIG    1       22.278 -18.387   4.959  0.00  0.00    -0.249 OA
BRANCH   3   5
ATOM      5  O   LIG    1       23.535 -19.334   3.352  0.00  0.00    -0.479 OA
ATOM      6  H   LIG    1       23.432 -18.412   2.987  0.00  0.00    +0.295 HD
ENDBRANCH   3   5
ENDBRANCH   2   3
BRANCH   2   7
ATOM      7  N   LIG    1       22.030 -21.572   5.221  0.00  0.00    -0.243 NA
ATOM      8  H   LIG    1       21.556 -21.641   6.131  0.00  0.00    +0.141 HD
BRANCH   7   9
ATOM      9  N   LIG    1       21.111 -21.200   4.150  0.00  0.00    -0.270 NA
ATOM     10  H   LIG    1       21.482 -20.399   3.619  0.00  0.00    +0.137 HD
ATOM     11  H   LIG    1       20.987 -21.932   3.438  0.00  0.00    +0.137 HD
ENDBRANCH   7   9
ENDBRANCH   2   7
BRANCH   2  12
ATOM     12  C   LIG    1       24.503 -21.272   4.790  0.00  0.00    +0.070 C 
BRANCH  12  13
ATOM     13  C   LIG    1       25.846 -20.844   5.361  0.00  0.00    -0.041 A 
ATOM     14  C   LIG    1       26.544 -19.761   4.805  0.00  0.00    +0.052 A 
ATOM     15  C   LIG    1       27.750 -19.352   5.365  0.00  0.00    +0.159 A 
ATOM     16  C   LIG    1       28.282 -20.000   6.476  0.00  0.00    +0.158 A 
ATOM     17  C   LIG    1       27.604 -21.064   7.052  0.00  0.00    +0.049 A 
ATOM     18  C   LIG    1       26.387 -21.483   6.494  0.00  0.00    +0.007 A 
BRANCH  15  19
ATOM     19  O   LIG    1       28.414 -18.291   4.818  0.00  0.00    -0.503 OA
ATOM     20  H   LIG    1       27.736 -17.825   4.288  0.00  0.00    +0.292 HD
ENDBRANCH  15  19
BRANCH  16  21
ATOM     21  O   LIG    1       29.475 -19.545   6.969  0.00  0.00    -0.503 OA
ATOM     22  H   LIG    1       30.137 -20.250   6.860  0.00  0.00    +0.292 HD
ENDBRANCH  16  21
ENDBRANCH  12  13
ENDBRANCH   2  12
TORSDOF 8
ENDMDL
MODEL 2
REMARK VINA RESULT:      -3.8      4.298      5.927
REMARK  Name = *****
REMARK                            x       y       z     vdW  Elec       q    Type
REMARK                         _______ _______ _______ _____ _____    ______ ____
ROOT
ATOM      1  C   LIG    1       24.382 -15.336   4.144  0.00  0.00    +0.041 C 
ATOM      2  C   LIG    1       25.744 -15.400   3.438  0.00  0.00    +0.131 C 
ENDROOT
BRANCH   2   3
ATOM      3  C   LIG    1       26.837 -14.763   4.353  0.00  0.00    +0.326 C 
ATOM      4  O   LIG    1       26.665 -13.807   5.083  0.00  0.00    -0.249 OA
BRANCH   3   5
ATOM      5  O   LIG    1       28.055 -15.351   4.219  0.00  0.00    -0.479 OA
ATOM      6  H   LIG    1       27.991 -16.229   4.686  0.00  0.00    +0.295 HD
ENDBRANCH   3   5
ENDBRANCH   2   3
BRANCH   2   7
ATOM      7  N   LIG    1       25.683 -14.671   2.120  0.00  0.00    -0.243 NA
ATOM      8  H   LIG    1       24.830 -14.097   2.121  0.00  0.00    +0.141 HD
BRANCH   7   9
ATOM      9  N   LIG    1       26.874 -13.884   1.812  0.00  0.00    -0.270 NA
ATOM     10  H   LIG    1       27.074 -13.222   2.576  0.00  0.00    +0.137 HD
ATOM     11  H   LIG    1       27.733 -14.444   1.740  0.00  0.00    +0.137 HD
ENDBRANCH   7   9
ENDBRANCH   2   7
BRANCH   2  12
ATOM     12  C   LIG    1       26.178 -16.892   3.222  0.00  0.00    +0.070 C 
BRANCH  12  13
ATOM     13  C   LIG    1       25.204 -17.993   3.612  0.00  0.00    -0.041 A 
ATOM     14  C   LIG    1       25.674 -19.268   3.962  0.00  0.00    +0.052 A 
ATOM     15  C   LIG    1       24.776 -20.253   4.360  0.00  0.00    +0.159 A 
ATOM     16  C   LIG    1       23.410 -19.997   4.418  0.00  0.00    +0.158 A 
ATOM     17  C   LIG    1       22.922 -18.741   4.089  0.00  0.00    +0.049 A 
ATOM     18  C   LIG    1       23.821 -17.742   3.689  0.00  0.00    +0.007 A 
BRANCH  15  19
ATOM     19  O   LIG    1       25.250 -21.487   4.706  0.00  0.00    -0.503 OA
ATOM     20  H   LIG    1       24.992 -22.066   3.961  0.00  0.00    +0.292 HD
ENDBRANCH  15  19
BRANCH  16  21
ATOM     21  O   LIG    1       22.586 -21.016   4.812  0.00  0.00    -0.503 OA
ATOM     22  H   LIG    1       23.063 -21.558   5.465  0.00  0.00    +0.292 HD
ENDBRANCH  16  21
ENDBRANCH  12  13
ENDBRANCH   2  12
TORSDOF 8
ENDMDL
MODEL 3
REMARK VINA RESULT:      -3.7      4.622      5.644
REMARK  Name = *****
REMARK                            x       y       z     vdW  Elec       q    Type
REMARK                         _______ _______ _______ _____ _____    ______ ____
ROOT
ATOM      1  C   LIG    1       26.681 -14.043   5.108  0.00  0.00    +0.041 C 
ATOM      2  C   LIG    1       26.168 -14.614   3.778  0.00  0.00    +0.131 C 
ENDROOT
BRANCH   2   3
ATOM      3  C   LIG    1       26.273 -13.522   2.667  0.00  0.00    +0.326 C 
ATOM      4  O   LIG    1       25.436 -13.313   1.812  0.00  0.00    -0.249 OA
BRANCH   3   5
ATOM      5  O   LIG    1       27.446 -12.836   2.701  0.00  0.00    -0.479 OA
ATOM      6  H   LIG    1       27.712 -12.694   1.751  0.00  0.00    +0.295 HD
ENDBRANCH   3   5
ENDBRANCH   2   3
BRANCH   2   7
ATOM      7  N   LIG    1       24.738 -15.069   3.922  0.00  0.00    -0.243 NA
ATOM      8  H   LIG    1       24.727 -15.852   4.590  0.00  0.00    +0.141 HD
BRANCH   7   9
ATOM      9  N   LIG    1       23.805 -14.012   4.298  0.00  0.00    -0.270 NA
ATOM     10  H   LIG    1       23.306 -13.660   3.468  0.00  0.00    +0.137 HD
ATOM     11  H   LIG    1       23.052 -14.327   4.923  0.00  0.00    +0.137 HD
ENDBRANCH   7   9
ENDBRANCH   2   7
BRANCH   2  12
ATOM     12  C   LIG    1       27.078 -15.799   3.305  0.00  0.00    +0.070 C 
BRANCH  12  13
ATOM     13  C   LIG    1       26.653 -17.219   3.643  0.00  0.00    -0.041 A 
ATOM     14  C   LIG    1       27.510 -18.069   4.359  0.00  0.00    +0.052 A 
ATOM     15  C   LIG    1       27.091 -19.350   4.701  0.00  0.00    +0.159 A 
ATOM     16  C   LIG    1       25.827 -19.810   4.345  0.00  0.00    +0.158 A 
ATOM     17  C   LIG    1       24.956 -18.985   3.649  0.00  0.00    +0.049 A 
ATOM     18  C   LIG    1       25.370 -17.691   3.301  0.00  0.00    +0.007 A 
BRANCH  15  19
ATOM     19  O   LIG    1       27.934 -20.163   5.405  0.00  0.00    -0.503 OA
ATOM     20  H   LIG    1       28.824 -19.951   5.058  0.00  0.00    +0.292 HD
ENDBRANCH  15  19
BRANCH  16  21
ATOM     21  O   LIG    1       25.486 -21.084   4.711  0.00  0.00    -0.503 OA
ATOM     22  H   LIG    1       26.304 -21.587   4.864  0.00  0.00    +0.292 HD
ENDBRANCH  16  21
ENDBRANCH  12  13
ENDBRANCH   2  12
TORSDOF 8
ENDMDL
MODEL 4
REMARK VINA RESULT:      -3.6      4.924      6.432
REMARK  Name = *****
REMARK                            x       y       z     vdW  Elec       q    Type
REMARK                         _______ _______ _______ _____ _____    ______ ____
ROOT
ATOM      1  C   LIG    1       24.292 -13.061   2.595  0.00  0.00    +0.041 C 
ATOM      2  C   LIG    1       24.827 -14.079   3.612  0.00  0.00    +0.131 C 
ENDROOT
BRANCH   2   3
ATOM      3  C   LIG    1       25.558 -13.327   4.768  0.00  0.00    +0.326 C 
ATOM      4  O   LIG    1       26.643 -13.630   5.222  0.00  0.00    -0.249 OA
BRANCH   3   5
ATOM      5  O   LIG    1       24.829 -12.301   5.281  0.00  0.00    -0.479 OA
ATOM      6  H   LIG    1       24.146 -12.074   4.592  0.00  0.00    +0.295 HD
ENDBRANCH   3   5
ENDBRANCH   2   3
BRANCH   2   7
ATOM      7  N   LIG    1       25.775 -15.040   2.940  0.00  0.00    -0.243 NA
ATOM      8  H   LIG    1       25.208 -15.730   2.429  0.00  0.00    +0.141 HD
BRANCH   7   9
ATOM      9  N   LIG    1       26.769 -14.403   2.081  0.00  0.00    -0.270 NA
ATOM     10  H   LIG    1       27.097 -13.522   2.504  0.00  0.00    +0.137 HD
ATOM     11  H   LIG    1       27.629 -14.954   1.963  0.00  0.00    +0.137 HD
ENDBRANCH   7   9
ENDBRANCH   2   7
BRANCH   2  12
ATOM     12  C   LIG    1       23.642 -14.855   4.284  0.00  0.00    +0.070 C 
BRANCH  12  13
ATOM     13  C   LIG    1       23.596 -16.369   4.146  0.00  0.00    -0.041 A 
ATOM     14  C   LIG    1       24.730 -17.080   3.724  0.00  0.00    +0.052 A 
ATOM     15  C   LIG    1       24.688 -18.469   3.645  0.00  0.00    +0.159 A 
ATOM     16  C   LIG    1       23.536 -19.172   3.980  0.00  0.00    +0.158 A 
ATOM     17  C   LIG    1       22.407 -18.493   4.413  0.00  0.00    +0.049 A 
ATOM     18  C   LIG    1       22.440 -17.093   4.497  0.00  0.00    +0.007 A 
BRANCH  15  19
ATOM     19  O   LIG    1       25.803 -19.147   3.241  0.00  0.00    -0.503 OA
ATOM     20  H   LIG    1       25.696 -20.043   3.621  0.00  0.00    +0.292 HD
ENDBRANCH  15  19
BRANCH  16  21
ATOM     21  O   LIG    1       23.567 -20.536   3.873  0.00  0.00    -0.503 OA
ATOM     22  H   LIG    1       23.376 -20.773   2.949  0.00  0.00    +0.292 HD
ENDBRANCH  16  21
ENDBRANCH  12  13
ENDBRANCH   2  12
TORSDOF 8
ENDMDL
MODEL 5
REMARK VINA RESULT:      -3.6      4.252      5.997
REMARK  Name = *****
REMARK                            x       y       z     vdW  Elec       q    Type
REMARK                         _______ _______ _______ _____ _____    ______ ____
ROOT
ATOM      1  C   LIG    1       24.401 -15.333   4.120  0.00  0.00    +0.041 C 
ATOM      2  C   LIG    1       25.772 -15.381   3.429  0.00  0.00    +0.131 C 
ENDROOT
BRANCH   2   3
ATOM      3  C   LIG    1       26.854 -14.774   4.376  0.00  0.00    +0.326 C 
ATOM      4  O   LIG    1       26.676 -13.839   5.131  0.00  0.00    -0.249 OA
BRANCH   3   5
ATOM      5  O   LIG    1       28.072 -15.363   4.241  0.00  0.00    -0.479 OA
ATOM      6  H   LIG    1       28.277 -15.780   5.123  0.00  0.00    +0.295 HD
ENDBRANCH   3   5
ENDBRANCH   2   3
BRANCH   2   7
ATOM      7  N   LIG    1       25.729 -14.613   2.132  0.00  0.00    -0.243 NA
ATOM      8  H   LIG    1       24.887 -14.023   2.147  0.00  0.00    +0.141 HD
BRANCH   7   9
ATOM      9  N   LIG    1       26.936 -13.840   1.852  0.00  0.00    -0.270 NA
ATOM     10  H   LIG    1       27.547 -14.352   1.199  0.00  0.00    +0.137 HD
ATOM     11  H   LIG    1       26.754 -12.949   1.372  0.00  0.00    +0.137 HD
ENDBRANCH   7   9
ENDBRANCH   2   7
BRANCH   2  12
ATOM     12  C   LIG    1       26.204 -16.867   3.175  0.00  0.00    +0.070 C 
BRANCH  12  13
ATOM     13  C   LIG    1       25.274 -17.980   3.630  0.00  0.00    -0.041 A 
ATOM     14  C   LIG    1       23.888 -17.769   3.691  0.00  0.00    +0.052 A 
ATOM     15  C   LIG    1       23.044 -18.810   4.066  0.00  0.00    +0.159 A 
ATOM     16  C   LIG    1       23.550 -20.066   4.382  0.00  0.00    +0.158 A 
ATOM     17  C   LIG    1       24.915 -20.303   4.316  0.00  0.00    +0.049 A 
ATOM     18  C   LIG    1       25.773 -19.260   3.939  0.00  0.00    +0.007 A 
BRANCH  15  19
ATOM     19  O   LIG    1       21.695 -18.591   4.112  0.00  0.00    -0.503 OA
ATOM     20  H   LIG    1       21.332 -19.151   3.397  0.00  0.00    +0.292 HD
ENDBRANCH  15  19
BRANCH  16  21
ATOM     21  O   LIG    1       22.660 -21.039   4.748  0.00  0.00    -0.503 OA
ATOM     22  H   LIG    1       22.595 -21.681   4.020  0.00  0.00    +0.292 HD
ENDBRANCH  16  21
ENDBRANCH  12  13
ENDBRANCH   2  12
TORSDOF 8
ENDMDL
MODEL 6
REMARK VINA RESULT:      -3.5      5.621      7.010
REMARK  Name = *****
REMARK                            x       y       z     vdW  Elec       q    Type
REMARK                         _______ _______ _______ _____ _____    ______ ____
ROOT
ATOM      1  C   LIG    1       25.461 -13.446   2.239  0.00  0.00    +0.041 C 
ATOM      2  C   LIG    1       26.562 -13.639   3.292  0.00  0.00    +0.131 C 
ENDROOT
BRANCH   2   3
ATOM      3  C   LIG    1       26.013 -13.240   4.698  0.00  0.00    +0.326 C 
ATOM      4  O   LIG    1       24.945 -12.698   4.903  0.00  0.00    -0.249 OA
BRANCH   3   5
ATOM      5  O   LIG    1       26.884 -13.508   5.707  0.00  0.00    -0.479 OA
ATOM      6  H   LIG    1       26.331 -13.607   6.531  0.00  0.00    +0.295 HD
ENDBRANCH   3   5
ENDBRANCH   2   3
BRANCH   2   7
ATOM      7  N   LIG    1       27.766 -12.799   2.950  0.00  0.00    -0.243 NA
ATOM      8  H   LIG    1       27.595 -11.850   3.307  0.00  0.00    +0.141 HD
BRANCH   7   9
ATOM      9  N   LIG    1       29.034 -13.345   3.424  0.00  0.00    -0.270 NA
ATOM     10  H   LIG    1       28.945 -14.355   3.606  0.00  0.00    +0.137 HD
ATOM     11  H   LIG    1       29.794 -13.284   2.734  0.00  0.00    +0.137 HD
ENDBRANCH   7   9
ENDBRANCH   2   7
BRANCH   2  12
ATOM     12  C   LIG    1       26.958 -15.153   3.398  0.00  0.00    +0.070 C 
BRANCH  12  13
ATOM     13  C   LIG    1       25.849 -16.185   3.525  0.00  0.00    -0.041 A 
ATOM     14  C   LIG    1       26.117 -17.547   3.321  0.00  0.00    +0.052 A 
ATOM     15  C   LIG    1       25.103 -18.486   3.484  0.00  0.00    +0.159 A 
ATOM     16  C   LIG    1       23.818 -18.098   3.850  0.00  0.00    +0.158 A 
ATOM     17  C   LIG    1       23.532 -16.759   4.071  0.00  0.00    +0.049 A 
ATOM     18  C   LIG    1       24.548 -15.806   3.909  0.00  0.00    +0.007 A 
BRANCH  15  19
ATOM     19  O   LIG    1       25.382 -19.809   3.290  0.00  0.00    -0.503 OA
ATOM     20  H   LIG    1       25.862 -20.079   4.098  0.00  0.00    +0.292 HD
ENDBRANCH  15  19
BRANCH  16  21
ATOM     21  O   LIG    1       22.871 -19.076   3.987  0.00  0.00    -0.503 OA
ATOM     22  H   LIG    1       22.320 -19.080   3.184  0.00  0.00    +0.292 HD
ENDBRANCH  16  21
ENDBRANCH  12  13
ENDBRANCH   2  12
TORSDOF 8
ENDMDL
MODEL 7
REMARK VINA RESULT:      -3.5      4.622      5.701
REMARK  Name = *****
REMARK                            x       y       z     vdW  Elec       q    Type
REMARK                         _______ _______ _______ _____ _____    ______ ____
ROOT
ATOM      1  C   LIG    1       26.847 -14.057   5.068  0.00  0.00    +0.041 C 
ATOM      2  C   LIG    1       26.204 -14.592   3.780  0.00  0.00    +0.131 C 
ENDROOT
BRANCH   2   3
ATOM      3  C   LIG    1       26.258 -13.491   2.674  0.00  0.00    +0.326 C 
ATOM      4  O   LIG    1       25.417 -13.324   1.814  0.00  0.00    -0.249 OA
BRANCH   3   5
ATOM      5  O   LIG    1       27.392 -12.743   2.721  0.00  0.00    -0.479 OA
ATOM      6  H   LIG    1       27.121 -11.851   3.074  0.00  0.00    +0.295 HD
ENDBRANCH   3   5
ENDBRANCH   2   3
BRANCH   2   7
ATOM      7  N   LIG    1       24.775 -14.997   4.039  0.00  0.00    -0.243 NA
ATOM      8  H   LIG    1       24.770 -15.610   4.864  0.00  0.00    +0.141 HD
BRANCH   7   9
ATOM      9  N   LIG    1       23.850 -13.877   4.181  0.00  0.00    -0.270 NA
ATOM     10  H   LIG    1       23.325 -13.955   5.064  0.00  0.00    +0.137 HD
ATOM     11  H   LIG    1       24.314 -12.962   4.250  0.00  0.00    +0.137 HD
ENDBRANCH   7   9
ENDBRANCH   2   7
BRANCH   2  12
ATOM     12  C   LIG    1       27.028 -15.805   3.222  0.00  0.00    +0.070 C 
BRANCH  12  13
ATOM     13  C   LIG    1       26.669 -17.204   3.697  0.00  0.00    -0.041 A 
ATOM     14  C   LIG    1       25.457 -17.798   3.312  0.00  0.00    +0.052 A 
ATOM     15  C   LIG    1       25.162 -19.096   3.717  0.00  0.00    +0.159 A 
ATOM     16  C   LIG    1       26.051 -19.823   4.502  0.00  0.00    +0.158 A 
ATOM     17  C   LIG    1       27.260 -19.262   4.884  0.00  0.00    +0.049 A 
ATOM     18  C   LIG    1       27.567 -17.955   4.480  0.00  0.00    +0.007 A 
BRANCH  15  19
ATOM     19  O   LIG    1       23.981 -19.664   3.326  0.00  0.00    -0.503 OA
ATOM     20  H   LIG    1       24.213 -20.190   2.534  0.00  0.00    +0.292 HD
ENDBRANCH  15  19
BRANCH  16  21
ATOM     21  O   LIG    1       25.689 -21.091   4.867  0.00  0.00    -0.503 OA
ATOM     22  H   LIG    1       24.911 -21.349   4.343  0.00  0.00    +0.292 HD
ENDBRANCH  16  21
ENDBRANCH  12  13
ENDBRANCH   2  12
TORSDOF 8
ENDMDL
MODEL 8
REMARK VINA RESULT:      -3.5      3.519      4.649
REMARK  Name = *****
REMARK                            x       y       z     vdW  Elec       q    Type
REMARK                         _______ _______ _______ _____ _____    ______ ____
ROOT
ATOM      1  C   LIG    1       24.122 -20.778   3.085  0.00  0.00    +0.041 C 
ATOM      2  C   LIG    1       24.615 -19.581   3.910  0.00  0.00    +0.131 C 
ENDROOT
BRANCH   2   3
ATOM      3  C   LIG    1       25.563 -20.085   5.044  0.00  0.00    +0.326 C 
ATOM      4  O   LIG    1       25.209 -20.398   6.162  0.00  0.00    -0.249 OA
BRANCH   3   5
ATOM      5  O   LIG    1       26.873 -20.090   4.680  0.00  0.00    -0.479 OA
ATOM      6  H   LIG    1       27.008 -20.918   4.142  0.00  0.00    +0.295 HD
ENDBRANCH   3   5
ENDBRANCH   2   3
BRANCH   2   7
ATOM      7  N   LIG    1       23.444 -18.840   4.506  0.00  0.00    -0.243 NA
ATOM      8  H   LIG    1       22.984 -18.322   3.746  0.00  0.00    +0.141 HD
BRANCH   7   9
ATOM      9  N   LIG    1       22.508 -19.687   5.239  0.00  0.00    -0.270 NA
ATOM     10  H   LIG    1       21.677 -19.888   4.662  0.00  0.00    +0.137 HD
ATOM     11  H   LIG    1       22.881 -20.618   5.466  0.00  0.00    +0.137 HD
ENDBRANCH   7   9
ENDBRANCH   2   7
BRANCH   2  12
ATOM     12  C   LIG    1       25.478 -18.621   3.020  0.00  0.00    +0.070 C 
BRANCH  12  13
ATOM     13  C   LIG    1       25.570 -17.155   3.414  0.00  0.00    -0.041 A 
ATOM     14  C   LIG    1       26.814 -16.508   3.466  0.00  0.00    +0.052 A 
ATOM     15  C   LIG    1       26.880 -15.156   3.785  0.00  0.00    +0.159 A 
ATOM     16  C   LIG    1       25.728 -14.425   4.054  0.00  0.00    +0.158 A 
ATOM     17  C   LIG    1       24.485 -15.038   3.996  0.00  0.00    +0.049 A 
ATOM     18  C   LIG    1       24.409 -16.401   3.675  0.00  0.00    +0.007 A 
BRANCH  15  19
ATOM     19  O   LIG    1       28.099 -14.538   3.823  0.00  0.00    -0.503 OA
ATOM     20  H   LIG    1       28.675 -15.100   3.267  0.00  0.00    +0.292 HD
ENDBRANCH  15  19
BRANCH  16  21
ATOM     21  O   LIG    1       25.871 -13.100   4.366  0.00  0.00    -0.503 OA
ATOM     22  H   LIG    1       26.268 -12.648   3.601  0.00  0.00    +0.292 HD
ENDBRANCH  16  21
ENDBRANCH  12  13
ENDBRANCH   2  12
TORSDOF 8
ENDMDL
MODEL 9
REMARK VINA RESULT:      -3.5      4.602      6.185
REMARK  Name = *****
REMARK                            x       y       z     vdW  Elec       q    Type
REMARK                         _______ _______ _______ _____ _____    ______ ____
ROOT
ATOM      1  C   LIG    1       26.628 -14.288   4.767  0.00  0.00    +0.041 C 
ATOM      2  C   LIG    1       25.676 -14.737   3.649  0.00  0.00    +0.131 C 
ENDROOT
BRANCH   2   3
ATOM      3  C   LIG    1       25.963 -13.910   2.356  0.00  0.00    +0.326 C 
ATOM      4  O   LIG    1       25.171 -13.167   1.812  0.00  0.00    -0.249 OA
BRANCH   3   5
ATOM      5  O   LIG    1       27.199 -14.141   1.839  0.00  0.00    -0.479 OA
ATOM      6  H   LIG    1       27.549 -13.254   1.550  0.00  0.00    +0.295 HD
ENDBRANCH   3   5
ENDBRANCH   2   3
BRANCH   2   7
ATOM      7  N   LIG    1       24.242 -14.548   4.076  0.00  0.00    -0.243 NA
ATOM      8  H   LIG    1       24.066 -15.185   4.864  0.00  0.00    +0.141 HD
BRANCH   7   9
ATOM      9  N   LIG    1       23.887 -13.168   4.395  0.00  0.00    -0.270 NA
ATOM     10  H   LIG    1       24.737 -12.595   4.508  0.00  0.00    +0.137 HD
ATOM     11  H   LIG    1       23.366 -12.691   3.649  0.00  0.00    +0.137 HD
ENDBRANCH   7   9
ENDBRANCH   2   7
BRANCH   2  12
ATOM     12  C   LIG    1       25.944 -16.235   3.271  0.00  0.00    +0.070 C 
BRANCH  12  13
ATOM     13  C   LIG    1       24.891 -17.272   3.629  0.00  0.00    -0.041 A 
ATOM     14  C   LIG    1       25.206 -18.640   3.621  0.00  0.00    +0.052 A 
ATOM     15  C   LIG    1       24.246 -19.575   3.994  0.00  0.00    +0.159 A 
ATOM     16  C   LIG    1       22.969 -19.179   4.377  0.00  0.00    +0.158 A 
ATOM     17  C   LIG    1       22.637 -17.833   4.406  0.00  0.00    +0.049 A 
ATOM     18  C   LIG    1       23.599 -16.883   4.033  0.00  0.00    +0.007 A 
BRANCH  15  19
ATOM     19  O   LIG    1       24.571 -20.903   3.989  0.00  0.00    -0.503 OA
ATOM     20  H   LIG    1       23.881 -21.325   4.538  0.00  0.00    +0.292 HD
ENDBRANCH  15  19
BRANCH  16  21
ATOM     21  O   LIG    1       22.076 -20.155   4.725  0.00  0.00    -0.503 OA
ATOM     22  H   LIG    1       22.250 -20.938   4.174  0.00  0.00    +0.292 HD
ENDBRANCH  16  21
ENDBRANCH  12  13
ENDBRANCH   2  12
TORSDOF 8
ENDMDL
