MODEL 1
REMARK VINA RESULT:      -1.3      0.000      0.000
REMARK  Name = *****
REMARK                            x       y       z     vdW  Elec       q    Type
REMARK                         _______ _______ _______ _____ _____    ______ ____
ROOT
ATOM      1  C   LIG    1       22.151 -32.209  13.650  0.00  0.00    +0.168 C 
ATOM      2  C   LIG    1       23.516 -32.321  14.384  0.00  0.00    +0.237 C 
ATOM      3  O   LIG    1       24.012 -33.441  14.569  0.00  0.00    -0.274 OA
ATOM      4  N   LIG    1       24.281 -31.198  14.630  0.00  0.00    -0.285 N 
ATOM      5  C   LIG    1       25.653 -31.417  15.090  0.00  0.00    +0.153 C 
ATOM      6  C   LIG    1       26.298 -30.043  15.060  0.00  0.00    +0.195 C 
ATOM      7  C   LIG    1       25.124 -29.144  15.500  0.00  0.00    +0.078 C 
ATOM      8  O   LIG    1       26.644 -29.720  13.713  0.00  0.00    -0.470 OA
ATOM      9  C   LIG    1       27.972 -29.681  13.352  0.00  0.00    +0.244 A 
ATOM     10  C   LIG    1       28.282 -29.212  12.079  0.00  0.00    +0.175 A 
ATOM     11  N   LIG    1       29.582 -29.030  11.690  0.00  0.00    -0.239 NA
ATOM     12  C   LIG    1       30.540 -29.393  12.551  0.00  0.00    +0.090 A 
ATOM     13  C   LIG    1       30.223 -29.963  13.808  0.00  0.00    +0.093 A 
ATOM     14  C   LIG    1       31.283 -30.405  14.600  0.00  0.00    +0.030 A 
ATOM     15  C   LIG    1       32.617 -30.262  14.197  0.00  0.00    +0.002 A 
ATOM     16  C   LIG    1       32.910 -29.651  12.986  0.00  0.00    +0.002 A 
ATOM     17  C   LIG    1       31.866 -29.223  12.172  0.00  0.00    +0.030 A 
ATOM     18  C   LIG    1       27.208 -29.023  11.021  0.00  0.00    +0.314 C 
ATOM     19  F   LIG    1       27.435 -27.894  10.280  0.00  0.00    -0.194 F 
ATOM     20  F   LIG    1       25.950 -28.837  11.512  0.00  0.00    -0.194 F 
ATOM     21  C   LIG    1       27.224 -30.182  10.052  0.00  0.00    +0.052 C 
ATOM     22  C   LIG    1       26.468 -31.292  10.111  0.00  0.00    +0.003 C 
ATOM     23  C   LIG    1       26.583 -32.407   9.117  0.00  0.00    +0.187 C 
ATOM     24  O   LIG    1       25.446 -33.248   9.149  0.00  0.00    -0.369 OA
ATOM     25  C   LIG    1       24.357 -33.107   8.234  0.00  0.00    +0.159 C 
ATOM     26  C   LIG    1       23.112 -32.488   8.913  0.00  0.00    +0.207 C 
ATOM     27  C   LIG    1       23.342 -30.989   8.742  0.00  0.00    +0.047 C 
ATOM     28  C   LIG    1       24.148 -30.822   7.454  0.00  0.00    +0.006 C 
ATOM     29  O   LIG    1       23.026 -32.957  10.265  0.00  0.00    -0.445 OA
ATOM     30  C   LIG    1       22.234 -32.302  11.147  0.00  0.00    +0.401 C 
ATOM     31  O   LIG    1       21.474 -31.394  10.908  0.00  0.00    -0.227 OA
ATOM     32  C   LIG    1       24.532 -32.228   6.999  0.00  0.00    +0.035 C 
ATOM     33  N   LIG    1       28.931 -30.081  14.222  0.00  0.00    -0.210 NA
ATOM     34  C   LIG    1       23.837 -29.841  14.983  0.00  0.00    +0.166 C 
ATOM     35  N   LIG    1       22.471 -32.842  12.369  0.00  0.00    -0.269 N 
ATOM     36  H   LIG    1       23.166 -33.580  12.376  0.00  0.00    +0.153 HD
ENDROOT
BRANCH   1  38
ATOM     37  C   LIG    1       21.488 -33.825  15.499  0.00  0.00    +0.013 C 
ATOM     38  C   LIG    1       20.962 -32.940  14.354  0.00  0.00    -0.011 C 
ATOM     39  C   LIG    1       20.000 -31.894  14.966  0.00  0.00    +0.013 C 
ATOM     40  C   LIG    1       20.134 -33.825  13.398  0.00  0.00    +0.013 C 
ENDBRANCH   1  38
BRANCH  34  41
ATOM     41  C   LIG    1       23.177 -28.952  13.901  0.00  0.00    +0.234 C 
ATOM     42  N   LIG    1       21.787 -28.990  13.900  0.00  0.00    -0.299 N 
ATOM     43  H   LIG    1       21.279 -29.580  14.551  0.00  0.00    +0.150 HD
ATOM     44  O   LIG    1       23.802 -28.239  13.124  0.00  0.00    -0.274 OA
BRANCH  42  45
ATOM     45  C   LIG    1       20.992 -28.219  12.944  0.00  0.00    +0.121 C 
ATOM     46  C   LIG    1       20.434 -26.866  13.374  0.00  0.00    +0.090 C 
ATOM     47  C   LIG    1       21.618 -26.907  12.454  0.00  0.00    +0.047 C 
BRANCH  45  48
ATOM     48  C   LIG    1       20.246 -29.044  11.912  0.00  0.00    +0.256 C 
ATOM     49  N   LIG    1       19.372 -30.011  12.425  0.00  0.00    -0.188 N 
ATOM     50  H   LIG    1       19.201 -30.061  13.429  0.00  0.00    +0.176 HD
ATOM     51  O   LIG    1       20.448 -28.835  10.724  0.00  0.00    -0.272 OA
BRANCH  49  52
ATOM     52  S   LIG    1       18.377 -30.924  11.443  0.00  0.00    +0.051 S 
ATOM     53  O   LIG    1       19.071 -32.136  11.072  0.00  0.00    -0.155 OA
ATOM     54  O   LIG    1       17.849 -30.017  10.446  0.00  0.00    -0.155 OA
BRANCH  52  55
ATOM     55  C   LIG    1       16.972 -31.490  12.450  0.00  0.00    +0.104 C 
ATOM     56  C   LIG    1       16.677 -30.733  13.718  0.00  0.00    +0.033 C 
ATOM     57  C   LIG    1       15.824 -30.510  12.495  0.00  0.00    +0.033 C 
ATOM     58  C   LIG    1       16.685 -32.935  12.284  0.00  0.00    +0.037 C 
ENDBRANCH  52  55
ENDBRANCH  49  52
ENDBRANCH  45  48
BRANCH  46  59
ATOM     59  C   LIG    1       19.154 -26.295  12.877  0.00  0.00    +0.347 C 
ATOM     60  F   LIG    1       18.510 -25.699  13.909  0.00  0.00    -0.209 F 
ATOM     61  F   LIG    1       19.440 -25.325  11.973  0.00  0.00    -0.209 F 
ENDBRANCH  46  59
ENDBRANCH  42  45
ENDBRANCH  34  41
TORSDOF 7
ENDMDL
MODEL 2
REMARK VINA RESULT:      -1.1      3.128      7.113
REMARK  Name = *****
REMARK                            x       y       z     vdW  Elec       q    Type
REMARK                         _______ _______ _______ _____ _____    ______ ____
ROOT
ATOM      1  C   LIG    1       28.559 -29.167  13.672  0.00  0.00    +0.168 C 
ATOM      2  C   LIG    1       28.783 -29.586  12.192  0.00  0.00    +0.237 C 
ATOM      3  O   LIG    1       29.538 -30.535  11.941  0.00  0.00    -0.274 OA
ATOM      4  N   LIG    1       27.992 -29.071  11.183  0.00  0.00    -0.285 N 
ATOM      5  C   LIG    1       28.099 -29.704   9.868  0.00  0.00    +0.153 C 
ATOM      6  C   LIG    1       26.980 -29.087   9.048  0.00  0.00    +0.195 C 
ATOM      7  C   LIG    1       26.981 -27.635   9.570  0.00  0.00    +0.078 C 
ATOM      8  O   LIG    1       25.743 -29.703   9.408  0.00  0.00    -0.470 OA
ATOM      9  C   LIG    1       25.121 -30.538   8.507  0.00  0.00    +0.244 A 
ATOM     10  C   LIG    1       23.847 -30.996   8.825  0.00  0.00    +0.175 A 
ATOM     11  N   LIG    1       23.115 -31.729   7.929  0.00  0.00    -0.239 NA
ATOM     12  C   LIG    1       23.703 -32.052   6.771  0.00  0.00    +0.090 A 
ATOM     13  C   LIG    1       25.037 -31.668   6.490  0.00  0.00    +0.093 A 
ATOM     14  C   LIG    1       25.604 -32.133   5.303  0.00  0.00    +0.030 A 
ATOM     15  C   LIG    1       24.881 -32.918   4.396  0.00  0.00    +0.002 A 
ATOM     16  C   LIG    1       23.558 -33.239   4.663  0.00  0.00    +0.002 A 
ATOM     17  C   LIG    1       22.980 -32.802   5.852  0.00  0.00    +0.030 A 
ATOM     18  C   LIG    1       23.271 -30.833  10.222  0.00  0.00    +0.314 C 
ATOM     19  F   LIG    1       21.937 -30.524  10.176  0.00  0.00    -0.194 F 
ATOM     20  F   LIG    1       23.813 -29.813  10.946  0.00  0.00    -0.194 F 
ATOM     21  C   LIG    1       23.383 -32.132  10.985  0.00  0.00    +0.052 C 
ATOM     22  C   LIG    1       24.373 -32.492  11.820  0.00  0.00    +0.003 C 
ATOM     23  C   LIG    1       24.413 -33.823  12.506  0.00  0.00    +0.187 C 
ATOM     24  O   LIG    1       25.302 -33.813  13.607  0.00  0.00    -0.369 OA
ATOM     25  C   LIG    1       24.861 -33.605  14.951  0.00  0.00    +0.159 C 
ATOM     26  C   LIG    1       25.235 -32.195  15.467  0.00  0.00    +0.207 C 
ATOM     27  C   LIG    1       24.043 -31.347  15.032  0.00  0.00    +0.047 C 
ATOM     28  C   LIG    1       22.833 -32.280  15.021  0.00  0.00    +0.006 C 
ATOM     29  O   LIG    1       26.506 -31.812  14.924  0.00  0.00    -0.445 OA
ATOM     30  C   LIG    1       26.876 -30.510  14.955  0.00  0.00    +0.401 C 
ATOM     31  O   LIG    1       26.297 -29.601  15.498  0.00  0.00    -0.227 OA
ATOM     32  C   LIG    1       23.370 -33.688  15.267  0.00  0.00    +0.035 C 
ATOM     33  N   LIG    1       25.740 -30.882   7.352  0.00  0.00    -0.210 NA
ATOM     34  C   LIG    1       27.434 -27.717  11.053  0.00  0.00    +0.166 C 
ATOM     35  N   LIG    1       28.021 -30.408  14.233  0.00  0.00    -0.269 N 
ATOM     36  H   LIG    1       28.344 -31.280  13.828  0.00  0.00    +0.153 HD
ENDROOT
BRANCH   1  38
ATOM     37  C   LIG    1       29.536 -27.516  15.341  0.00  0.00    +0.013 C 
ATOM     38  C   LIG    1       29.849 -28.720  14.433  0.00  0.00    -0.011 C 
ATOM     39  C   LIG    1       30.346 -29.875  15.332  0.00  0.00    +0.013 C 
ATOM     40  C   LIG    1       31.011 -28.331  13.494  0.00  0.00    +0.013 C 
ENDBRANCH   1  38
BRANCH  34  41
ATOM     41  C   LIG    1       26.260 -27.287  11.967  0.00  0.00    +0.234 C 
ATOM     42  N   LIG    1       26.438 -26.056  12.586  0.00  0.00    -0.299 N 
ATOM     43  H   LIG    1       27.289 -25.520  12.449  0.00  0.00    +0.150 HD
ATOM     44  O   LIG    1       25.235 -27.942  12.120  0.00  0.00    -0.274 OA
BRANCH  42  45
ATOM     45  C   LIG    1       25.437 -25.491  13.491  0.00  0.00    +0.121 C 
ATOM     46  C   LIG    1       25.657 -24.087  14.046  0.00  0.00    +0.090 C 
ATOM     47  C   LIG    1       24.649 -24.290  12.953  0.00  0.00    +0.047 C 
BRANCH  45  48
ATOM     48  C   LIG    1       24.658 -26.506  14.306  0.00  0.00    +0.256 C 
ATOM     49  N   LIG    1       23.309 -26.657  13.958  0.00  0.00    -0.188 N 
ATOM     50  H   LIG    1       22.937 -26.172  13.142  0.00  0.00    +0.176 HD
ATOM     51  O   LIG    1       25.227 -27.114  15.202  0.00  0.00    -0.272 OA
BRANCH  49  52
ATOM     52  S   LIG    1       22.332 -27.816  14.659  0.00  0.00    +0.051 S 
ATOM     53  O   LIG    1       21.350 -27.157  15.490  0.00  0.00    -0.155 OA
ATOM     54  O   LIG    1       23.220 -28.827  15.192  0.00  0.00    -0.155 OA
BRANCH  52  55
ATOM     55  C   LIG    1       21.361 -28.598  13.335  0.00  0.00    +0.104 C 
ATOM     56  C   LIG    1       21.377 -30.102  13.259  0.00  0.00    +0.033 C 
ATOM     57  C   LIG    1       20.180 -29.392  13.838  0.00  0.00    +0.033 C 
ATOM     58  C   LIG    1       21.196 -27.728  12.145  0.00  0.00    +0.037 C 
ENDBRANCH  52  55
ENDBRANCH  49  52
ENDBRANCH  45  48
BRANCH  46  59
ATOM     59  C   LIG    1       25.189 -23.637  15.384  0.00  0.00    +0.347 C 
ATOM     60  F   LIG    1       25.298 -22.288  15.455  0.00  0.00    -0.209 F 
ATOM     61  F   LIG    1       23.871 -23.936  15.500  0.00  0.00    -0.209 F 
ENDBRANCH  46  59
ENDBRANCH  42  45
ENDBRANCH  34  41
TORSDOF 7
ENDMDL
