MODEL 1
REMARK VINA RESULT:       8.6      0.000      0.000
REMARK  Name = *****
REMARK                            x       y       z     vdW  Elec       q    Type
REMARK                         _______ _______ _______ _____ _____    ______ ____
ROOT
ATOM      1  N   LIG    1       27.381 -17.558   4.519  0.00  0.00    -0.270 N 
ATOM      2  H   LIG    1       26.615 -17.986   4.038  0.00  0.00    +0.156 HD
ATOM      3  C   LIG    1       28.106 -18.356   5.370  0.00  0.00    +0.229 C 
ATOM      4  O   LIG    1       29.151 -18.056   5.933  0.00  0.00    -0.275 OA
ENDROOT
BRANCH   1   9
ATOM      5  C   LIG    1       28.758 -12.167   3.379  0.00  0.00    +0.046 C 
ATOM      6  C   LIG    1       28.312 -13.571   3.671  0.00  0.00    -0.024 A 
ATOM      7  C   LIG    1       26.975 -13.997   3.753  0.00  0.00    +0.076 A 
ATOM      8  N   LIG    1       26.673 -15.310   4.011  0.00  0.00    -0.232 NA
ATOM      9  C   LIG    1       27.652 -16.210   4.224  0.00  0.00    +0.126 A 
ATOM     10  C   LIG    1       28.990 -15.850   4.160  0.00  0.00    +0.044 A 
ATOM     11  C   LIG    1       29.315 -14.526   3.889  0.00  0.00    +0.009 A 
BRANCH   7  12
ATOM     12  C   LIG    1       25.762 -13.135   3.583  0.00  0.00    +0.001 A 
ATOM     13  C   LIG    1       24.978 -12.786   4.704  0.00  0.00    +0.025 A 
ATOM     14  C   LIG    1       23.857 -11.948   4.601  0.00  0.00    +0.059 A 
ATOM     15  C   LIG    1       23.474 -11.448   3.351  0.00  0.00    +0.015 A 
ATOM     16  C   LIG    1       24.221 -11.774   2.226  0.00  0.00    +0.001 A 
ATOM     17  C   LIG    1       25.351 -12.590   2.351  0.00  0.00    +0.010 A 
BRANCH  14  18
ATOM     18  C   LIG    1       22.993 -11.579   5.767  0.00  0.00    +0.337 C 
ATOM     19  O   LIG    1       23.426 -11.447   6.892  0.00  0.00    -0.245 OA
BRANCH  18  20
ATOM     20  O   LIG    1       21.675 -11.447   5.452  0.00  0.00    -0.477 OA
ATOM     21  H   LIG    1       21.036 -11.747   6.124  0.00  0.00    +0.295 HD
ENDBRANCH  18  20
ENDBRANCH  14  18
ENDBRANCH   7  12
ENDBRANCH   1   9
BRANCH   3  22
ATOM     22  C   LIG    1       27.580 -19.792   5.534  0.00  0.00    +0.072 C 
ATOM     23  C   LIG    1       28.646 -20.893   5.462  0.00  0.00    +0.022 C 
ATOM     24  C   LIG    1       28.009 -20.592   6.777  0.00  0.00    +0.022 C 
BRANCH  22  25
ATOM     25  C   LIG    1       26.202 -20.137   4.940  0.00  0.00    -0.029 A 
ATOM     26  C   LIG    1       25.032 -19.968   5.712  0.00  0.00    +0.054 A 
ATOM     27  C   LIG    1       23.803 -20.253   5.154  0.00  0.00    +0.173 A 
ATOM     28  O   LIG    1       22.604 -20.119   5.779  0.00  0.00    -0.395 OA
ATOM     29  C   LIG    1       21.726 -20.529   4.720  0.00  0.00    +0.589 C 
ATOM     30  O   LIG    1       22.389 -20.935   3.513  0.00  0.00    -0.396 OA
ATOM     31  F   LIG    1       20.888 -19.504   4.432  0.00  0.00    -0.125 F 
ATOM     32  F   LIG    1       20.972 -21.563   5.169  0.00  0.00    -0.125 F 
ATOM     33  C   LIG    1       23.682 -20.714   3.867  0.00  0.00    +0.173 A 
ATOM     34  C   LIG    1       24.787 -20.906   3.068  0.00  0.00    +0.050 A 
ATOM     35  C   LIG    1       26.048 -20.610   3.611  0.00  0.00    +0.008 A 
ENDBRANCH  22  25
ENDBRANCH   3  22
TORSDOF 6
ENDMDL
