MODEL 1
REMARK VINA RESULT:      -5.4      0.000      0.000
REMARK  Name = *****
REMARK                            x       y       z     vdW  Elec       q    Type
REMARK                         _______ _______ _______ _____ _____    ______ ____
ROOT
ATOM      1  C   LIG    1       24.450 -15.258   3.935  0.00  0.00    +0.146 A 
ATOM      2  C   LIG    1       25.687 -15.702   3.441  0.00  0.00    +0.101 A 
ATOM      3  C   LIG    1       25.881 -17.079   3.255  0.00  0.00    +0.019 A 
ATOM      4  C   LIG    1       24.873 -17.998   3.547  0.00  0.00    +0.013 A 
ATOM      5  C   LIG    1       23.630 -17.563   4.027  0.00  0.00    +0.058 A 
ATOM      6  C   LIG    1       23.424 -16.182   4.215  0.00  0.00    +0.059 A 
ENDROOT
BRANCH   5   7
ATOM      7  C   LIG    1       22.580 -18.595   4.371  0.00  0.00    +0.417 C 
ATOM      8  F   LIG    1       22.910 -19.839   3.922  0.00  0.00    -0.166 F 
ATOM      9  F   LIG    1       21.371 -18.307   3.814  0.00  0.00    -0.166 F 
ATOM     10  F   LIG    1       22.357 -18.727   5.707  0.00  0.00    -0.166 F 
ENDBRANCH   5   7
BRANCH   2  11
ATOM     11  C   LIG    1       26.884 -14.864   3.219  0.00  0.00    +0.340 C 
ATOM     12  O   LIG    1       27.799 -14.832   4.038  0.00  0.00    -0.245 OA
BRANCH  11  13
ATOM     13  O   LIG    1       26.960 -14.239   2.035  0.00  0.00    -0.477 OA
ATOM     14  H   LIG    1       27.865 -13.986   1.733  0.00  0.00    +0.295 HD
ENDBRANCH  11  13
ENDBRANCH   2  11
BRANCH   1  15
ATOM     15  O   LIG    1       24.231 -13.947   4.421  0.00  0.00    -0.425 OA
BRANCH  15  17
ATOM     16  C   LIG    1       23.756 -11.630   4.241  0.00  0.00    +0.136 C 
ATOM     17  C   LIG    1       24.013 -12.918   3.513  0.00  0.00    +0.309 C 
ATOM     18  O   LIG    1       24.137 -13.025   2.298  0.00  0.00    -0.251 OA
ENDBRANCH  15  17
ENDBRANCH   1  15
TORSDOF 5
ENDMDL
MODEL 2
REMARK VINA RESULT:      -5.1      3.372      4.593
REMARK  Name = *****
REMARK                            x       y       z     vdW  Elec       q    Type
REMARK                         _______ _______ _______ _____ _____    ______ ____
ROOT
ATOM      1  C   LIG    1       26.380 -19.432   4.590  0.00  0.00    +0.146 A 
ATOM      2  C   LIG    1       27.265 -19.815   5.611  0.00  0.00    +0.101 A 
ATOM      3  C   LIG    1       26.757 -20.526   6.709  0.00  0.00    +0.019 A 
ATOM      4  C   LIG    1       25.405 -20.855   6.795  0.00  0.00    +0.013 A 
ATOM      5  C   LIG    1       24.517 -20.489   5.774  0.00  0.00    +0.058 A 
ATOM      6  C   LIG    1       25.017 -19.777   4.666  0.00  0.00    +0.059 A 
ENDROOT
BRANCH   5   7
ATOM      7  C   LIG    1       23.051 -20.829   5.926  0.00  0.00    +0.417 C 
ATOM      8  F   LIG    1       22.267 -19.717   6.005  0.00  0.00    -0.166 F 
ATOM      9  F   LIG    1       22.800 -21.542   7.059  0.00  0.00    -0.166 F 
ATOM     10  F   LIG    1       22.549 -21.567   4.898  0.00  0.00    -0.166 F 
ENDBRANCH   5   7
BRANCH   2  11
ATOM     11  C   LIG    1       28.686 -19.421   5.721  0.00  0.00    +0.340 C 
ATOM     12  O   LIG    1       29.475 -20.071   6.403  0.00  0.00    -0.245 OA
BRANCH  11  13
ATOM     13  O   LIG    1       29.078 -18.394   4.954  0.00  0.00    -0.477 OA
ATOM     14  H   LIG    1       28.557 -18.242   4.129  0.00  0.00    +0.295 HD
ENDBRANCH  11  13
ENDBRANCH   2  11
BRANCH   1  15
ATOM     15  O   LIG    1       26.709 -18.488   3.589  0.00  0.00    -0.425 OA
BRANCH  15  17
ATOM     16  C   LIG    1       26.932 -16.128   3.499  0.00  0.00    +0.136 C 
ATOM     17  C   LIG    1       25.993 -17.299   3.519  0.00  0.00    +0.309 C 
ATOM     18  O   LIG    1       24.777 -17.227   3.372  0.00  0.00    -0.251 OA
ENDBRANCH  15  17
ENDBRANCH   1  15
TORSDOF 5
ENDMDL
MODEL 3
REMARK VINA RESULT:      -4.6      1.055      3.067
REMARK  Name = *****
REMARK                            x       y       z     vdW  Elec       q    Type
REMARK                         _______ _______ _______ _____ _____    ______ ____
ROOT
ATOM      1  C   LIG    1       25.157 -15.661   3.526  0.00  0.00    +0.146 A 
ATOM      2  C   LIG    1       24.115 -14.823   3.955  0.00  0.00    +0.101 A 
ATOM      3  C   LIG    1       22.924 -15.411   4.409  0.00  0.00    +0.019 A 
ATOM      4  C   LIG    1       22.768 -16.796   4.442  0.00  0.00    +0.013 A 
ATOM      5  C   LIG    1       23.808 -17.640   4.029  0.00  0.00    +0.058 A 
ATOM      6  C   LIG    1       25.009 -17.061   3.575  0.00  0.00    +0.059 A 
ENDROOT
BRANCH   5   7
ATOM      7  C   LIG    1       23.582 -19.136   4.043  0.00  0.00    +0.417 C 
ATOM      8  F   LIG    1       22.280 -19.461   4.282  0.00  0.00    -0.166 F 
ATOM      9  F   LIG    1       24.305 -19.759   5.014  0.00  0.00    -0.166 F 
ATOM     10  F   LIG    1       23.912 -19.751   2.874  0.00  0.00    -0.166 F 
ENDBRANCH   5   7
BRANCH   2  11
ATOM     11  C   LIG    1       24.086 -13.349   3.848  0.00  0.00    +0.340 C 
ATOM     12  O   LIG    1       24.503 -12.638   4.759  0.00  0.00    -0.245 OA
BRANCH  11  13
ATOM     13  O   LIG    1       23.689 -12.847   2.671  0.00  0.00    -0.477 OA
ATOM     14  H   LIG    1       23.136 -13.441   2.108  0.00  0.00    +0.295 HD
ENDBRANCH  11  13
ENDBRANCH   2  11
BRANCH   1  15
ATOM     15  O   LIG    1       26.279 -15.197   2.799  0.00  0.00    -0.425 OA
BRANCH  15  17
ATOM     16  C   LIG    1       27.657 -13.297   3.145  0.00  0.00    +0.136 C 
ATOM     17  C   LIG    1       27.390 -14.733   3.494  0.00  0.00    +0.309 C 
ATOM     18  O   LIG    1       27.986 -15.369   4.356  0.00  0.00    -0.251 OA
ENDBRANCH  15  17
ENDBRANCH   1  15
TORSDOF 5
ENDMDL
MODEL 4
REMARK VINA RESULT:      -4.5      1.746      3.366
REMARK  Name = *****
REMARK                            x       y       z     vdW  Elec       q    Type
REMARK                         _______ _______ _______ _____ _____    ______ ____
ROOT
ATOM      1  C   LIG    1       25.808 -14.568   3.528  0.00  0.00    +0.146 A 
ATOM      2  C   LIG    1       24.537 -14.109   3.909  0.00  0.00    +0.101 A 
ATOM      3  C   LIG    1       23.525 -15.052   4.147  0.00  0.00    +0.019 A 
ATOM      4  C   LIG    1       23.765 -16.419   4.015  0.00  0.00    +0.013 A 
ATOM      5  C   LIG    1       25.034 -16.887   3.648  0.00  0.00    +0.058 A 
ATOM      6  C   LIG    1       26.058 -15.950   3.410  0.00  0.00    +0.059 A 
ENDROOT
BRANCH   5   7
ATOM      7  C   LIG    1       25.240 -18.376   3.476  0.00  0.00    +0.417 C 
ATOM      8  F   LIG    1       25.767 -18.688   2.258  0.00  0.00    -0.166 F 
ATOM      9  F   LIG    1       24.075 -19.073   3.566  0.00  0.00    -0.166 F 
ATOM     10  F   LIG    1       26.079 -18.924   4.397  0.00  0.00    -0.166 F 
ENDBRANCH   5   7
BRANCH   2  11
ATOM     11  C   LIG    1       24.102 -12.697   3.956  0.00  0.00    +0.340 C 
ATOM     12  O   LIG    1       24.154 -12.049   4.998  0.00  0.00    -0.245 OA
BRANCH  11  13
ATOM     13  O   LIG    1       23.761 -12.142   2.784  0.00  0.00    -0.477 OA
ATOM     14  H   LIG    1       24.130 -12.571   1.974  0.00  0.00    +0.295 HD
ENDBRANCH  11  13
ENDBRANCH   2  11
BRANCH   1  15
ATOM     15  O   LIG    1       26.813 -13.725   2.998  0.00  0.00    -0.425 OA
BRANCH  15  17
ATOM     16  C   LIG    1       27.499 -13.292   5.228  0.00  0.00    +0.136 C 
ATOM     17  C   LIG    1       27.911 -13.406   3.789  0.00  0.00    +0.309 C 
ATOM     18  O   LIG    1       29.067 -13.347   3.382  0.00  0.00    -0.251 OA
ENDBRANCH  15  17
ENDBRANCH   1  15
TORSDOF 5
ENDMDL
MODEL 5
REMARK VINA RESULT:      -4.5      4.113      5.957
REMARK  Name = *****
REMARK                            x       y       z     vdW  Elec       q    Type
REMARK                         _______ _______ _______ _____ _____    ______ ____
ROOT
ATOM      1  C   LIG    1       24.649 -18.131   3.549  0.00  0.00    +0.146 A 
ATOM      2  C   LIG    1       23.407 -17.714   4.054  0.00  0.00    +0.101 A 
ATOM      3  C   LIG    1       23.212 -16.350   4.320  0.00  0.00    +0.019 A 
ATOM      4  C   LIG    1       24.223 -15.417   4.087  0.00  0.00    +0.013 A 
ATOM      5  C   LIG    1       25.461 -15.822   3.570  0.00  0.00    +0.058 A 
ATOM      6  C   LIG    1       25.665 -17.189   3.297  0.00  0.00    +0.059 A 
ENDROOT
BRANCH   5   7
ATOM      7  C   LIG    1       26.543 -14.784   3.371  0.00  0.00    +0.417 C 
ATOM      8  F   LIG    1       27.773 -15.241   3.740  0.00  0.00    -0.166 F 
ATOM      9  F   LIG    1       26.327 -13.663   4.113  0.00  0.00    -0.166 F 
ATOM     10  F   LIG    1       26.671 -14.364   2.083  0.00  0.00    -0.166 F 
ENDBRANCH   5   7
BRANCH   2  11
ATOM     11  C   LIG    1       22.300 -18.599   4.476  0.00  0.00    +0.340 C 
ATOM     12  O   LIG    1       22.383 -19.281   5.494  0.00  0.00    -0.245 OA
BRANCH  11  13
ATOM     13  O   LIG    1       21.174 -18.526   3.752  0.00  0.00    -0.477 OA
ATOM     14  H   LIG    1       20.386 -18.146   4.209  0.00  0.00    +0.295 HD
ENDBRANCH  11  13
ENDBRANCH   2  11
BRANCH   1  15
ATOM     15  O   LIG    1       25.056 -19.485   3.506  0.00  0.00    -0.425 OA
BRANCH  15  17
ATOM     16  C   LIG    1       24.926 -21.238   5.100  0.00  0.00    +0.136 C 
ATOM     17  C   LIG    1       25.686 -20.037   4.616  0.00  0.00    +0.309 C 
ATOM     18  O   LIG    1       26.769 -19.667   5.057  0.00  0.00    -0.251 OA
ENDBRANCH  15  17
ENDBRANCH   1  15
TORSDOF 5
ENDMDL
MODEL 6
REMARK VINA RESULT:      -4.4      1.498      2.019
REMARK  Name = *****
REMARK                            x       y       z     vdW  Elec       q    Type
REMARK                         _______ _______ _______ _____ _____    ______ ____
ROOT
ATOM      1  C   LIG    1       25.410 -14.881   3.702  0.00  0.00    +0.146 A 
ATOM      2  C   LIG    1       26.808 -14.792   3.783  0.00  0.00    +0.101 A 
ATOM      3  C   LIG    1       27.560 -15.978   3.766  0.00  0.00    +0.019 A 
ATOM      4  C   LIG    1       26.941 -17.224   3.668  0.00  0.00    +0.013 A 
ATOM      5  C   LIG    1       25.546 -17.322   3.573  0.00  0.00    +0.058 A 
ATOM      6  C   LIG    1       24.783 -16.138   3.585  0.00  0.00    +0.059 A 
ENDROOT
BRANCH   5   7
ATOM      7  C   LIG    1       24.914 -18.694   3.509  0.00  0.00    +0.417 C 
ATOM      8  F   LIG    1       25.211 -19.452   4.602  0.00  0.00    -0.166 F 
ATOM      9  F   LIG    1       25.341 -19.411   2.434  0.00  0.00    -0.166 F 
ATOM     10  F   LIG    1       23.556 -18.670   3.430  0.00  0.00    -0.166 F 
ENDBRANCH   5   7
BRANCH   2  11
ATOM     11  C   LIG    1       27.587 -13.560   4.027  0.00  0.00    +0.340 C 
ATOM     12  O   LIG    1       27.602 -13.025   5.133  0.00  0.00    -0.245 OA
BRANCH  11  13
ATOM     13  O   LIG    1       28.354 -13.132   3.014  0.00  0.00    -0.477 OA
ATOM     14  H   LIG    1       29.319 -13.041   3.206  0.00  0.00    +0.295 HD
ENDBRANCH  11  13
ENDBRANCH   2  11
BRANCH   1  15
ATOM     15  O   LIG    1       24.543 -13.799   3.985  0.00  0.00    -0.425 OA
BRANCH  15  17
ATOM     16  C   LIG    1       23.746 -11.597   3.601  0.00  0.00    +0.136 C 
ATOM     17  C   LIG    1       24.294 -12.857   2.994  0.00  0.00    +0.309 C 
ATOM     18  O   LIG    1       24.593 -12.993   1.813  0.00  0.00    -0.251 OA
ENDBRANCH  15  17
ENDBRANCH   1  15
TORSDOF 5
ENDMDL
MODEL 7
REMARK VINA RESULT:      -4.3      1.133      1.603
REMARK  Name = *****
REMARK                            x       y       z     vdW  Elec       q    Type
REMARK                         _______ _______ _______ _____ _____    ______ ____
ROOT
ATOM      1  C   LIG    1       24.701 -15.073   3.990  0.00  0.00    +0.146 A 
ATOM      2  C   LIG    1       26.055 -15.157   3.629  0.00  0.00    +0.101 A 
ATOM      3  C   LIG    1       26.594 -16.418   3.327  0.00  0.00    +0.019 A 
ATOM      4  C   LIG    1       25.809 -17.570   3.376  0.00  0.00    +0.013 A 
ATOM      5  C   LIG    1       24.453 -17.494   3.721  0.00  0.00    +0.058 A 
ATOM      6  C   LIG    1       23.902 -16.233   4.024  0.00  0.00    +0.059 A 
ENDROOT
BRANCH   5   7
ATOM      7  C   LIG    1       23.648 -18.772   3.803  0.00  0.00    +0.417 C 
ATOM      8  F   LIG    1       22.305 -18.541   3.784  0.00  0.00    -0.166 F 
ATOM      9  F   LIG    1       23.890 -19.463   4.950  0.00  0.00    -0.166 F 
ATOM     10  F   LIG    1       23.892 -19.639   2.782  0.00  0.00    -0.166 F 
ENDBRANCH   5   7
BRANCH   2  11
ATOM     11  C   LIG    1       27.034 -14.050   3.668  0.00  0.00    +0.340 C 
ATOM     12  O   LIG    1       27.444 -13.600   4.734  0.00  0.00    -0.245 OA
BRANCH  11  13
ATOM     13  O   LIG    1       27.524 -13.651   2.486  0.00  0.00    -0.477 OA
ATOM     14  H   LIG    1       26.864 -13.327   1.826  0.00  0.00    +0.295 HD
ENDBRANCH  11  13
ENDBRANCH   2  11
BRANCH   1  15
ATOM     15  O   LIG    1       24.122 -13.924   4.577  0.00  0.00    -0.425 OA
BRANCH  15  17
ATOM     16  C   LIG    1       23.967 -13.098   2.358  0.00  0.00    +0.136 C 
ATOM     17  C   LIG    1       24.010 -12.762   3.821  0.00  0.00    +0.309 C 
ATOM     18  O   LIG    1       23.848 -11.641   4.288  0.00  0.00    -0.251 OA
ENDBRANCH  15  17
ENDBRANCH   1  15
TORSDOF 5
ENDMDL
MODEL 8
REMARK VINA RESULT:      -4.1      4.274      6.116
REMARK  Name = *****
REMARK                            x       y       z     vdW  Elec       q    Type
REMARK                         _______ _______ _______ _____ _____    ______ ____
ROOT
ATOM      1  C   LIG    1       25.359 -19.023   3.867  0.00  0.00    +0.146 A 
ATOM      2  C   LIG    1       23.963 -19.013   4.018  0.00  0.00    +0.101 A 
ATOM      3  C   LIG    1       23.289 -17.783   3.961  0.00  0.00    +0.019 A 
ATOM      4  C   LIG    1       23.980 -16.589   3.756  0.00  0.00    +0.013 A 
ATOM      5  C   LIG    1       25.372 -16.591   3.591  0.00  0.00    +0.058 A 
ATOM      6  C   LIG    1       26.058 -17.820   3.643  0.00  0.00    +0.059 A 
ENDROOT
BRANCH   5   7
ATOM      7  C   LIG    1       26.087 -15.270   3.412  0.00  0.00    +0.417 C 
ATOM      8  F   LIG    1       27.443 -15.408   3.432  0.00  0.00    -0.166 F 
ATOM      9  F   LIG    1       25.789 -14.383   4.401  0.00  0.00    -0.166 F 
ATOM     10  F   LIG    1       25.793 -14.641   2.241  0.00  0.00    -0.166 F 
ENDBRANCH   5   7
BRANCH   2  11
ATOM     11  C   LIG    1       23.120 -20.174   4.374  0.00  0.00    +0.340 C 
ATOM     12  O   LIG    1       22.026 -20.024   4.911  0.00  0.00    -0.245 OA
BRANCH  11  13
ATOM     13  O   LIG    1       23.567 -21.375   3.980  0.00  0.00    -0.477 OA
ATOM     14  H   LIG    1       22.904 -21.967   3.549  0.00  0.00    +0.295 HD
ENDBRANCH  11  13
ENDBRANCH   2  11
BRANCH   1  15
ATOM     15  O   LIG    1       26.167 -20.142   4.179  0.00  0.00    -0.425 OA
BRANCH  15  17
ATOM     16  C   LIG    1       26.024 -20.648   6.492  0.00  0.00    +0.136 C 
ATOM     17  C   LIG    1       26.885 -20.146   5.369  0.00  0.00    +0.309 C 
ATOM     18  O   LIG    1       28.081 -19.893   5.461  0.00  0.00    -0.251 OA
ENDBRANCH  15  17
ENDBRANCH   1  15
TORSDOF 5
ENDMDL
MODEL 9
REMARK VINA RESULT:      -4.1      3.854      5.457
REMARK  Name = *****
REMARK                            x       y       z     vdW  Elec       q    Type
REMARK                         _______ _______ _______ _____ _____    ______ ____
ROOT
ATOM      1  C   LIG    1       23.591 -17.946   4.139  0.00  0.00    +0.146 A 
ATOM      2  C   LIG    1       24.819 -18.480   3.717  0.00  0.00    +0.101 A 
ATOM      3  C   LIG    1       25.841 -17.596   3.337  0.00  0.00    +0.019 A 
ATOM      4  C   LIG    1       25.654 -16.215   3.377  0.00  0.00    +0.013 A 
ATOM      5  C   LIG    1       24.436 -15.673   3.810  0.00  0.00    +0.058 A 
ATOM      6  C   LIG    1       23.405 -16.551   4.196  0.00  0.00    +0.059 A 
ENDROOT
BRANCH   5   7
ATOM      7  C   LIG    1       24.262 -14.170   3.798  0.00  0.00    +0.417 C 
ATOM      8  F   LIG    1       25.451 -13.512   3.699  0.00  0.00    -0.166 F 
ATOM      9  F   LIG    1       23.676 -13.709   4.937  0.00  0.00    -0.166 F 
ATOM     10  F   LIG    1       23.497 -13.715   2.769  0.00  0.00    -0.166 F 
ENDBRANCH   5   7
BRANCH   2  11
ATOM     11  C   LIG    1       25.112 -19.912   3.495  0.00  0.00    +0.340 C 
ATOM     12  O   LIG    1       24.494 -20.566   2.659  0.00  0.00    -0.245 OA
BRANCH  11  13
ATOM     13  O   LIG    1       26.155 -20.415   4.171  0.00  0.00    -0.477 OA
ATOM     14  H   LIG    1       26.764 -21.001   3.660  0.00  0.00    +0.295 HD
ENDBRANCH  11  13
ENDBRANCH   2  11
BRANCH   1  15
ATOM     15  O   LIG    1       22.413 -18.718   4.277  0.00  0.00    -0.425 OA
BRANCH  15  17
ATOM     16  C   LIG    1       21.694 -20.947   4.659  0.00  0.00    +0.136 C 
ATOM     17  C   LIG    1       22.380 -19.736   5.224  0.00  0.00    +0.309 C 
ATOM     18  O   LIG    1       22.939 -19.690   6.314  0.00  0.00    -0.251 OA
ENDBRANCH  15  17
ENDBRANCH   1  15
TORSDOF 5
ENDMDL
