MODEL 1
REMARK VINA RESULT:      -9.9      0.000      0.000
REMARK  Name = *****
REMARK                            x       y       z     vdW  Elec       q    Type
REMARK                         _______ _______ _______ _____ _____    ______ ____
ROOT
ATOM      1  N   LIG    1       25.096 -24.891   5.967  0.00  0.00    -0.302 NA
ATOM      2  C   LIG    1       24.045 -25.783   5.463  0.00  0.00    +0.086 C 
ATOM      3  C   LIG    1       24.582 -27.025   4.756  0.00  0.00    +0.041 C 
ATOM      4  C   LIG    1       25.642 -27.802   5.561  0.00  0.00    +0.095 C 
ATOM      5  C   LIG    1       26.696 -26.787   6.031  0.00  0.00    +0.041 C 
ATOM      6  C   LIG    1       26.065 -25.625   6.800  0.00  0.00    +0.086 C 
ENDROOT
BRANCH   4   7
ATOM      7  N   LIG    1       25.093 -28.706   6.578  0.00  0.00    -0.291 N 
ATOM      8  C   LIG    1       25.512 -28.782   7.903  0.00  0.00    +0.072 A 
ATOM      9  C   LIG    1       24.677 -29.745   8.476  0.00  0.00    +0.094 A 
ATOM     10  C   LIG    1       24.853 -30.122   9.817  0.00  0.00    +0.050 A 
ATOM     11  C   LIG    1       25.865 -29.507  10.551  0.00  0.00    +0.043 A 
ATOM     12  C   LIG    1       26.673 -28.523   9.984  0.00  0.00    +0.022 A 
ATOM     13 CL   LIG    1       26.113 -29.963  12.194  0.00  0.00    -0.084 Cl
ATOM     14  N   LIG    1       23.744 -30.189   7.588  0.00  0.00    -0.195 NA
ATOM     15  C   LIG    1       26.500 -28.128   8.651  0.00  0.00    +0.029 A 
ATOM     16  C   LIG    1       23.991 -29.520   6.489  0.00  0.00    +0.297 A 
BRANCH  16  17
ATOM     17  O   LIG    1       23.197 -29.657   5.452  0.00  0.00    -0.479 OA
ATOM     18  H   LIG    1       22.603 -28.891   5.561  0.00  0.00    +0.295 HD
ENDBRANCH  16  17
ENDBRANCH   4   7
BRANCH   1  19
ATOM     19  C   LIG    1       24.523 -23.781   6.759  0.00  0.00    +0.086 C 
BRANCH  19  20
ATOM     20  C   LIG    1       25.499 -23.095   7.722  0.00  0.00    +0.037 C 
BRANCH  20  21
ATOM     21  C   LIG    1       25.219 -21.602   7.874  0.00  0.00    +0.128 C 
BRANCH  21  23
ATOM     22  C   LIG    1       26.590 -20.645   6.009  0.00  0.00    +0.297 A 
ATOM     23  N   LIG    1       25.396 -20.893   6.624  0.00  0.00    -0.294 N 
ATOM     24  C   LIG    1       24.410 -20.350   5.834  0.00  0.00    +0.072 A 
ATOM     25  C   LIG    1       25.110 -19.805   4.753  0.00  0.00    +0.093 A 
ATOM     26  C   LIG    1       24.397 -19.166   3.727  0.00  0.00    +0.030 A 
ATOM     27  C   LIG    1       23.001 -19.095   3.815  0.00  0.00    +0.002 A 
ATOM     28  C   LIG    1       22.326 -19.646   4.906  0.00  0.00    +0.002 A 
ATOM     29  C   LIG    1       23.016 -20.286   5.942  0.00  0.00    +0.028 A 
ATOM     30  N   LIG    1       26.464 -19.996   4.885  0.00  0.00    -0.195 NA
BRANCH  22  31
ATOM     31  O   LIG    1       27.765 -21.018   6.473  0.00  0.00    -0.479 OA
ATOM     32  H   LIG    1       27.946 -21.797   5.916  0.00  0.00    +0.295 HD
ENDBRANCH  22  31
ENDBRANCH  21  23
ENDBRANCH  20  21
ENDBRANCH  19  20
ENDBRANCH   1  19
TORSDOF 7
ENDMDL
MODEL 2
REMARK VINA RESULT:      -9.8      2.795      8.881
REMARK  Name = *****
REMARK                            x       y       z     vdW  Elec       q    Type
REMARK                         _______ _______ _______ _____ _____    ______ ____
ROOT
ATOM      1  N   LIG    1       24.192 -24.319   6.620  0.00  0.00    -0.302 NA
ATOM      2  C   LIG    1       23.582 -23.224   5.855  0.00  0.00    +0.086 C 
ATOM      3  C   LIG    1       23.426 -21.932   6.654  0.00  0.00    +0.041 C 
ATOM      4  C   LIG    1       24.711 -21.472   7.370  0.00  0.00    +0.095 C 
ATOM      5  C   LIG    1       25.260 -22.680   8.146  0.00  0.00    +0.041 C 
ATOM      6  C   LIG    1       25.459 -23.896   7.240  0.00  0.00    +0.086 C 
ENDROOT
BRANCH   4   7
ATOM      7  N   LIG    1       25.657 -20.746   6.518  0.00  0.00    -0.291 N 
ATOM      8  C   LIG    1       27.005 -20.543   6.797  0.00  0.00    +0.072 A 
ATOM      9  C   LIG    1       27.489 -19.843   5.688  0.00  0.00    +0.094 A 
ATOM     10  C   LIG    1       28.826 -19.419   5.651  0.00  0.00    +0.050 A 
ATOM     11  C   LIG    1       29.649 -19.721   6.734  0.00  0.00    +0.043 A 
ATOM     12  C   LIG    1       29.170 -20.448   7.823  0.00  0.00    +0.022 A 
ATOM     13 CL   LIG    1       31.290 -19.197   6.720  0.00  0.00    -0.084 Cl
ATOM     14  N   LIG    1       26.524 -19.684   4.739  0.00  0.00    -0.195 NA
ATOM     15  C   LIG    1       27.842 -20.889   7.868  0.00  0.00    +0.029 A 
ATOM     16  C   LIG    1       25.466 -20.270   5.244  0.00  0.00    +0.297 A 
BRANCH  16  17
ATOM     17  O   LIG    1       24.372 -20.369   4.525  0.00  0.00    -0.479 OA
ATOM     18  H   LIG    1       23.789 -19.727   4.971  0.00  0.00    +0.295 HD
ENDBRANCH  16  17
ENDBRANCH   4   7
BRANCH   1  19
ATOM     19  C   LIG    1       24.444 -25.496   5.761  0.00  0.00    +0.086 C 
BRANCH  19  20
ATOM     20  C   LIG    1       25.718 -26.283   6.091  0.00  0.00    +0.037 C 
BRANCH  20  21
ATOM     21  C   LIG    1       25.645 -27.735   5.627  0.00  0.00    +0.128 C 
BRANCH  21  23
ATOM     22  C   LIG    1       23.987 -29.414   6.468  0.00  0.00    +0.297 A 
ATOM     23  N   LIG    1       25.065 -28.594   6.639  0.00  0.00    -0.294 N 
ATOM     24  C   LIG    1       25.487 -28.743   7.940  0.00  0.00    +0.072 A 
ATOM     25  C   LIG    1       24.606 -29.688   8.472  0.00  0.00    +0.093 A 
ATOM     26  C   LIG    1       24.758 -30.092   9.808  0.00  0.00    +0.030 A 
ATOM     27  C   LIG    1       25.793 -29.535  10.569  0.00  0.00    +0.002 A 
ATOM     28  C   LIG    1       26.660 -28.591  10.014  0.00  0.00    +0.002 A 
ATOM     29  C   LIG    1       26.525 -28.172   8.686  0.00  0.00    +0.028 A 
ATOM     30  N   LIG    1       23.679 -30.089   7.541  0.00  0.00    -0.195 NA
BRANCH  22  31
ATOM     31  O   LIG    1       23.311 -29.541   5.344  0.00  0.00    -0.479 OA
ATOM     32  H   LIG    1       23.293 -28.618   5.033  0.00  0.00    +0.295 HD
ENDBRANCH  22  31
ENDBRANCH  21  23
ENDBRANCH  20  21
ENDBRANCH  19  20
ENDBRANCH   1  19
TORSDOF 7
ENDMDL
MODEL 3
REMARK VINA RESULT:      -9.8      1.297      2.327
REMARK  Name = *****
REMARK                            x       y       z     vdW  Elec       q    Type
REMARK                         _______ _______ _______ _____ _____    ______ ____
ROOT
ATOM      1  N   LIG    1       24.877 -24.640   6.245  0.00  0.00    -0.302 NA
ATOM      2  C   LIG    1       23.868 -25.534   5.662  0.00  0.00    +0.086 C 
ATOM      3  C   LIG    1       24.462 -26.674   4.840  0.00  0.00    +0.041 C 
ATOM      4  C   LIG    1       25.567 -27.469   5.565  0.00  0.00    +0.095 C 
ATOM      5  C   LIG    1       26.571 -26.449   6.125  0.00  0.00    +0.041 C 
ATOM      6  C   LIG    1       25.888 -25.399   7.002  0.00  0.00    +0.086 C 
ENDROOT
BRANCH   4   7
ATOM      7  N   LIG    1       25.072 -28.491   6.493  0.00  0.00    -0.291 N 
ATOM      8  C   LIG    1       25.516 -28.679   7.799  0.00  0.00    +0.072 A 
ATOM      9  C   LIG    1       24.732 -29.730   8.284  0.00  0.00    +0.094 A 
ATOM     10  C   LIG    1       24.945 -30.228   9.578  0.00  0.00    +0.050 A 
ATOM     11  C   LIG    1       25.942 -29.647  10.358  0.00  0.00    +0.043 A 
ATOM     12  C   LIG    1       26.699 -28.578   9.881  0.00  0.00    +0.022 A 
ATOM     13 CL   LIG    1       26.236 -30.252  11.944  0.00  0.00    -0.084 Cl
ATOM     14  N   LIG    1       23.803 -30.123   7.367  0.00  0.00    -0.195 NA
ATOM     15  C   LIG    1       26.489 -28.060   8.596  0.00  0.00    +0.029 A 
ATOM     16  C   LIG    1       24.004 -29.338   6.337  0.00  0.00    +0.297 A 
BRANCH  16  17
ATOM     17  O   LIG    1       23.200 -29.407   5.302  0.00  0.00    -0.479 OA
ATOM     18  H   LIG    1       22.620 -30.149   5.556  0.00  0.00    +0.295 HD
ENDBRANCH  16  17
ENDBRANCH   4   7
BRANCH   1  19
ATOM     19  C   LIG    1       24.254 -23.641   7.140  0.00  0.00    +0.086 C 
BRANCH  19  20
ATOM     20  C   LIG    1       23.204 -22.740   6.480  0.00  0.00    +0.037 C 
BRANCH  20  21
ATOM     21  C   LIG    1       23.458 -21.257   6.740  0.00  0.00    +0.128 C 
BRANCH  21  23
ATOM     22  C   LIG    1       24.674 -20.458   4.701  0.00  0.00    +0.297 A 
ATOM     23  N   LIG    1       24.625 -20.780   6.027  0.00  0.00    -0.294 N 
ATOM     24  C   LIG    1       25.881 -20.563   6.546  0.00  0.00    +0.072 A 
ATOM     25  C   LIG    1       26.617 -20.095   5.454  0.00  0.00    +0.093 A 
ATOM     26  C   LIG    1       27.968 -19.758   5.632  0.00  0.00    +0.030 A 
ATOM     27  C   LIG    1       28.539 -19.898   6.904  0.00  0.00    +0.002 A 
ATOM     28  C   LIG    1       27.781 -20.369   7.978  0.00  0.00    +0.002 A 
ATOM     29  C   LIG    1       26.433 -20.714   7.822  0.00  0.00    +0.028 A 
ATOM     30  N   LIG    1       25.849 -20.042   4.316  0.00  0.00    -0.195 NA
BRANCH  22  31
ATOM     31  O   LIG    1       23.654 -20.538   3.871  0.00  0.00    -0.479 OA
ATOM     32  H   LIG    1       23.124 -21.236   4.296  0.00  0.00    +0.295 HD
ENDBRANCH  22  31
ENDBRANCH  21  23
ENDBRANCH  20  21
ENDBRANCH  19  20
ENDBRANCH   1  19
TORSDOF 7
ENDMDL
MODEL 4
REMARK VINA RESULT:      -9.4      1.547      2.516
REMARK  Name = *****
REMARK                            x       y       z     vdW  Elec       q    Type
REMARK                         _______ _______ _______ _____ _____    ______ ____
ROOT
ATOM      1  N   LIG    1       24.927 -24.832   5.975  0.00  0.00    -0.302 NA
ATOM      2  C   LIG    1       24.035 -25.820   5.356  0.00  0.00    +0.086 C 
ATOM      3  C   LIG    1       24.769 -27.017   4.757  0.00  0.00    +0.041 C 
ATOM      4  C   LIG    1       25.774 -27.688   5.714  0.00  0.00    +0.095 C 
ATOM      5  C   LIG    1       26.662 -26.576   6.296  0.00  0.00    +0.041 C 
ATOM      6  C   LIG    1       25.834 -25.467   6.946  0.00  0.00    +0.086 C 
ENDROOT
BRANCH   4   7
ATOM      7  N   LIG    1       25.174 -28.625   6.669  0.00  0.00    -0.291 N 
ATOM      8  C   LIG    1       25.558 -28.782   7.997  0.00  0.00    +0.072 A 
ATOM      9  C   LIG    1       24.681 -29.747   8.501  0.00  0.00    +0.094 A 
ATOM     10  C   LIG    1       24.813 -30.197   9.824  0.00  0.00    +0.050 A 
ATOM     11  C   LIG    1       25.825 -29.653  10.612  0.00  0.00    +0.043 A 
ATOM     12  C   LIG    1       26.676 -28.666  10.115  0.00  0.00    +0.022 A 
ATOM     13 CL   LIG    1       26.019 -30.200  12.234  0.00  0.00    -0.084 Cl
ATOM     14  N   LIG    1       23.757 -30.116   7.570  0.00  0.00    -0.195 NA
ATOM     15  C   LIG    1       26.547 -28.198   8.801  0.00  0.00    +0.029 A 
ATOM     16  C   LIG    1       24.050 -29.398   6.513  0.00  0.00    +0.297 A 
BRANCH  16  17
ATOM     17  O   LIG    1       23.279 -29.457   5.453  0.00  0.00    -0.479 OA
ATOM     18  H   LIG    1       23.102 -28.512   5.290  0.00  0.00    +0.295 HD
ENDBRANCH  16  17
ENDBRANCH   4   7
BRANCH   1  19
ATOM     19  C   LIG    1       24.158 -23.769   6.656  0.00  0.00    +0.086 C 
BRANCH  19  20
ATOM     20  C   LIG    1       24.084 -22.434   5.906  0.00  0.00    +0.037 C 
BRANCH  20  21
ATOM     21  C   LIG    1       24.164 -21.231   6.842  0.00  0.00    +0.128 C 
BRANCH  21  23
ATOM     22  C   LIG    1       25.968 -21.389   8.574  0.00  0.00    +0.297 A 
ATOM     23  N   LIG    1       25.509 -21.027   7.339  0.00  0.00    -0.294 N 
ATOM     24  C   LIG    1       26.559 -20.444   6.669  0.00  0.00    +0.072 A 
ATOM     25  C   LIG    1       27.616 -20.512   7.581  0.00  0.00    +0.093 A 
ATOM     26  C   LIG    1       28.873 -20.005   7.213  0.00  0.00    +0.030 A 
ATOM     27  C   LIG    1       29.030 -19.446   5.938  0.00  0.00    +0.002 A 
ATOM     28  C   LIG    1       27.958 -19.389   5.047  0.00  0.00    +0.002 A 
ATOM     29  C   LIG    1       26.695 -19.886   5.393  0.00  0.00    +0.028 A 
ATOM     30  N   LIG    1       27.226 -21.099   8.759  0.00  0.00    -0.195 NA
BRANCH  22  31
ATOM     31  O   LIG    1       25.242 -21.980   9.500  0.00  0.00    -0.479 OA
ATOM     32  H   LIG    1       25.433 -21.417  10.273  0.00  0.00    +0.295 HD
ENDBRANCH  22  31
ENDBRANCH  21  23
ENDBRANCH  20  21
ENDBRANCH  19  20
ENDBRANCH   1  19
TORSDOF 7
ENDMDL
MODEL 5
REMARK VINA RESULT:      -9.2      3.025      9.038
REMARK  Name = *****
REMARK                            x       y       z     vdW  Elec       q    Type
REMARK                         _______ _______ _______ _____ _____    ______ ____
ROOT
ATOM      1  N   LIG    1       24.086 -24.395   5.339  0.00  0.00    -0.302 NA
ATOM      2  C   LIG    1       24.880 -23.350   4.679  0.00  0.00    +0.086 C 
ATOM      3  C   LIG    1       24.430 -21.932   5.020  0.00  0.00    +0.041 C 
ATOM      4  C   LIG    1       24.287 -21.660   6.531  0.00  0.00    +0.095 C 
ATOM      5  C   LIG    1       23.436 -22.796   7.122  0.00  0.00    +0.041 C 
ATOM      6  C   LIG    1       24.017 -24.172   6.794  0.00  0.00    +0.086 C 
ENDROOT
BRANCH   4   7
ATOM      7  N   LIG    1       25.546 -21.349   7.216  0.00  0.00    -0.291 N 
ATOM      8  C   LIG    1       26.602 -20.621   6.676  0.00  0.00    +0.072 A 
ATOM      9  C   LIG    1       27.544 -20.560   7.706  0.00  0.00    +0.094 A 
ATOM     10  C   LIG    1       28.781 -19.931   7.494  0.00  0.00    +0.050 A 
ATOM     11  C   LIG    1       29.033 -19.368   6.244  0.00  0.00    +0.043 A 
ATOM     12  C   LIG    1       28.077 -19.403   5.231  0.00  0.00    +0.022 A 
ATOM     13 CL   LIG    1       30.550 -18.605   5.952  0.00  0.00    -0.084 Cl
ATOM     14  N   LIG    1       27.078 -21.146   8.845  0.00  0.00    -0.195 NA
ATOM     15  C   LIG    1       26.833 -20.015   5.433  0.00  0.00    +0.029 A 
ATOM     16  C   LIG    1       25.875 -21.562   8.532  0.00  0.00    +0.297 A 
BRANCH  16  17
ATOM     17  O   LIG    1       25.113 -22.102   9.454  0.00  0.00    -0.479 OA
ATOM     18  H   LIG    1       24.245 -21.711   9.241  0.00  0.00    +0.295 HD
ENDBRANCH  16  17
ENDBRANCH   4   7
BRANCH   1  19
ATOM     19  C   LIG    1       24.650 -25.738   5.083  0.00  0.00    +0.086 C 
BRANCH  19  20
ATOM     20  C   LIG    1       24.407 -26.769   6.191  0.00  0.00    +0.037 C 
BRANCH  20  21
ATOM     21  C   LIG    1       25.261 -28.022   6.021  0.00  0.00    +0.128 C 
BRANCH  21  23
ATOM     22  C   LIG    1       24.025 -30.046   6.829  0.00  0.00    +0.297 A 
ATOM     23  N   LIG    1       24.928 -29.036   7.000  0.00  0.00    -0.294 N 
ATOM     24  C   LIG    1       25.453 -29.170   8.265  0.00  0.00    +0.072 A 
ATOM     25  C   LIG    1       24.812 -30.302   8.775  0.00  0.00    +0.093 A 
ATOM     26  C   LIG    1       25.125 -30.742  10.071  0.00  0.00    +0.030 A 
ATOM     27  C   LIG    1       26.076 -30.032  10.815  0.00  0.00    +0.002 A 
ATOM     28  C   LIG    1       26.701 -28.903  10.283  0.00  0.00    +0.002 A 
ATOM     29  C   LIG    1       26.402 -28.444   8.994  0.00  0.00    +0.028 A 
ATOM     30  N   LIG    1       23.926 -30.828   7.867  0.00  0.00    -0.195 NA
BRANCH  22  31
ATOM     31  O   LIG    1       23.319 -30.243   5.734  0.00  0.00    -0.479 OA
ATOM     32  H   LIG    1       22.509 -29.741   5.943  0.00  0.00    +0.295 HD
ENDBRANCH  22  31
ENDBRANCH  21  23
ENDBRANCH  20  21
ENDBRANCH  19  20
ENDBRANCH   1  19
TORSDOF 7
ENDMDL
MODEL 6
REMARK VINA RESULT:      -9.0      3.097      9.366
REMARK  Name = *****
REMARK                            x       y       z     vdW  Elec       q    Type
REMARK                         _______ _______ _______ _____ _____    ______ ____
ROOT
ATOM      1  N   LIG    1       24.894 -25.683   6.142  0.00  0.00    -0.302 NA
ATOM      2  C   LIG    1       23.791 -24.835   5.672  0.00  0.00    +0.086 C 
ATOM      3  C   LIG    1       23.386 -23.750   6.667  0.00  0.00    +0.041 C 
ATOM      4  C   LIG    1       24.561 -22.905   7.196  0.00  0.00    +0.095 C 
ATOM      5  C   LIG    1       25.649 -23.881   7.671  0.00  0.00    +0.041 C 
ATOM      6  C   LIG    1       26.044 -24.872   6.575  0.00  0.00    +0.086 C 
ENDROOT
BRANCH   4   7
ATOM      7  N   LIG    1       24.986 -21.824   6.300  0.00  0.00    -0.291 N 
ATOM      8  C   LIG    1       26.230 -21.202   6.318  0.00  0.00    +0.072 A 
ATOM      9  C   LIG    1       26.172 -20.279   5.270  0.00  0.00    +0.094 A 
ATOM     10  C   LIG    1       27.258 -19.424   5.023  0.00  0.00    +0.050 A 
ATOM     11  C   LIG    1       28.383 -19.528   5.837  0.00  0.00    +0.043 A 
ATOM     12  C   LIG    1       28.449 -20.473   6.860  0.00  0.00    +0.022 A 
ATOM     13 CL   LIG    1       29.722 -18.479   5.566  0.00  0.00    -0.084 Cl
ATOM     14  N   LIG    1       24.995 -20.370   4.590  0.00  0.00    -0.195 NA
ATOM     15  C   LIG    1       27.379 -21.342   7.110  0.00  0.00    +0.029 A 
ATOM     16  C   LIG    1       24.336 -21.325   5.199  0.00  0.00    +0.297 A 
BRANCH  16  17
ATOM     17  O   LIG    1       23.179 -21.722   4.723  0.00  0.00    -0.479 OA
ATOM     18  H   LIG    1       23.286 -22.692   4.740  0.00  0.00    +0.295 HD
ENDBRANCH  16  17
ENDBRANCH   4   7
BRANCH   1  19
ATOM     19  C   LIG    1       25.334 -26.622   5.088  0.00  0.00    +0.086 C 
BRANCH  19  20
ATOM     20  C   LIG    1       25.864 -27.968   5.593  0.00  0.00    +0.037 C 
BRANCH  20  21
ATOM     21  C   LIG    1       25.293 -28.347   6.957  0.00  0.00    +0.128 C 
BRANCH  21  23
ATOM     22  C   LIG    1       23.830 -30.254   6.248  0.00  0.00    +0.297 A 
ATOM     23  N   LIG    1       24.849 -29.726   6.988  0.00  0.00    -0.294 N 
ATOM     24  C   LIG    1       25.366 -30.745   7.754  0.00  0.00    +0.072 A 
ATOM     25  C   LIG    1       24.599 -31.856   7.395  0.00  0.00    +0.093 A 
ATOM     26  C   LIG    1       24.868 -33.098   7.992  0.00  0.00    +0.030 A 
ATOM     27  C   LIG    1       25.904 -33.187   8.930  0.00  0.00    +0.002 A 
ATOM     28  C   LIG    1       26.655 -32.061   9.273  0.00  0.00    +0.002 A 
ATOM     29  C   LIG    1       26.402 -30.812   8.693  0.00  0.00    +0.028 A 
ATOM     30  N   LIG    1       23.647 -31.527   6.461  0.00  0.00    -0.195 NA
BRANCH  22  31
ATOM     31  O   LIG    1       23.095 -29.575   5.391  0.00  0.00    -0.479 OA
ATOM     32  H   LIG    1       23.171 -30.135   4.597  0.00  0.00    +0.295 HD
ENDBRANCH  22  31
ENDBRANCH  21  23
ENDBRANCH  20  21
ENDBRANCH  19  20
ENDBRANCH   1  19
TORSDOF 7
ENDMDL
MODEL 7
REMARK VINA RESULT:      -8.9      2.998      9.362
REMARK  Name = *****
REMARK                            x       y       z     vdW  Elec       q    Type
REMARK                         _______ _______ _______ _____ _____    ______ ____
ROOT
ATOM      1  N   LIG    1       25.025 -25.707   5.997  0.00  0.00    -0.302 NA
ATOM      2  C   LIG    1       23.845 -24.877   5.720  0.00  0.00    +0.086 C 
ATOM      3  C   LIG    1       23.533 -23.869   6.824  0.00  0.00    +0.041 C 
ATOM      4  C   LIG    1       24.738 -23.009   7.254  0.00  0.00    +0.095 C 
ATOM      5  C   LIG    1       25.908 -23.967   7.529  0.00  0.00    +0.041 C 
ATOM      6  C   LIG    1       26.194 -24.876   6.332  0.00  0.00    +0.086 C 
ENDROOT
BRANCH   4   7
ATOM      7  N   LIG    1       25.010 -21.862   6.381  0.00  0.00    -0.291 N 
ATOM      8  C   LIG    1       24.048 -21.050   5.789  0.00  0.00    +0.072 A 
ATOM      9  C   LIG    1       24.785 -20.088   5.094  0.00  0.00    +0.094 A 
ATOM     10  C   LIG    1       24.127 -19.116   4.324  0.00  0.00    +0.050 A 
ATOM     11  C   LIG    1       22.734 -19.135   4.282  0.00  0.00    +0.043 A 
ATOM     12  C   LIG    1       22.003 -20.077   5.003  0.00  0.00    +0.022 A 
ATOM     13 CL   LIG    1       21.902 -17.964   3.331  0.00  0.00    -0.084 Cl
ATOM     14  N   LIG    1       26.124 -20.240   5.300  0.00  0.00    -0.195 NA
ATOM     15  C   LIG    1       22.646 -21.044   5.787  0.00  0.00    +0.029 A 
ATOM     16  C   LIG    1       26.218 -21.272   6.103  0.00  0.00    +0.297 A 
BRANCH  16  17
ATOM     17  O   LIG    1       27.392 -21.628   6.568  0.00  0.00    -0.479 OA
ATOM     18  H   LIG    1       27.141 -22.111   7.377  0.00  0.00    +0.295 HD
ENDBRANCH  16  17
ENDBRANCH   4   7
BRANCH   1  19
ATOM     19  C   LIG    1       25.359 -26.565   4.839  0.00  0.00    +0.086 C 
BRANCH  19  20
ATOM     20  C   LIG    1       25.431 -28.066   5.140  0.00  0.00    +0.037 C 
BRANCH  20  21
ATOM     21  C   LIG    1       24.214 -28.567   5.913  0.00  0.00    +0.128 C 
BRANCH  21  23
ATOM     22  C   LIG    1       24.154 -30.925   6.756  0.00  0.00    +0.297 A 
ATOM     23  N   LIG    1       24.563 -29.625   6.837  0.00  0.00    -0.294 N 
ATOM     24  C   LIG    1       25.365 -29.521   7.951  0.00  0.00    +0.072 A 
ATOM     25  C   LIG    1       25.389 -30.818   8.469  0.00  0.00    +0.093 A 
ATOM     26  C   LIG    1       26.138 -31.081   9.627  0.00  0.00    +0.030 A 
ATOM     27  C   LIG    1       26.844 -30.031  10.228  0.00  0.00    +0.002 A 
ATOM     28  C   LIG    1       26.802 -28.743   9.691  0.00  0.00    +0.002 A 
ATOM     29  C   LIG    1       26.059 -28.458   8.540  0.00  0.00    +0.028 A 
ATOM     30  N   LIG    1       24.626 -31.675   7.713  0.00  0.00    -0.195 NA
BRANCH  22  31
ATOM     31  O   LIG    1       23.369 -31.407   5.813  0.00  0.00    -0.479 OA
ATOM     32  H   LIG    1       22.520 -31.459   6.287  0.00  0.00    +0.295 HD
ENDBRANCH  22  31
ENDBRANCH  21  23
ENDBRANCH  20  21
ENDBRANCH  19  20
ENDBRANCH   1  19
TORSDOF 7
ENDMDL
MODEL 8
REMARK VINA RESULT:      -8.8      4.799      7.325
REMARK  Name = *****
REMARK                            x       y       z     vdW  Elec       q    Type
REMARK                         _______ _______ _______ _____ _____    ______ ____
ROOT
ATOM      1  N   LIG    1       28.152 -20.325   6.863  0.00  0.00    -0.302 NA
ATOM      2  C   LIG    1       28.195 -21.731   7.284  0.00  0.00    +0.086 C 
ATOM      3  C   LIG    1       26.921 -22.199   7.984  0.00  0.00    +0.041 C 
ATOM      4  C   LIG    1       25.624 -21.881   7.215  0.00  0.00    +0.095 C 
ATOM      5  C   LIG    1       25.672 -20.393   6.832  0.00  0.00    +0.041 C 
ATOM      6  C   LIG    1       26.947 -20.044   6.063  0.00  0.00    +0.086 C 
ENDROOT
BRANCH   4   7
ATOM      7  N   LIG    1       25.301 -22.831   6.146  0.00  0.00    -0.291 N 
ATOM      8  C   LIG    1       25.423 -24.215   6.229  0.00  0.00    +0.072 A 
ATOM      9  C   LIG    1       24.966 -24.680   4.993  0.00  0.00    +0.094 A 
ATOM     10  C   LIG    1       24.996 -26.052   4.701  0.00  0.00    +0.050 A 
ATOM     11  C   LIG    1       25.479 -26.927   5.672  0.00  0.00    +0.043 A 
ATOM     12  C   LIG    1       25.903 -26.461   6.916  0.00  0.00    +0.022 A 
ATOM     13 CL   LIG    1       25.542 -28.614   5.333  0.00  0.00    -0.084 Cl
ATOM     14  N   LIG    1       24.514 -23.658   4.212  0.00  0.00    -0.195 NA
ATOM     15  C   LIG    1       25.866 -25.096   7.226  0.00  0.00    +0.029 A 
ATOM     16  C   LIG    1       24.685 -22.584   4.944  0.00  0.00    +0.297 A 
BRANCH  16  17
ATOM     17  O   LIG    1       24.259 -21.423   4.504  0.00  0.00    -0.479 OA
ATOM     18  H   LIG    1       23.334 -21.631   4.275  0.00  0.00    +0.295 HD
ENDBRANCH  16  17
ENDBRANCH   4   7
BRANCH   1  19
ATOM     19  C   LIG    1       29.349 -19.966   6.073  0.00  0.00    +0.086 C 
BRANCH  19  20
ATOM     20  C   LIG    1       30.042 -18.664   6.494  0.00  0.00    +0.037 C 
BRANCH  20  21
ATOM     21  C   LIG    1       31.398 -18.910   7.151  0.00  0.00    +0.128 C 
BRANCH  21  23
ATOM     22  C   LIG    1       30.812 -19.549   9.501  0.00  0.00    +0.297 A 
ATOM     23  N   LIG    1       31.348 -18.693   8.582  0.00  0.00    -0.294 N 
ATOM     24  C   LIG    1       31.828 -17.604   9.271  0.00  0.00    +0.072 A 
ATOM     25  C   LIG    1       31.546 -17.902  10.607  0.00  0.00    +0.093 A 
ATOM     26  C   LIG    1       31.917 -16.990  11.607  0.00  0.00    +0.030 A 
ATOM     27  C   LIG    1       32.565 -15.805  11.235  0.00  0.00    +0.002 A 
ATOM     28  C   LIG    1       32.834 -15.530   9.893  0.00  0.00    +0.002 A 
ATOM     29  C   LIG    1       32.470 -16.423   8.879  0.00  0.00    +0.028 A 
ATOM     30  N   LIG    1       30.910 -19.114  10.727  0.00  0.00    -0.195 NA
BRANCH  22  31
ATOM     31  O   LIG    1       30.254 -20.707   9.212  0.00  0.00    -0.479 OA
ATOM     32  H   LIG    1       29.387 -20.416   8.875  0.00  0.00    +0.295 HD
ENDBRANCH  22  31
ENDBRANCH  21  23
ENDBRANCH  20  21
ENDBRANCH  19  20
ENDBRANCH   1  19
TORSDOF 7
ENDMDL
MODEL 9
REMARK VINA RESULT:      -8.7      1.802      2.356
REMARK  Name = *****
REMARK                            x       y       z     vdW  Elec       q    Type
REMARK                         _______ _______ _______ _____ _____    ______ ____
ROOT
ATOM      1  N   LIG    1       25.103 -25.097   5.807  0.00  0.00    -0.302 NA
ATOM      2  C   LIG    1       23.998 -26.054   5.675  0.00  0.00    +0.086 C 
ATOM      3  C   LIG    1       24.402 -27.368   5.010  0.00  0.00    +0.041 C 
ATOM      4  C   LIG    1       25.650 -28.031   5.624  0.00  0.00    +0.095 C 
ATOM      5  C   LIG    1       26.745 -26.954   5.708  0.00  0.00    +0.041 C 
ATOM      6  C   LIG    1       26.268 -25.714   6.465  0.00  0.00    +0.086 C 
ENDROOT
BRANCH   4   7
ATOM      7  N   LIG    1       25.392 -28.809   6.840  0.00  0.00    -0.291 N 
ATOM      8  C   LIG    1       24.741 -30.038   6.889  0.00  0.00    +0.072 A 
ATOM      9  C   LIG    1       24.770 -30.392   8.241  0.00  0.00    +0.094 A 
ATOM     10  C   LIG    1       24.149 -31.574   8.674  0.00  0.00    +0.050 A 
ATOM     11  C   LIG    1       23.518 -32.377   7.726  0.00  0.00    +0.043 A 
ATOM     12  C   LIG    1       23.520 -32.036   6.374  0.00  0.00    +0.022 A 
ATOM     13 CL   LIG    1       22.733 -33.824   8.233  0.00  0.00    -0.084 Cl
ATOM     14  N   LIG    1       25.463 -29.481   8.981  0.00  0.00    -0.195 NA
ATOM     15  C   LIG    1       24.148 -30.867   5.926  0.00  0.00    +0.029 A 
ATOM     16  C   LIG    1       25.855 -28.581   8.112  0.00  0.00    +0.297 A 
BRANCH  16  17
ATOM     17  O   LIG    1       26.632 -27.598   8.500  0.00  0.00    -0.479 OA
ATOM     18  H   LIG    1       27.484 -28.059   8.614  0.00  0.00    +0.295 HD
ENDBRANCH  16  17
ENDBRANCH   4   7
BRANCH   1  19
ATOM     19  C   LIG    1       24.690 -23.905   6.579  0.00  0.00    +0.086 C 
BRANCH  19  20
ATOM     20  C   LIG    1       25.794 -23.259   7.423  0.00  0.00    +0.037 C 
BRANCH  20  21
ATOM     21  C   LIG    1       25.516 -21.789   7.725  0.00  0.00    +0.128 C 
BRANCH  21  23
ATOM     22  C   LIG    1       26.721 -20.610   5.873  0.00  0.00    +0.297 A 
ATOM     23  N   LIG    1       25.581 -20.974   6.530  0.00  0.00    -0.294 N 
ATOM     24  C   LIG    1       24.522 -20.427   5.842  0.00  0.00    +0.072 A 
ATOM     25  C   LIG    1       25.127 -19.759   4.774  0.00  0.00    +0.093 A 
ATOM     26  C   LIG    1       24.322 -19.083   3.844  0.00  0.00    +0.030 A 
ATOM     27  C   LIG    1       22.931 -19.100   4.014  0.00  0.00    +0.002 A 
ATOM     28  C   LIG    1       22.352 -19.773   5.091  0.00  0.00    +0.002 A 
ATOM     29  C   LIG    1       23.136 -20.452   6.032  0.00  0.00    +0.028 A 
ATOM     30  N   LIG    1       26.494 -19.882   4.814  0.00  0.00    -0.195 NA
BRANCH  22  31
ATOM     31  O   LIG    1       27.940 -20.950   6.239  0.00  0.00    -0.479 OA
ATOM     32  H   LIG    1       28.431 -20.134   6.033  0.00  0.00    +0.295 HD
ENDBRANCH  22  31
ENDBRANCH  21  23
ENDBRANCH  20  21
ENDBRANCH  19  20
ENDBRANCH   1  19
TORSDOF 7
ENDMDL
