MODEL 1
REMARK VINA RESULT:      -1.9      0.000      0.000
REMARK  Name = *****
REMARK                            x       y       z     vdW  Elec       q    Type
REMARK                         _______ _______ _______ _____ _____    ______ ____
ROOT
ATOM      1  C   LIG    1       22.710 -19.024   6.436  0.00  0.00    +0.105 C 
ATOM      2  N   LIG    1       23.537 -19.896   5.520  0.00  0.00    -0.302 NA
ATOM      3  C   LIG    1       23.858 -21.093   6.417  0.00  0.00    +0.065 C 
ATOM      4  C   LIG    1       23.660 -21.572   5.098  0.00  0.00    +0.021 C 
ATOM      5  C   LIG    1       25.161 -20.522   4.493  0.00  0.00    +0.049 C 
ATOM      6  C   LIG    1       25.035 -18.665   4.507  0.00  0.00    +0.250 C 
ATOM      7  O   LIG    1       26.387 -18.378   4.041  0.00  0.00    -0.476 OA
ATOM      8  C   LIG    1       27.141 -19.324   4.771  0.00  0.00    +0.167 A 
ATOM      9  C   LIG    1       28.392 -19.124   5.297  0.00  0.00    +0.159 A 
ATOM     10  C   LIG    1       28.752 -19.895   6.408  0.00  0.00    +0.049 A 
ATOM     11  C   LIG    1       27.801 -20.750   7.032  0.00  0.00    +0.008 A 
ATOM     12  C   LIG    1       26.553 -20.947   6.443  0.00  0.00    -0.038 A 
ATOM     13  C   LIG    1       23.342 -17.985   4.063  0.00  0.00    +0.174 C 
ATOM     14  O   LIG    1       23.214 -16.816   3.688  0.00  0.00    -0.293 OA
ATOM     15  C   LIG    1       21.846 -19.130   4.068  0.00  0.00    +0.078 C 
ATOM     16  C   LIG    1       26.408 -20.425   5.194  0.00  0.00    +0.012 A 
ATOM     17  C   LIG    1       25.037 -20.826   3.119  0.00  0.00    +0.031 C 
ATOM     18  C   LIG    1       21.886 -20.933   4.637  0.00  0.00    +0.014 C 
ATOM     19  C   LIG    1       25.281 -21.508   7.054  0.00  0.00    +0.054 C 
ATOM     20  C   LIG    1       23.713 -20.228   3.564  0.00  0.00    +0.085 C 
ENDROOT
BRANCH   9  21
ATOM     21  O   LIG    1       29.251 -18.203   4.792  0.00  0.00    -0.503 OA
ATOM     22  H   LIG    1       30.144 -18.487   5.067  0.00  0.00    +0.292 HD
ENDBRANCH   9  21
TORSDOF 1
ENDMDL
MODEL 2
REMARK VINA RESULT:      -1.5      1.050      1.245
REMARK  Name = *****
REMARK                            x       y       z     vdW  Elec       q    Type
REMARK                         _______ _______ _______ _____ _____    ______ ____
ROOT
ATOM      1  C   LIG    1       22.943 -19.694   6.648  0.00  0.00    +0.105 C 
ATOM      2  N   LIG    1       23.742 -20.107   5.434  0.00  0.00    -0.302 NA
ATOM      3  C   LIG    1       24.655 -21.194   6.003  0.00  0.00    +0.065 C 
ATOM      4  C   LIG    1       24.289 -21.572   4.686  0.00  0.00    +0.021 C 
ATOM      5  C   LIG    1       25.157 -19.994   3.996  0.00  0.00    +0.049 C 
ATOM      6  C   LIG    1       24.441 -18.320   4.385  0.00  0.00    +0.250 C 
ATOM      7  O   LIG    1       25.458 -17.516   3.714  0.00  0.00    -0.476 OA
ATOM      8  C   LIG    1       26.641 -18.197   4.081  0.00  0.00    +0.167 A 
ATOM      9  C   LIG    1       27.849 -17.616   4.368  0.00  0.00    +0.159 A 
ATOM     10  C   LIG    1       28.714 -18.317   5.215  0.00  0.00    +0.049 A 
ATOM     11  C   LIG    1       28.289 -19.517   5.848  0.00  0.00    +0.008 A 
ATOM     12  C   LIG    1       27.065 -20.088   5.501  0.00  0.00    -0.038 A 
ATOM     13  C   LIG    1       22.566 -18.254   4.435  0.00  0.00    +0.174 C 
ATOM     14  O   LIG    1       21.972 -17.178   4.322  0.00  0.00    -0.293 OA
ATOM     15  C   LIG    1       21.579 -19.856   4.531  0.00  0.00    +0.078 C 
ATOM     16  C   LIG    1       26.441 -19.527   4.430  0.00  0.00    +0.012 A 
ATOM     17  C   LIG    1       24.788 -20.176   2.643  0.00  0.00    +0.031 C 
ATOM     18  C   LIG    1       22.349 -21.572   4.729  0.00  0.00    +0.014 C 
ATOM     19  C   LIG    1       26.249 -21.133   6.243  0.00  0.00    +0.054 C 
ATOM     20  C   LIG    1       23.504 -20.146   3.456  0.00  0.00    +0.085 C 
ENDROOT
BRANCH   9  21
ATOM     21  O   LIG    1       28.200 -16.399   3.879  0.00  0.00    -0.503 OA
ATOM     22  H   LIG    1       28.639 -15.930   4.614  0.00  0.00    +0.292 HD
ENDBRANCH   9  21
TORSDOF 1
ENDMDL
