MODEL 1
REMARK VINA RESULT:      -0.4      0.000      0.000
REMARK  Name = *****
REMARK                            x       y       z     vdW  Elec       q    Type
REMARK                         _______ _______ _______ _____ _____    ______ ____
ROOT
ATOM      1  C   LIG    1       24.782 -17.731   3.407  0.00  0.00    +0.138 C 
ATOM      2  N   LIG    1       23.594 -17.151   3.834  0.00  0.00    -0.263 N 
ATOM      3  C   LIG    1       23.542 -15.802   4.229  0.00  0.00    +0.269 C 
ATOM      4  O   LIG    1       22.535 -15.231   4.635  0.00  0.00    -0.267 OA
ATOM      5  C   LIG    1       24.796 -15.038   4.106  0.00  0.00    +0.100 A 
ATOM      6  C   LIG    1       25.919 -15.712   3.642  0.00  0.00    +0.081 A 
ATOM      7  C   LIG    1       27.131 -15.022   3.519  0.00  0.00    +0.029 A 
ATOM      8  C   LIG    1       27.221 -13.668   3.845  0.00  0.00    +0.005 A 
ATOM      9  C   LIG    1       26.089 -12.996   4.297  0.00  0.00    +0.039 A 
ATOM     10  C   LIG    1       24.882 -13.682   4.426  0.00  0.00    +0.138 A 
ATOM     11  F   LIG    1       23.820 -12.993   4.866  0.00  0.00    -0.205 F 
ATOM     12  N   LIG    1       25.898 -17.066   3.309  0.00  0.00    -0.231 NA
ENDROOT
BRANCH   2  13
ATOM     13  C   LIG    1       22.361 -17.870   3.850  0.00  0.00    +0.051 A 
ATOM     14  C   LIG    1       22.109 -18.828   4.842  0.00  0.00    +0.026 A 
ATOM     15  C   LIG    1       20.918 -19.557   4.830  0.00  0.00    +0.002 A 
ATOM     16  C   LIG    1       19.973 -19.336   3.830  0.00  0.00    +0.000 A 
ATOM     17  C   LIG    1       20.212 -18.381   2.843  0.00  0.00    +0.002 A 
ATOM     18  C   LIG    1       21.405 -17.656   2.848  0.00  0.00    +0.026 A 
ENDBRANCH   2  13
BRANCH   1  19
ATOM     19  C   LIG    1       24.852 -19.257   3.105  0.00  0.00    +0.138 C 
BRANCH  19  21
ATOM     20  C   LIG    1       23.556 -21.416   3.564  0.00  0.00    +0.006 C 
ATOM     21  C   LIG    1       23.929 -20.026   4.072  0.00  0.00    +0.027 C 
ENDBRANCH  19  21
BRANCH  19  22
ATOM     22  N   LIG    1       26.246 -19.668   3.307  0.00  0.00    -0.317 N 
ATOM     23  H   LIG    1       26.942 -19.136   2.788  0.00  0.00    +0.148 HD
BRANCH  22  24
ATOM     24  C   LIG    1       26.674 -20.087   4.556  0.00  0.00    +0.150 A 
ATOM     25  C   LIG    1       27.784 -19.509   5.207  0.00  0.00    +0.147 A 
ATOM     26  C   LIG    1       28.157 -20.065   6.420  0.00  0.00    +0.163 A 
ATOM     27  N   LIG    1       29.238 -19.343   6.832  0.00  0.00    -0.329 N 
ATOM     28  H   LIG    1       29.754 -19.502   7.685  0.00  0.00    +0.168 HD
ATOM     29  C   LIG    1       29.475 -18.381   5.888  0.00  0.00    +0.198 A 
ATOM     30  N   LIG    1       27.590 -21.095   7.062  0.00  0.00    -0.216 NA
ATOM     31  C   LIG    1       26.539 -21.563   6.362  0.00  0.00    +0.225 A 
ATOM     32  N   LIG    1       28.622 -18.454   4.887  0.00  0.00    -0.231 NA
ATOM     33  N   LIG    1       26.055 -21.127   5.178  0.00  0.00    -0.219 NA
ENDBRANCH  22  24
ENDBRANCH  19  22
ENDBRANCH   1  19
TORSDOF 5
ENDMDL
MODEL 2
REMARK VINA RESULT:       1.4      2.632      6.697
REMARK  Name = *****
REMARK                            x       y       z     vdW  Elec       q    Type
REMARK                         _______ _______ _______ _____ _____    ______ ____
ROOT
ATOM      1  C   LIG    1       25.586 -18.666   4.074  0.00  0.00    +0.138 C 
ATOM      2  N   LIG    1       25.663 -19.682   5.018  0.00  0.00    -0.263 N 
ATOM      3  C   LIG    1       24.510 -20.361   5.454  0.00  0.00    +0.269 C 
ATOM      4  O   LIG    1       24.500 -21.251   6.297  0.00  0.00    -0.267 OA
ATOM      5  C   LIG    1       23.242 -19.972   4.811  0.00  0.00    +0.100 A 
ATOM      6  C   LIG    1       23.286 -18.959   3.859  0.00  0.00    +0.081 A 
ATOM      7  C   LIG    1       22.101 -18.557   3.231  0.00  0.00    +0.029 A 
ATOM      8  C   LIG    1       20.884 -19.165   3.542  0.00  0.00    +0.005 A 
ATOM      9  C   LIG    1       20.849 -20.186   4.487  0.00  0.00    +0.039 A 
ATOM     10  C   LIG    1       22.027 -20.585   5.118  0.00  0.00    +0.138 A 
ATOM     11  F   LIG    1       21.943 -21.571   6.021  0.00  0.00    -0.205 F 
ATOM     12  N   LIG    1       24.467 -18.306   3.511  0.00  0.00    -0.231 NA
ENDROOT
BRANCH   2  13
ATOM     13  C   LIG    1       26.907 -20.124   5.558  0.00  0.00    +0.051 A 
ATOM     14  C   LIG    1       28.117 -19.609   5.073  0.00  0.00    +0.026 A 
ATOM     15  C   LIG    1       29.333 -20.073   5.578  0.00  0.00    +0.002 A 
ATOM     16  C   LIG    1       29.351 -21.054   6.568  0.00  0.00    +0.000 A 
ATOM     17  C   LIG    1       28.153 -21.568   7.061  0.00  0.00    +0.002 A 
ATOM     18  C   LIG    1       26.935 -21.111   6.553  0.00  0.00    +0.026 A 
ENDBRANCH   2  13
BRANCH   1  19
ATOM     19  C   LIG    1       26.850 -17.834   3.705  0.00  0.00    +0.138 C 
BRANCH  19  21
ATOM     20  C   LIG    1       29.037 -17.419   4.968  0.00  0.00    +0.006 C 
ATOM     21  C   LIG    1       27.516 -17.295   4.988  0.00  0.00    +0.027 C 
ENDBRANCH  19  21
BRANCH  19  22
ATOM     22  N   LIG    1       26.396 -16.718   2.867  0.00  0.00    -0.317 N 
ATOM     23  H   LIG    1       25.566 -16.898   2.306  0.00  0.00    +0.148 HD
BRANCH  22  24
ATOM     24  C   LIG    1       26.493 -15.416   3.329  0.00  0.00    +0.150 A 
ATOM     25  C   LIG    1       25.375 -14.700   3.808  0.00  0.00    +0.147 A 
ATOM     26  C   LIG    1       25.589 -13.381   4.175  0.00  0.00    +0.163 A 
ATOM     27  N   LIG    1       24.374 -12.920   4.589  0.00  0.00    -0.329 N 
ATOM     28  H   LIG    1       24.187 -11.984   4.917  0.00  0.00    +0.168 HD
ATOM     29  C   LIG    1       23.483 -13.953   4.482  0.00  0.00    +0.198 A 
ATOM     30  N   LIG    1       26.735 -12.689   4.132  0.00  0.00    -0.216 NA
ATOM     31  C   LIG    1       27.735 -13.467   3.673  0.00  0.00    +0.225 A 
ATOM     32  N   LIG    1       24.049 -15.043   4.005  0.00  0.00    -0.231 NA
ATOM     33  N   LIG    1       27.684 -14.760   3.284  0.00  0.00    -0.219 NA
ENDBRANCH  22  24
ENDBRANCH  19  22
ENDBRANCH   1  19
TORSDOF 5
ENDMDL
