MODEL 1
REMARK VINA RESULT:      -9.4      0.000      0.000
REMARK  Name = *****
REMARK                            x       y       z     vdW  Elec       q    Type
REMARK                         _______ _______ _______ _____ _____    ______ ____
ROOT
ATOM      1  C   LIG    1       26.850 -20.590   7.097  0.00  0.00    -0.021 C 
ATOM      2  C   LIG    1       25.790 -21.048   6.382  0.00  0.00    -0.035 C 
ATOM      3  C   LIG    1       25.067 -22.337   6.744  0.00  0.00    +0.059 C 
ATOM      4  C   LIG    1       23.536 -22.209   6.934  0.00  0.00    +0.085 C 
ATOM      5  C   LIG    1       22.923 -23.589   7.106  0.00  0.00    -0.011 C 
ATOM      6  C   LIG    1       23.490 -24.690   6.602  0.00  0.00    +0.009 C 
ATOM      7  C   LIG    1       24.723 -24.627   5.814  0.00  0.00    +0.051 C 
ATOM      8  S   LIG    1       22.637 -21.410   5.566  0.00  0.00    -0.116 S 
ATOM      9  C   LIG    1       23.875 -20.336   4.859  0.00  0.00    +0.016 A 
ATOM     10  C   LIG    1       23.403 -19.534   3.801  0.00  0.00    +0.015 A 
ATOM     11  C   LIG    1       24.247 -18.663   3.117  0.00  0.00    +0.001 A 
ATOM     12  C   LIG    1       25.585 -18.597   3.472  0.00  0.00    +0.001 A 
ATOM     13  C   LIG    1       26.067 -19.387   4.518  0.00  0.00    +0.009 A 
ATOM     14  C   LIG    1       25.464 -23.503   5.860  0.00  0.00    -0.005 C 
ATOM     15  C   LIG    1       25.225 -20.252   5.254  0.00  0.00    -0.008 A 
ENDROOT
BRANCH   7  16
ATOM     16  C   LIG    1       25.154 -25.845   5.033  0.00  0.00    +0.417 C 
ATOM     17  F   LIG    1       26.362 -26.301   5.461  0.00  0.00    -0.166 F 
ATOM     18  F   LIG    1       25.286 -25.578   3.709  0.00  0.00    -0.166 F 
ATOM     19  F   LIG    1       24.290 -26.887   5.140  0.00  0.00    -0.166 F 
ENDBRANCH   7  16
BRANCH   1  20
ATOM     20  C   LIG    1       27.446 -21.251   8.317  0.00  0.00    +0.043 C 
BRANCH  20  21
ATOM     21  C   LIG    1       28.979 -21.128   8.483  0.00  0.00    +0.088 C 
BRANCH  21  25
ATOM     22  N   LIG    1       31.788 -18.691   9.559  0.00  0.00    -0.298 NA
ATOM     23  C   LIG    1       30.373 -18.593   9.992  0.00  0.00    +0.100 C 
ATOM     24  C   LIG    1       29.302 -18.720   8.874  0.00  0.00    +0.100 C 
ATOM     25  N   LIG    1       29.481 -19.850   7.934  0.00  0.00    -0.300 NA
ATOM     26  C   LIG    1       30.896 -19.903   7.513  0.00  0.00    +0.100 C 
ATOM     27  C   LIG    1       31.916 -19.860   8.671  0.00  0.00    +0.100 C 
BRANCH  22  28
ATOM     28  C   LIG    1       32.270 -17.436   8.946  0.00  0.00    +0.112 C 
BRANCH  28  29
ATOM     29  C   LIG    1       32.533 -16.304   9.964  0.00  0.00    +0.171 C 
BRANCH  29  30
ATOM     30  O   LIG    1       33.025 -15.135   9.310  0.00  0.00    -0.394 OA
ATOM     31  H   LIG    1       32.258 -14.551   9.176  0.00  0.00    +0.209 HD
ENDBRANCH  29  30
ENDBRANCH  28  29
ENDBRANCH  22  28
ENDBRANCH  21  25
ENDBRANCH  20  21
ENDBRANCH   1  20
TORSDOF 7
ENDMDL
MODEL 2
REMARK VINA RESULT:      -8.2      1.358      1.763
REMARK  Name = *****
REMARK                            x       y       z     vdW  Elec       q    Type
REMARK                         _______ _______ _______ _____ _____    ______ ____
ROOT
ATOM      1  C   LIG    1       27.252 -19.701   5.149  0.00  0.00    -0.021 C 
ATOM      2  C   LIG    1       26.119 -20.339   5.540  0.00  0.00    -0.035 C 
ATOM      3  C   LIG    1       26.143 -21.506   6.516  0.00  0.00    +0.059 C 
ATOM      4  C   LIG    1       25.227 -21.356   7.755  0.00  0.00    +0.085 C 
ATOM      5  C   LIG    1       25.207 -22.657   8.539  0.00  0.00    -0.011 C 
ATOM      6  C   LIG    1       25.442 -23.841   7.964  0.00  0.00    +0.009 C 
ATOM      7  C   LIG    1       25.693 -23.960   6.526  0.00  0.00    +0.051 C 
ATOM      8  S   LIG    1       23.489 -20.937   7.401  0.00  0.00    -0.116 S 
ATOM      9  C   LIG    1       23.605 -20.058   5.853  0.00  0.00    +0.016 A 
ATOM     10  C   LIG    1       22.375 -19.553   5.385  0.00  0.00    +0.015 A 
ATOM     11  C   LIG    1       22.284 -18.870   4.175  0.00  0.00    +0.001 A 
ATOM     12  C   LIG    1       23.423 -18.697   3.406  0.00  0.00    +0.001 A 
ATOM     13  C   LIG    1       24.648 -19.194   3.856  0.00  0.00    +0.009 A 
ATOM     14  C   LIG    1       26.005 -22.850   5.829  0.00  0.00    -0.005 C 
ATOM     15  C   LIG    1       24.778 -19.858   5.096  0.00  0.00    -0.008 A 
ENDROOT
BRANCH   7  16
ATOM     16  C   LIG    1       25.662 -25.329   5.889  0.00  0.00    +0.417 C 
ATOM     17  F   LIG    1       25.452 -25.242   4.548  0.00  0.00    -0.166 F 
ATOM     18  F   LIG    1       24.664 -26.099   6.391  0.00  0.00    -0.166 F 
ATOM     19  F   LIG    1       26.816 -26.025   6.053  0.00  0.00    -0.166 F 
ENDBRANCH   7  16
BRANCH   1  20
ATOM     20  C   LIG    1       28.654 -20.027   5.609  0.00  0.00    +0.043 C 
BRANCH  20  21
ATOM     21  C   LIG    1       28.989 -19.684   7.080  0.00  0.00    +0.088 C 
BRANCH  21  25
ATOM     22  N   LIG    1       31.296 -18.544   9.972  0.00  0.00    -0.298 NA
ATOM     23  C   LIG    1       30.020 -17.886   9.600  0.00  0.00    +0.100 C 
ATOM     24  C   LIG    1       29.813 -17.596   8.088  0.00  0.00    +0.100 C 
ATOM     25  N   LIG    1       30.106 -18.719   7.169  0.00  0.00    -0.300 NA
ATOM     26  C   LIG    1       31.390 -19.336   7.561  0.00  0.00    +0.100 C 
ATOM     27  C   LIG    1       31.508 -19.683   9.060  0.00  0.00    +0.100 C 
BRANCH  22  28
ATOM     28  C   LIG    1       32.427 -17.593   9.993  0.00  0.00    +0.112 C 
BRANCH  28  29
ATOM     29  C   LIG    1       32.002 -16.113   9.867  0.00  0.00    +0.171 C 
BRANCH  29  30
ATOM     30  O   LIG    1       32.981 -15.362   9.152  0.00  0.00    -0.394 OA
ATOM     31  H   LIG    1       33.108 -14.533   9.647  0.00  0.00    +0.209 HD
ENDBRANCH  29  30
ENDBRANCH  28  29
ENDBRANCH  22  28
ENDBRANCH  21  25
ENDBRANCH  20  21
ENDBRANCH   1  20
TORSDOF 7
ENDMDL
MODEL 3
REMARK VINA RESULT:      -7.5      6.070      9.488
REMARK  Name = *****
REMARK                            x       y       z     vdW  Elec       q    Type
REMARK                         _______ _______ _______ _____ _____    ______ ____
ROOT
ATOM      1  C   LIG    1       24.764 -28.599   5.917  0.00  0.00    -0.021 C 
ATOM      2  C   LIG    1       24.866 -29.619   6.807  0.00  0.00    -0.035 C 
ATOM      3  C   LIG    1       24.617 -29.422   8.295  0.00  0.00    +0.059 C 
ATOM      4  C   LIG    1       23.573 -30.374   8.927  0.00  0.00    +0.085 C 
ATOM      5  C   LIG    1       23.561 -30.195  10.436  0.00  0.00    -0.011 C 
ATOM      6  C   LIG    1       24.629 -29.759  11.111  0.00  0.00    +0.009 C 
ATOM      7  C   LIG    1       25.895 -29.464  10.438  0.00  0.00    +0.051 C 
ATOM      8  S   LIG    1       23.838 -32.151   8.618  0.00  0.00    -0.116 S 
ATOM      9  C   LIG    1       24.708 -32.151   7.060  0.00  0.00    +0.016 A 
ATOM     10  C   LIG    1       24.977 -33.437   6.552  0.00  0.00    +0.015 A 
ATOM     11  C   LIG    1       25.676 -33.617   5.362  0.00  0.00    +0.001 A 
ATOM     12  C   LIG    1       26.134 -32.508   4.670  0.00  0.00    +0.001 A 
ATOM     13  C   LIG    1       25.876 -31.226   5.162  0.00  0.00    +0.009 A 
ATOM     14  C   LIG    1       25.900 -29.326   9.098  0.00  0.00    -0.005 C 
ATOM     15  C   LIG    1       25.137 -31.012   6.347  0.00  0.00    -0.008 A 
ENDROOT
BRANCH   7  16
ATOM     16  C   LIG    1       27.137 -29.259  11.273  0.00  0.00    +0.417 C 
ATOM     17  F   LIG    1       27.471 -27.943  11.341  0.00  0.00    -0.166 F 
ATOM     18  F   LIG    1       28.210 -29.907  10.753  0.00  0.00    -0.166 F 
ATOM     19  F   LIG    1       27.000 -29.688  12.554  0.00  0.00    -0.166 F 
ENDBRANCH   7  16
BRANCH   1  20
ATOM     20  C   LIG    1       24.394 -27.172   6.247  0.00  0.00    +0.043 C 
BRANCH  20  21
ATOM     21  C   LIG    1       25.561 -26.237   6.648  0.00  0.00    +0.088 C 
BRANCH  21  25
ATOM     22  N   LIG    1       24.220 -22.674   7.348  0.00  0.00    -0.298 NA
ATOM     23  C   LIG    1       23.444 -23.753   6.690  0.00  0.00    +0.100 C 
ATOM     24  C   LIG    1       24.170 -24.526   5.554  0.00  0.00    +0.100 C 
ATOM     25  N   LIG    1       25.544 -24.985   5.861  0.00  0.00    -0.300 NA
ATOM     26  C   LIG    1       26.288 -23.878   6.497  0.00  0.00    +0.100 C 
ATOM     27  C   LIG    1       25.556 -23.202   7.676  0.00  0.00    +0.100 C 
BRANCH  22  28
ATOM     28  C   LIG    1       24.263 -21.443   6.530  0.00  0.00    +0.112 C 
BRANCH  28  29
ATOM     29  C   LIG    1       22.896 -21.040   5.934  0.00  0.00    +0.171 C 
BRANCH  29  30
ATOM     30  O   LIG    1       22.887 -21.213   4.518  0.00  0.00    -0.394 OA
ATOM     31  H   LIG    1       23.781 -20.985   4.207  0.00  0.00    +0.209 HD
ENDBRANCH  29  30
ENDBRANCH  28  29
ENDBRANCH  22  28
ENDBRANCH  21  25
ENDBRANCH  20  21
ENDBRANCH   1  20
TORSDOF 7
ENDMDL
MODEL 4
REMARK VINA RESULT:      -6.7     10.839     12.910
REMARK  Name = *****
REMARK                            x       y       z     vdW  Elec       q    Type
REMARK                         _______ _______ _______ _____ _____    ______ ____
ROOT
ATOM      1  C   LIG    1       25.080 -30.148   9.677  0.00  0.00    -0.021 C 
ATOM      2  C   LIG    1       25.019 -29.964  11.021  0.00  0.00    -0.035 C 
ATOM      3  C   LIG    1       23.699 -29.958  11.777  0.00  0.00    +0.059 C 
ATOM      4  C   LIG    1       23.612 -30.941  12.971  0.00  0.00    +0.085 C 
ATOM      5  C   LIG    1       22.325 -30.701  13.741  0.00  0.00    -0.011 C 
ATOM      6  C   LIG    1       21.707 -29.515  13.747  0.00  0.00    +0.009 C 
ATOM      7  C   LIG    1       22.260 -28.358  13.040  0.00  0.00    +0.051 C 
ATOM      8  S   LIG    1       24.970 -30.831  14.181  0.00  0.00    -0.116 S 
ATOM      9  C   LIG    1       26.326 -30.224  13.193  0.00  0.00    +0.016 A 
ATOM     10  C   LIG    1       27.543 -30.114  13.895  0.00  0.00    +0.015 A 
ATOM     11  C   LIG    1       28.694 -29.625  13.281  0.00  0.00    +0.001 A 
ATOM     12  C   LIG    1       28.638 -29.222  11.958  0.00  0.00    +0.001 A 
ATOM     13  C   LIG    1       27.437 -29.324  11.250  0.00  0.00    +0.009 A 
ATOM     14  C   LIG    1       23.222 -28.561  12.119  0.00  0.00    -0.005 C 
ATOM     15  C   LIG    1       26.264 -29.850  11.836  0.00  0.00    -0.008 A 
ENDROOT
BRANCH   7  16
ATOM     16  C   LIG    1       21.686 -26.989  13.317  0.00  0.00    +0.417 C 
ATOM     17  F   LIG    1       20.583 -26.755  12.556  0.00  0.00    -0.166 F 
ATOM     18  F   LIG    1       22.572 -26.001  13.033  0.00  0.00    -0.166 F 
ATOM     19  F   LIG    1       21.304 -26.817  14.609  0.00  0.00    -0.166 F 
ENDBRANCH   7  16
BRANCH   1  20
ATOM     20  C   LIG    1       23.901 -30.378   8.762  0.00  0.00    +0.043 C 
BRANCH  20  21
ATOM     21  C   LIG    1       23.912 -31.694   7.947  0.00  0.00    +0.088 C 
BRANCH  21  25
ATOM     22  N   LIG    1       25.719 -32.933   4.756  0.00  0.00    -0.298 NA
ATOM     23  C   LIG    1       26.067 -31.697   5.497  0.00  0.00    +0.100 C 
ATOM     24  C   LIG    1       24.882 -30.770   5.883  0.00  0.00    +0.100 C 
ATOM     25  N   LIG    1       23.715 -31.438   6.504  0.00  0.00    -0.300 NA
ATOM     26  C   LIG    1       23.389 -32.652   5.728  0.00  0.00    +0.100 C 
ATOM     27  C   LIG    1       24.590 -33.581   5.448  0.00  0.00    +0.100 C 
BRANCH  22  28
ATOM     28  C   LIG    1       25.454 -32.667   3.326  0.00  0.00    +0.112 C 
BRANCH  28  29
ATOM     29  C   LIG    1       26.689 -32.847   2.417  0.00  0.00    +0.171 C 
BRANCH  29  30
ATOM     30  O   LIG    1       26.298 -33.033   1.058  0.00  0.00    -0.394 OA
ATOM     31  H   LIG    1       25.598 -32.380   0.880  0.00  0.00    +0.209 HD
ENDBRANCH  29  30
ENDBRANCH  28  29
ENDBRANCH  22  28
ENDBRANCH  21  25
ENDBRANCH  20  21
ENDBRANCH   1  20
TORSDOF 7
ENDMDL
MODEL 5
REMARK VINA RESULT:      -6.4      7.788      9.823
REMARK  Name = *****
REMARK                            x       y       z     vdW  Elec       q    Type
REMARK                         _______ _______ _______ _____ _____    ______ ____
ROOT
ATOM      1  C   LIG    1       25.409 -29.420  11.552  0.00  0.00    -0.021 C 
ATOM      2  C   LIG    1       24.646 -29.901  10.536  0.00  0.00    -0.035 C 
ATOM      3  C   LIG    1       25.225 -30.206   9.163  0.00  0.00    +0.059 C 
ATOM      4  C   LIG    1       24.961 -31.637   8.632  0.00  0.00    +0.085 C 
ATOM      5  C   LIG    1       25.427 -31.744   7.191  0.00  0.00    -0.011 C 
ATOM      6  C   LIG    1       25.491 -30.683   6.380  0.00  0.00    +0.009 C 
ATOM      7  C   LIG    1       25.073 -29.351   6.824  0.00  0.00    +0.051 C 
ATOM      8  S   LIG    1       23.220 -32.175   8.655  0.00  0.00    -0.116 S 
ATOM      9  C   LIG    1       22.534 -31.223  10.000  0.00  0.00    +0.016 A 
ATOM     10  C   LIG    1       21.183 -31.512  10.277  0.00  0.00    +0.015 A 
ATOM     11  C   LIG    1       20.485 -30.835  11.275  0.00  0.00    +0.001 A 
ATOM     12  C   LIG    1       21.127 -29.844  11.999  0.00  0.00    +0.001 A 
ATOM     13  C   LIG    1       22.466 -29.546  11.733  0.00  0.00    +0.009 A 
ATOM     14  C   LIG    1       24.924 -29.126   8.143  0.00  0.00    -0.005 C 
ATOM     15  C   LIG    1       23.209 -30.242  10.753  0.00  0.00    -0.008 A 
ENDROOT
BRANCH   7  16
ATOM     16  C   LIG    1       24.891 -28.261   5.795  0.00  0.00    +0.417 C 
ATOM     17  F   LIG    1       24.509 -28.776   4.596  0.00  0.00    -0.166 F 
ATOM     18  F   LIG    1       26.041 -27.574   5.576  0.00  0.00    -0.166 F 
ATOM     19  F   LIG    1       23.947 -27.348   6.140  0.00  0.00    -0.166 F 
ENDBRANCH   7  16
BRANCH   1  20
ATOM     20  C   LIG    1       26.891 -29.136  11.485  0.00  0.00    +0.043 C 
BRANCH  20  21
ATOM     21  C   LIG    1       27.546 -28.609  12.784  0.00  0.00    +0.088 C 
BRANCH  21  25
ATOM     22  N   LIG    1       27.510 -25.205  14.629  0.00  0.00    -0.298 NA
ATOM     23  C   LIG    1       27.988 -26.480  15.218  0.00  0.00    +0.100 C 
ATOM     24  C   LIG    1       27.065 -27.714  15.026  0.00  0.00    +0.100 C 
ATOM     25  N   LIG    1       26.557 -27.934  13.652  0.00  0.00    -0.300 NA
ATOM     26  C   LIG    1       26.075 -26.648  13.109  0.00  0.00    +0.100 C 
ATOM     27  C   LIG    1       27.068 -25.475  13.248  0.00  0.00    +0.100 C 
BRANCH  22  28
ATOM     28  C   LIG    1       26.470 -24.565  15.461  0.00  0.00    +0.112 C 
BRANCH  28  29
ATOM     29  C   LIG    1       25.521 -23.636  14.671  0.00  0.00    +0.171 C 
BRANCH  29  30
ATOM     30  O   LIG    1       25.812 -22.265  14.939  0.00  0.00    -0.394 OA
ATOM     31  H   LIG    1       25.272 -21.742  14.319  0.00  0.00    +0.209 HD
ENDBRANCH  29  30
ENDBRANCH  28  29
ENDBRANCH  22  28
ENDBRANCH  21  25
ENDBRANCH  20  21
ENDBRANCH   1  20
TORSDOF 7
ENDMDL
MODEL 6
REMARK VINA RESULT:      -6.4      5.487      8.852
REMARK  Name = *****
REMARK                            x       y       z     vdW  Elec       q    Type
REMARK                         _______ _______ _______ _____ _____    ______ ____
ROOT
ATOM      1  C   LIG    1       26.353 -24.065   6.265  0.00  0.00    -0.021 C 
ATOM      2  C   LIG    1       26.152 -22.756   6.563  0.00  0.00    -0.035 C 
ATOM      3  C   LIG    1       24.816 -22.067   6.328  0.00  0.00    +0.059 C 
ATOM      4  C   LIG    1       24.211 -21.350   7.559  0.00  0.00    +0.085 C 
ATOM      5  C   LIG    1       22.985 -20.557   7.141  0.00  0.00    -0.011 C 
ATOM      6  C   LIG    1       22.824 -20.096   5.896  0.00  0.00    +0.009 C 
ATOM      7  C   LIG    1       23.845 -20.294   4.866  0.00  0.00    +0.051 C 
ATOM      8  S   LIG    1       25.319 -20.180   8.412  0.00  0.00    -0.116 S 
ATOM      9  C   LIG    1       26.937 -20.844   8.055  0.00  0.00    +0.016 A 
ATOM     10  C   LIG    1       27.993 -20.145   8.674  0.00  0.00    +0.015 A 
ATOM     11  C   LIG    1       29.322 -20.511   8.474  0.00  0.00    +0.001 A 
ATOM     12  C   LIG    1       29.613 -21.575   7.636  0.00  0.00    +0.001 A 
ATOM     13  C   LIG    1       28.576 -22.276   7.015  0.00  0.00    +0.009 A 
ATOM     14  C   LIG    1       24.807 -21.213   5.075  0.00  0.00    -0.005 C 
ATOM     15  C   LIG    1       27.218 -21.950   7.229  0.00  0.00    -0.008 A 
ENDROOT
BRANCH   7  16
ATOM     16  C   LIG    1       23.745 -19.512   3.577  0.00  0.00    +0.417 C 
ATOM     17  F   LIG    1       23.955 -20.313   2.499  0.00  0.00    -0.166 F 
ATOM     18  F   LIG    1       24.671 -18.522   3.513  0.00  0.00    -0.166 F 
ATOM     19  F   LIG    1       22.532 -18.930   3.394  0.00  0.00    -0.166 F 
ENDBRANCH   7  16
BRANCH   1  20
ATOM     20  C   LIG    1       25.323 -25.007   5.688  0.00  0.00    +0.043 C 
BRANCH  20  21
ATOM     21  C   LIG    1       24.865 -26.168   6.604  0.00  0.00    +0.088 C 
BRANCH  21  25
ATOM     22  N   LIG    1       24.268 -29.963   6.130  0.00  0.00    -0.298 NA
ATOM     23  C   LIG    1       24.394 -29.286   7.444  0.00  0.00    +0.100 C 
ATOM     24  C   LIG    1       25.586 -28.301   7.597  0.00  0.00    +0.100 C 
ATOM     25  N   LIG    1       25.770 -27.332   6.493  0.00  0.00    -0.300 NA
ATOM     26  C   LIG    1       25.655 -28.047   5.205  0.00  0.00    +0.100 C 
ATOM     27  C   LIG    1       24.407 -28.945   5.073  0.00  0.00    +0.100 C 
BRANCH  22  28
ATOM     28  C   LIG    1       25.221 -31.084   5.990  0.00  0.00    +0.112 C 
BRANCH  28  29
ATOM     29  C   LIG    1       24.548 -32.444   5.700  0.00  0.00    +0.171 C 
BRANCH  29  30
ATOM     30  O   LIG    1       23.175 -32.269   5.353  0.00  0.00    -0.394 OA
ATOM     31  H   LIG    1       23.103 -32.471   4.403  0.00  0.00    +0.209 HD
ENDBRANCH  29  30
ENDBRANCH  28  29
ENDBRANCH  22  28
ENDBRANCH  21  25
ENDBRANCH  20  21
ENDBRANCH   1  20
TORSDOF 7
ENDMDL
