MODEL 1
REMARK VINA RESULT:      -4.8      0.000      0.000
REMARK  Name = *****
REMARK                            x       y       z     vdW  Elec       q    Type
REMARK                         _______ _______ _______ _____ _____    ______ ____
ROOT
ATOM      1  C   LIG    1       28.091 -20.565   6.493  0.00  0.00    +0.025 A 
ATOM      2  C   LIG    1       27.154 -21.434   7.062  0.00  0.00    +0.024 A 
ATOM      3  C   LIG    1       25.826 -21.438   6.626  0.00  0.00    +0.030 A 
ATOM      4  C   LIG    1       25.445 -20.599   5.576  0.00  0.00    +0.105 A 
ATOM      5  C   LIG    1       26.382 -19.771   4.956  0.00  0.00    +0.030 A 
ATOM      6  C   LIG    1       27.705 -19.774   5.405  0.00  0.00    +0.024 A 
ENDROOT
BRANCH   1   7
ATOM      7  N   LIG    1       29.441 -20.656   6.852  0.00  0.00    -0.358 N 
ATOM      8  H   LIG    1       29.918 -21.459   6.453  0.00  0.00    +0.142 HD
ATOM      9  H   LIG    1       29.605 -20.574   7.851  0.00  0.00    +0.142 HD
ENDBRANCH   1   7
BRANCH   4  10
ATOM     10  S   LIG    1       23.768 -20.609   5.024  0.00  0.00    +0.056 S 
ATOM     11  O   LIG    1       23.411 -19.290   4.552  0.00  0.00    -0.153 OA
ATOM     12  O   LIG    1       22.971 -21.335   5.981  0.00  0.00    -0.153 OA
BRANCH  10  13
ATOM     13  N   LIG    1       23.837 -21.566   3.644  0.00  0.00    -0.203 NA
ATOM     14  H   LIG    1       24.037 -22.530   3.906  0.00  0.00    +0.144 HD
ATOM     15  H   LIG    1       24.510 -21.169   2.986  0.00  0.00    +0.144 HD
ENDBRANCH  10  13
ENDBRANCH   4  10
TORSDOF 3
ENDMDL
MODEL 2
REMARK VINA RESULT:      -3.7      3.086      4.462
REMARK  Name = *****
REMARK                            x       y       z     vdW  Elec       q    Type
REMARK                         _______ _______ _______ _____ _____    ______ ____
ROOT
ATOM      1  C   LIG    1       23.744 -20.893   5.482  0.00  0.00    +0.025 A 
ATOM      2  C   LIG    1       24.235 -21.171   6.763  0.00  0.00    +0.024 A 
ATOM      3  C   LIG    1       25.589 -21.003   7.061  0.00  0.00    +0.030 A 
ATOM      4  C   LIG    1       26.453 -20.506   6.083  0.00  0.00    +0.105 A 
ATOM      5  C   LIG    1       25.968 -20.165   4.819  0.00  0.00    +0.030 A 
ATOM      6  C   LIG    1       24.613 -20.341   4.533  0.00  0.00    +0.024 A 
ENDROOT
BRANCH   1   7
ATOM      7  N   LIG    1       22.370 -20.947   5.229  0.00  0.00    -0.358 N 
ATOM      8  H   LIG    1       21.796 -20.886   6.065  0.00  0.00    +0.142 HD
ATOM      9  H   LIG    1       22.093 -21.722   4.634  0.00  0.00    +0.142 HD
ENDBRANCH   1   7
BRANCH   4  10
ATOM     10  S   LIG    1       28.163 -20.291   6.463  0.00  0.00    +0.056 S 
ATOM     11  O   LIG    1       28.678 -21.503   7.061  0.00  0.00    -0.153 OA
ATOM     12  O   LIG    1       28.344 -18.991   7.062  0.00  0.00    -0.153 OA
BRANCH  10  13
ATOM     13  N   LIG    1       28.876 -20.213   4.943  0.00  0.00    -0.203 NA
ATOM     14  H   LIG    1       28.201 -20.498   4.234  0.00  0.00    +0.144 HD
ATOM     15  H   LIG    1       29.735 -20.765   4.940  0.00  0.00    +0.144 HD
ENDBRANCH  10  13
ENDBRANCH   4  10
TORSDOF 3
ENDMDL
MODEL 3
REMARK VINA RESULT:      -3.1      0.280      1.480
REMARK  Name = *****
REMARK                            x       y       z     vdW  Elec       q    Type
REMARK                         _______ _______ _______ _____ _____    ______ ____
ROOT
ATOM      1  C   LIG    1       27.997 -20.503   6.397  0.00  0.00    +0.025 A 
ATOM      2  C   LIG    1       27.664 -19.719   5.287  0.00  0.00    +0.024 A 
ATOM      3  C   LIG    1       26.362 -19.710   4.783  0.00  0.00    +0.030 A 
ATOM      4  C   LIG    1       25.370 -20.454   5.426  0.00  0.00    +0.105 A 
ATOM      5  C   LIG    1       25.671 -21.193   6.572  0.00  0.00    +0.030 A 
ATOM      6  C   LIG    1       26.979 -21.196   7.062  0.00  0.00    +0.024 A 
ENDROOT
BRANCH   1   7
ATOM      7  N   LIG    1       29.272 -20.411   6.966  0.00  0.00    -0.358 N 
ATOM      8  H   LIG    1       29.719 -21.310   7.118  0.00  0.00    +0.142 HD
ATOM      9  H   LIG    1       29.309 -19.823   7.794  0.00  0.00    +0.142 HD
ENDBRANCH   1   7
BRANCH   4  10
ATOM     10  S   LIG    1       23.723 -20.438   4.790  0.00  0.00    +0.056 S 
ATOM     11  O   LIG    1       23.472 -19.171   4.140  0.00  0.00    -0.153 OA
ATOM     12  O   LIG    1       22.838 -20.990   5.786  0.00  0.00    -0.153 OA
BRANCH  10  13
ATOM     13  N   LIG    1       23.794 -21.564   3.545  0.00  0.00    -0.203 NA
ATOM     14  H   LIG    1       24.216 -22.427   3.888  0.00  0.00    +0.144 HD
ATOM     15  H   LIG    1       24.279 -21.159   2.744  0.00  0.00    +0.144 HD
ENDBRANCH  10  13
ENDBRANCH   4  10
TORSDOF 3
ENDMDL
MODEL 4
REMARK VINA RESULT:      -3.0      2.002      2.803
REMARK  Name = *****
REMARK                            x       y       z     vdW  Elec       q    Type
REMARK                         _______ _______ _______ _____ _____    ______ ____
ROOT
ATOM      1  C   LIG    1       26.249 -20.916   6.363  0.00  0.00    +0.025 A 
ATOM      2  C   LIG    1       26.338 -20.235   5.144  0.00  0.00    +0.024 A 
ATOM      3  C   LIG    1       25.189 -19.779   4.494  0.00  0.00    +0.030 A 
ATOM      4  C   LIG    1       23.941 -19.962   5.096  0.00  0.00    +0.105 A 
ATOM      5  C   LIG    1       23.840 -20.584   6.341  0.00  0.00    +0.030 A 
ATOM      6  C   LIG    1       24.998 -21.039   6.976  0.00  0.00    +0.024 A 
ENDROOT
BRANCH   1   7
ATOM      7  N   LIG    1       27.411 -21.260   7.062  0.00  0.00    -0.358 N 
ATOM      8  H   LIG    1       28.040 -21.865   6.541  0.00  0.00    +0.142 HD
ATOM      9  H   LIG    1       27.237 -21.611   7.999  0.00  0.00    +0.142 HD
ENDBRANCH   1   7
BRANCH   4  10
ATOM     10  S   LIG    1       22.490 -19.380   4.275  0.00  0.00    +0.056 S 
ATOM     11  O   LIG    1       21.383 -20.259   4.578  0.00  0.00    -0.153 OA
ATOM     12  O   LIG    1       22.840 -19.005   2.928  0.00  0.00    -0.153 OA
BRANCH  10  13
ATOM     13  N   LIG    1       22.150 -17.950   5.090  0.00  0.00    -0.203 NA
ATOM     14  H   LIG    1       21.144 -17.863   5.226  0.00  0.00    +0.144 HD
ATOM     15  H   LIG    1       22.567 -17.164   4.590  0.00  0.00    +0.144 HD
ENDBRANCH  10  13
ENDBRANCH   4  10
TORSDOF 3
ENDMDL
MODEL 5
REMARK VINA RESULT:      -3.0      6.120      6.939
REMARK  Name = *****
REMARK                            x       y       z     vdW  Elec       q    Type
REMARK                         _______ _______ _______ _____ _____    ______ ____
ROOT
ATOM      1  C   LIG    1       27.464 -16.241   3.972  0.00  0.00    +0.025 A 
ATOM      2  C   LIG    1       27.844 -14.941   4.321  0.00  0.00    +0.024 A 
ATOM      3  C   LIG    1       26.986 -13.861   4.102  0.00  0.00    +0.030 A 
ATOM      4  C   LIG    1       25.713 -14.091   3.573  0.00  0.00    +0.105 A 
ATOM      5  C   LIG    1       25.295 -15.389   3.276  0.00  0.00    +0.030 A 
ATOM      6  C   LIG    1       26.165 -16.459   3.497  0.00  0.00    +0.024 A 
ENDROOT
BRANCH   1   7
ATOM      7  N   LIG    1       28.280 -17.326   4.308  0.00  0.00    -0.358 N 
ATOM      8  H   LIG    1       28.753 -17.746   3.513  0.00  0.00    +0.142 HD
ATOM      9  H   LIG    1       27.818 -18.023   4.885  0.00  0.00    +0.142 HD
ENDBRANCH   1   7
BRANCH   4  10
ATOM     10  S   LIG    1       24.628 -12.726   3.300  0.00  0.00    +0.056 S 
ATOM     11  O   LIG    1       25.111 -11.944   2.183  0.00  0.00    -0.153 OA
ATOM     12  O   LIG    1       24.295 -12.139   4.574  0.00  0.00    -0.153 OA
BRANCH  10  13
ATOM     13  N   LIG    1       23.228 -13.470   2.743  0.00  0.00    -0.203 NA
ATOM     14  H   LIG    1       23.473 -14.288   2.186  0.00  0.00    +0.144 HD
ATOM     15  H   LIG    1       22.654 -12.788   2.243  0.00  0.00    +0.144 HD
ENDBRANCH  10  13
ENDBRANCH   4  10
TORSDOF 3
ENDMDL
MODEL 6
REMARK VINA RESULT:      -2.9      5.590      6.634
REMARK  Name = *****
REMARK                            x       y       z     vdW  Elec       q    Type
REMARK                         _______ _______ _______ _____ _____    ______ ____
ROOT
ATOM      1  C   LIG    1       23.243 -17.544   4.126  0.00  0.00    +0.025 A 
ATOM      2  C   LIG    1       24.514 -17.917   3.674  0.00  0.00    +0.024 A 
ATOM      3  C   LIG    1       25.485 -16.952   3.396  0.00  0.00    +0.030 A 
ATOM      4  C   LIG    1       25.198 -15.603   3.622  0.00  0.00    +0.105 A 
ATOM      5  C   LIG    1       23.957 -15.219   4.131  0.00  0.00    +0.030 A 
ATOM      6  C   LIG    1       22.994 -16.195   4.399  0.00  0.00    +0.024 A 
ENDROOT
BRANCH   1   7
ATOM      7  N   LIG    1       22.322 -18.522   4.515  0.00  0.00    -0.358 N 
ATOM      8  H   LIG    1       21.486 -18.552   3.938  0.00  0.00    +0.142 HD
ATOM      9  H   LIG    1       22.098 -18.503   5.506  0.00  0.00    +0.142 HD
ENDBRANCH   1   7
BRANCH   4  10
ATOM     10  S   LIG    1       26.429 -14.385   3.275  0.00  0.00    +0.056 S 
ATOM     11  O   LIG    1       26.169 -13.202   4.065  0.00  0.00    -0.153 OA
ATOM     12  O   LIG    1       26.642 -14.337   1.849  0.00  0.00    -0.153 OA
BRANCH  10  13
ATOM     13  N   LIG    1       27.817 -15.060   3.938  0.00  0.00    -0.203 NA
ATOM     14  H   LIG    1       27.677 -16.060   4.082  0.00  0.00    +0.144 HD
ATOM     15  H   LIG    1       28.073 -14.554   4.787  0.00  0.00    +0.144 HD
ENDBRANCH  10  13
ENDBRANCH   4  10
TORSDOF 3
ENDMDL
MODEL 7
REMARK VINA RESULT:      -2.8      5.678      6.745
REMARK  Name = *****
REMARK                            x       y       z     vdW  Elec       q    Type
REMARK                         _______ _______ _______ _____ _____    ______ ____
ROOT
ATOM      1  C   LIG    1       23.246 -17.414   4.206  0.00  0.00    +0.025 A 
ATOM      2  C   LIG    1       23.005 -16.048   4.393  0.00  0.00    +0.024 A 
ATOM      3  C   LIG    1       23.996 -15.103   4.115  0.00  0.00    +0.030 A 
ATOM      4  C   LIG    1       25.222 -15.525   3.596  0.00  0.00    +0.105 A 
ATOM      5  C   LIG    1       25.456 -16.878   3.344  0.00  0.00    +0.030 A 
ATOM      6  C   LIG    1       24.458 -17.812   3.632  0.00  0.00    +0.024 A 
ENDROOT
BRANCH   1   7
ATOM      7  N   LIG    1       22.209 -18.339   4.371  0.00  0.00    -0.358 N 
ATOM      8  H   LIG    1       22.141 -18.714   5.313  0.00  0.00    +0.142 HD
ATOM      9  H   LIG    1       22.198 -19.072   3.668  0.00  0.00    +0.142 HD
ENDBRANCH   1   7
BRANCH   4  10
ATOM     10  S   LIG    1       26.471 -14.329   3.240  0.00  0.00    +0.056 S 
ATOM     11  O   LIG    1       26.220 -13.130   4.008  0.00  0.00    -0.153 OA
ATOM     12  O   LIG    1       26.698 -14.308   1.816  0.00  0.00    -0.153 OA
BRANCH  10  13
ATOM     13  N   LIG    1       27.845 -15.011   3.926  0.00  0.00    -0.203 NA
ATOM     14  H   LIG    1       27.699 -15.145   4.926  0.00  0.00    +0.144 HD
ATOM     15  H   LIG    1       28.660 -14.438   3.702  0.00  0.00    +0.144 HD
ENDBRANCH  10  13
ENDBRANCH   4  10
TORSDOF 3
ENDMDL
MODEL 8
REMARK VINA RESULT:      -2.8      6.779      7.061
REMARK  Name = *****
REMARK                            x       y       z     vdW  Elec       q    Type
REMARK                         _______ _______ _______ _____ _____    ______ ____
ROOT
ATOM      1  C   LIG    1       28.113 -13.208   3.793  0.00  0.00    +0.025 A 
ATOM      2  C   LIG    1       27.504 -13.247   5.052  0.00  0.00    +0.024 A 
ATOM      3  C   LIG    1       26.178 -13.662   5.193  0.00  0.00    +0.030 A 
ATOM      4  C   LIG    1       25.469 -14.091   4.068  0.00  0.00    +0.105 A 
ATOM      5  C   LIG    1       26.081 -14.118   2.814  0.00  0.00    +0.030 A 
ATOM      6  C   LIG    1       27.406 -13.695   2.688  0.00  0.00    +0.024 A 
ENDROOT
BRANCH   1   7
ATOM      7  N   LIG    1       29.475 -12.908   3.680  0.00  0.00    -0.358 N 
ATOM      8  H   LIG    1       29.971 -12.913   4.567  0.00  0.00    +0.142 HD
ATOM      9  H   LIG    1       29.665 -12.067   3.143  0.00  0.00    +0.142 HD
ENDBRANCH   1   7
BRANCH   4  10
ATOM     10  S   LIG    1       23.794 -14.620   4.248  0.00  0.00    +0.056 S 
ATOM     11  O   LIG    1       23.208 -13.975   5.402  0.00  0.00    -0.153 OA
ATOM     12  O   LIG    1       23.735 -16.046   4.040  0.00  0.00    -0.153 OA
BRANCH  10  13
ATOM     13  N   LIG    1       23.038 -13.918   2.921  0.00  0.00    -0.203 NA
ATOM     14  H   LIG    1       22.886 -12.926   3.099  0.00  0.00    +0.144 HD
ATOM     15  H   LIG    1       22.183 -14.432   2.703  0.00  0.00    +0.144 HD
ENDBRANCH  10  13
ENDBRANCH   4  10
TORSDOF 3
ENDMDL
MODEL 9
REMARK VINA RESULT:      -2.7      5.471      6.503
REMARK  Name = *****
REMARK                            x       y       z     vdW  Elec       q    Type
REMARK                         _______ _______ _______ _____ _____    ______ ____
ROOT
ATOM      1  C   LIG    1       23.360 -17.821   4.027  0.00  0.00    +0.025 A 
ATOM      2  C   LIG    1       24.640 -18.178   3.589  0.00  0.00    +0.024 A 
ATOM      3  C   LIG    1       25.610 -17.203   3.342  0.00  0.00    +0.030 A 
ATOM      4  C   LIG    1       25.311 -15.860   3.583  0.00  0.00    +0.105 A 
ATOM      5  C   LIG    1       24.059 -15.491   4.079  0.00  0.00    +0.030 A 
ATOM      6  C   LIG    1       23.098 -16.477   4.317  0.00  0.00    +0.024 A 
ENDROOT
BRANCH   1   7
ATOM      7  N   LIG    1       22.439 -18.810   4.387  0.00  0.00    -0.358 N 
ATOM      8  H   LIG    1       22.791 -19.757   4.280  0.00  0.00    +0.142 HD
ATOM      9  H   LIG    1       21.525 -18.694   3.960  0.00  0.00    +0.142 HD
ENDBRANCH   1   7
BRANCH   4  10
ATOM     10  S   LIG    1       26.539 -14.629   3.275  0.00  0.00    +0.056 S 
ATOM     11  O   LIG    1       26.581 -14.338   1.859  0.00  0.00    -0.153 OA
ATOM     12  O   LIG    1       27.718 -14.952   4.039  0.00  0.00    -0.153 OA
BRANCH  10  13
ATOM     13  N   LIG    1       25.877 -13.257   3.985  0.00  0.00    -0.203 NA
ATOM     14  H   LIG    1       26.430 -12.993   4.799  0.00  0.00    +0.144 HD
ATOM     15  H   LIG    1       24.891 -13.421   4.193  0.00  0.00    +0.144 HD
ENDBRANCH  10  13
ENDBRANCH   4  10
TORSDOF 3
ENDMDL
