MODEL 1
REMARK VINA RESULT:     -10.0      0.000      0.000
REMARK  Name = *****
REMARK                            x       y       z     vdW  Elec       q    Type
REMARK                         _______ _______ _______ _____ _____    ______ ____
ROOT
ATOM      1  C   LIG    1       25.262 -21.664   6.835  0.00  0.00    +0.178 C 
ENDROOT
BRANCH   1   6
ATOM      2 CL   LIG    1       24.276 -27.608   6.065  0.00  0.00    -0.084 Cl
ATOM      3  C   LIG    1       24.547 -25.924   6.301  0.00  0.00    +0.041 A 
ATOM      4  C   LIG    1       25.848 -25.442   6.422  0.00  0.00    +0.020 A 
ATOM      5  C   LIG    1       26.068 -24.071   6.605  0.00  0.00    +0.008 A 
ATOM      6  C   LIG    1       24.991 -23.165   6.683  0.00  0.00    -0.014 A 
ATOM      7  C   LIG    1       23.688 -23.681   6.569  0.00  0.00    +0.008 A 
ATOM      8  C   LIG    1       23.467 -25.049   6.370  0.00  0.00    +0.020 A 
ENDBRANCH   1   6
BRANCH   1   9
ATOM      9  C   LIG    1       24.468 -20.823   5.839  0.00  0.00    -0.015 A 
ATOM     10  C   LIG    1       24.990 -20.491   4.573  0.00  0.00    +0.006 A 
ATOM     11  C   LIG    1       24.261 -19.698   3.687  0.00  0.00    +0.000 A 
ATOM     12  C   LIG    1       23.010 -19.209   4.044  0.00  0.00    +0.000 A 
ATOM     13  C   LIG    1       22.467 -19.542   5.288  0.00  0.00    +0.000 A 
ATOM     14  C   LIG    1       23.182 -20.360   6.164  0.00  0.00    +0.006 A 
ENDBRANCH   1   9
BRANCH   1  15
ATOM     15  O   LIG    1       25.006 -21.239   8.191  0.00  0.00    -0.366 OA
BRANCH  15  16
ATOM     16  C   LIG    1       26.149 -20.594   8.777  0.00  0.00    +0.176 C 
BRANCH  16  17
ATOM     17  C   LIG    1       27.458 -21.227   8.268  0.00  0.00    +0.112 C 
BRANCH  17  18
ATOM     18  N   LIG    1       28.573 -20.305   7.961  0.00  0.00    -0.300 NA
ATOM     19  C   LIG    1       28.503 -19.769   6.594  0.00  0.00    +0.084 C 
ATOM     20  C   LIG    1       29.582 -18.708   6.362  0.00  0.00    +0.015 C 
ATOM     21  C   LIG    1       30.972 -19.261   6.658  0.00  0.00    +0.002 C 
ATOM     22  C   LIG    1       31.010 -19.874   8.053  0.00  0.00    +0.015 C 
ATOM     23  C   LIG    1       29.886 -20.895   8.242  0.00  0.00    +0.084 C 
ENDBRANCH  17  18
ENDBRANCH  16  17
ENDBRANCH  15  16
ENDBRANCH   1  15
TORSDOF 6
ENDMDL
MODEL 2
REMARK VINA RESULT:      -9.1      2.227      4.427
REMARK  Name = *****
REMARK                            x       y       z     vdW  Elec       q    Type
REMARK                         _______ _______ _______ _____ _____    ______ ____
ROOT
ATOM      1  C   LIG    1       25.397 -22.970   7.226  0.00  0.00    +0.178 C 
ENDROOT
BRANCH   1   6
ATOM      2 CL   LIG    1       22.371 -18.723   4.112  0.00  0.00    -0.084 Cl
ATOM      3  C   LIG    1       23.212 -19.938   4.994  0.00  0.00    +0.041 A 
ATOM      4  C   LIG    1       24.283 -20.606   4.405  0.00  0.00    +0.020 A 
ATOM      5  C   LIG    1       24.973 -21.588   5.126  0.00  0.00    +0.008 A 
ATOM      6  C   LIG    1       24.595 -21.926   6.441  0.00  0.00    -0.014 A 
ATOM      7  C   LIG    1       23.504 -21.243   7.008  0.00  0.00    +0.008 A 
ATOM      8  C   LIG    1       22.823 -20.250   6.293  0.00  0.00    +0.020 A 
ENDBRANCH   1   6
BRANCH   1   9
ATOM      9  C   LIG    1       25.253 -24.374   6.647  0.00  0.00    -0.015 A 
ATOM     10  C   LIG    1       26.375 -25.195   6.417  0.00  0.00    +0.006 A 
ATOM     11  C   LIG    1       26.227 -26.466   5.861  0.00  0.00    +0.000 A 
ATOM     12  C   LIG    1       24.968 -26.940   5.511  0.00  0.00    +0.000 A 
ATOM     13  C   LIG    1       23.842 -26.148   5.748  0.00  0.00    +0.000 A 
ATOM     14  C   LIG    1       23.985 -24.888   6.332  0.00  0.00    +0.006 A 
ENDBRANCH   1   9
BRANCH   1  15
ATOM     15  O   LIG    1       26.786 -22.583   7.307  0.00  0.00    -0.366 OA
BRANCH  15  16
ATOM     16  C   LIG    1       26.990 -21.500   8.230  0.00  0.00    +0.176 C 
BRANCH  16  17
ATOM     17  C   LIG    1       27.727 -20.330   7.549  0.00  0.00    +0.112 C 
BRANCH  17  18
ATOM     18  N   LIG    1       28.972 -19.859   8.193  0.00  0.00    -0.300 NA
ATOM     19  C   LIG    1       29.423 -18.562   7.668  0.00  0.00    +0.084 C 
ATOM     20  C   LIG    1       30.626 -18.035   8.458  0.00  0.00    +0.015 C 
ATOM     21  C   LIG    1       31.767 -19.046   8.463  0.00  0.00    +0.002 C 
ATOM     22  C   LIG    1       31.268 -20.404   8.945  0.00  0.00    +0.015 C 
ATOM     23  C   LIG    1       30.044 -20.860   8.149  0.00  0.00    +0.084 C 
ENDBRANCH  17  18
ENDBRANCH  16  17
ENDBRANCH  15  16
ENDBRANCH   1  15
TORSDOF 6
ENDMDL
MODEL 3
REMARK VINA RESULT:      -9.0      2.241      4.586
REMARK  Name = *****
REMARK                            x       y       z     vdW  Elec       q    Type
REMARK                         _______ _______ _______ _____ _____    ______ ____
ROOT
ATOM      1  C   LIG    1       25.516 -22.926   7.231  0.00  0.00    +0.178 C 
ENDROOT
BRANCH   1   6
ATOM      2 CL   LIG    1       22.190 -18.779   4.294  0.00  0.00    -0.084 Cl
ATOM      3  C   LIG    1       23.148 -19.942   5.125  0.00  0.00    +0.041 A 
ATOM      4  C   LIG    1       22.865 -20.251   6.453  0.00  0.00    +0.020 A 
ATOM      5  C   LIG    1       23.639 -21.204   7.126  0.00  0.00    +0.008 A 
ATOM      6  C   LIG    1       24.715 -21.852   6.487  0.00  0.00    -0.014 A 
ATOM      7  C   LIG    1       24.986 -21.512   5.149  0.00  0.00    +0.008 A 
ATOM      8  C   LIG    1       24.202 -20.571   4.470  0.00  0.00    +0.020 A 
ENDBRANCH   1   6
BRANCH   1   9
ATOM      9  C   LIG    1       25.284 -24.325   6.666  0.00  0.00    -0.015 A 
ATOM     10  C   LIG    1       23.996 -24.775   6.318  0.00  0.00    +0.006 A 
ATOM     11  C   LIG    1       23.799 -26.067   5.829  0.00  0.00    +0.000 A 
ATOM     12  C   LIG    1       24.873 -26.938   5.688  0.00  0.00    +0.000 A 
ATOM     13  C   LIG    1       26.161 -26.504   6.010  0.00  0.00    +0.000 A 
ATOM     14  C   LIG    1       26.363 -25.202   6.471  0.00  0.00    +0.006 A 
ENDBRANCH   1   9
BRANCH   1  15
ATOM     15  O   LIG    1       26.922 -22.597   7.236  0.00  0.00    -0.366 OA
BRANCH  15  16
ATOM     16  C   LIG    1       27.203 -21.452   8.059  0.00  0.00    +0.176 C 
BRANCH  16  17
ATOM     17  C   LIG    1       28.122 -20.458   7.323  0.00  0.00    +0.112 C 
BRANCH  17  18
ATOM     18  N   LIG    1       29.194 -19.822   8.118  0.00  0.00    -0.300 NA
ATOM     19  C   LIG    1       29.516 -18.466   7.650  0.00  0.00    +0.084 C 
ATOM     20  C   LIG    1       30.520 -17.784   8.584  0.00  0.00    +0.015 C 
ATOM     21  C   LIG    1       31.785 -18.621   8.739  0.00  0.00    +0.002 C 
ATOM     22  C   LIG    1       31.430 -20.042   9.160  0.00  0.00    +0.015 C 
ATOM     23  C   LIG    1       30.395 -20.659   8.216  0.00  0.00    +0.084 C 
ENDBRANCH  17  18
ENDBRANCH  16  17
ENDBRANCH  15  16
ENDBRANCH   1  15
TORSDOF 6
ENDMDL
MODEL 4
REMARK VINA RESULT:      -8.8      2.755      6.441
REMARK  Name = *****
REMARK                            x       y       z     vdW  Elec       q    Type
REMARK                         _______ _______ _______ _____ _____    ______ ____
ROOT
ATOM      1  C   LIG    1       26.211 -21.395   6.203  0.00  0.00    +0.178 C 
ENDROOT
BRANCH   1   6
ATOM      2 CL   LIG    1       21.420 -18.455   3.902  0.00  0.00    -0.084 Cl
ATOM      3  C   LIG    1       22.788 -19.271   4.556  0.00  0.00    +0.041 A 
ATOM      4  C   LIG    1       22.706 -19.860   5.814  0.00  0.00    +0.020 A 
ATOM      5  C   LIG    1       23.816 -20.532   6.342  0.00  0.00    +0.008 A 
ATOM      6  C   LIG    1       25.026 -20.612   5.624  0.00  0.00    -0.014 A 
ATOM      7  C   LIG    1       25.084 -19.999   4.360  0.00  0.00    +0.008 A 
ATOM      8  C   LIG    1       23.970 -19.340   3.825  0.00  0.00    +0.020 A 
ENDBRANCH   1   6
BRANCH   1   9
ATOM      9  C   LIG    1       27.413 -20.502   6.500  0.00  0.00    -0.015 A 
ATOM     10  C   LIG    1       27.929 -20.372   7.805  0.00  0.00    +0.006 A 
ATOM     11  C   LIG    1       29.011 -19.529   8.062  0.00  0.00    +0.000 A 
ATOM     12  C   LIG    1       29.591 -18.793   7.035  0.00  0.00    +0.000 A 
ATOM     13  C   LIG    1       29.105 -18.923   5.732  0.00  0.00    +0.000 A 
ATOM     14  C   LIG    1       28.042 -19.788   5.468  0.00  0.00    +0.006 A 
ENDBRANCH   1   9
BRANCH   1  15
ATOM     15  O   LIG    1       25.806 -22.126   7.380  0.00  0.00    -0.366 OA
BRANCH  15  16
ATOM     16  C   LIG    1       25.970 -23.545   7.215  0.00  0.00    +0.176 C 
BRANCH  16  17
ATOM     17  C   LIG    1       24.771 -24.152   6.459  0.00  0.00    +0.112 C 
BRANCH  17  18
ATOM     18  N   LIG    1       24.993 -25.448   5.784  0.00  0.00    -0.300 NA
ATOM     19  C   LIG    1       24.084 -26.499   6.265  0.00  0.00    +0.084 C 
ATOM     20  C   LIG    1       24.239 -27.781   5.442  0.00  0.00    +0.015 C 
ATOM     21  C   LIG    1       25.683 -28.269   5.448  0.00  0.00    +0.002 C 
ATOM     22  C   LIG    1       26.621 -27.148   5.012  0.00  0.00    +0.015 C 
ATOM     23  C   LIG    1       26.394 -25.881   5.840  0.00  0.00    +0.084 C 
ENDBRANCH  17  18
ENDBRANCH  16  17
ENDBRANCH  15  16
ENDBRANCH   1  15
TORSDOF 6
ENDMDL
MODEL 5
REMARK VINA RESULT:      -8.7      3.087      6.336
REMARK  Name = *****
REMARK                            x       y       z     vdW  Elec       q    Type
REMARK                         _______ _______ _______ _____ _____    ______ ____
ROOT
ATOM      1  C   LIG    1       25.370 -21.603   6.381  0.00  0.00    +0.178 C 
ENDROOT
BRANCH   1   6
ATOM      2 CL   LIG    1       31.022 -19.482   7.054  0.00  0.00    -0.084 Cl
ATOM      3  C   LIG    1       29.415 -20.076   6.881  0.00  0.00    +0.041 A 
ATOM      4  C   LIG    1       28.577 -19.533   5.911  0.00  0.00    +0.020 A 
ATOM      5  C   LIG    1       27.273 -20.022   5.765  0.00  0.00    +0.008 A 
ATOM      6  C   LIG    1       26.785 -21.052   6.594  0.00  0.00    -0.014 A 
ATOM      7  C   LIG    1       27.649 -21.574   7.573  0.00  0.00    +0.008 A 
ATOM      8  C   LIG    1       28.959 -21.096   7.710  0.00  0.00    +0.020 A 
ENDBRANCH   1   6
BRANCH   1   9
ATOM      9  C   LIG    1       24.493 -20.661   5.561  0.00  0.00    -0.015 A 
ATOM     10  C   LIG    1       24.924 -20.141   4.325  0.00  0.00    +0.006 A 
ATOM     11  C   LIG    1       24.120 -19.259   3.602  0.00  0.00    +0.000 A 
ATOM     12  C   LIG    1       22.882 -18.867   4.098  0.00  0.00    +0.000 A 
ATOM     13  C   LIG    1       22.429 -19.385   5.314  0.00  0.00    +0.000 A 
ATOM     14  C   LIG    1       23.219 -20.291   6.023  0.00  0.00    +0.006 A 
ENDBRANCH   1   9
BRANCH   1  15
ATOM     15  O   LIG    1       25.424 -22.914   5.779  0.00  0.00    -0.366 OA
BRANCH  15  16
ATOM     16  C   LIG    1       24.922 -23.932   6.662  0.00  0.00    +0.176 C 
BRANCH  16  17
ATOM     17  C   LIG    1       25.877 -25.141   6.706  0.00  0.00    +0.112 C 
BRANCH  17  18
ATOM     18  N   LIG    1       25.267 -26.481   6.579  0.00  0.00    -0.300 NA
ATOM     19  C   LIG    1       25.901 -27.476   7.455  0.00  0.00    +0.084 C 
ATOM     20  C   LIG    1       25.151 -28.811   7.408  0.00  0.00    +0.015 C 
ATOM     21  C   LIG    1       25.043 -29.333   5.980  0.00  0.00    +0.002 C 
ATOM     22  C   LIG    1       24.445 -28.266   5.071  0.00  0.00    +0.015 C 
ATOM     23  C   LIG    1       25.209 -26.945   5.188  0.00  0.00    +0.084 C 
ENDBRANCH  17  18
ENDBRANCH  16  17
ENDBRANCH  15  16
ENDBRANCH   1  15
TORSDOF 6
ENDMDL
MODEL 6
REMARK VINA RESULT:      -8.6      3.108      6.419
REMARK  Name = *****
REMARK                            x       y       z     vdW  Elec       q    Type
REMARK                         _______ _______ _______ _____ _____    ______ ____
ROOT
ATOM      1  C   LIG    1       25.354 -21.668   6.310  0.00  0.00    +0.178 C 
ENDROOT
BRANCH   1   6
ATOM      2 CL   LIG    1       30.970 -19.534   7.200  0.00  0.00    -0.084 Cl
ATOM      3  C   LIG    1       29.384 -20.146   6.930  0.00  0.00    +0.041 A 
ATOM      4  C   LIG    1       28.904 -21.196   7.709  0.00  0.00    +0.020 A 
ATOM      5  C   LIG    1       27.610 -21.687   7.495  0.00  0.00    +0.008 A 
ATOM      6  C   LIG    1       26.783 -21.145   6.491  0.00  0.00    -0.014 A 
ATOM      7  C   LIG    1       27.296 -20.093   5.712  0.00  0.00    +0.008 A 
ATOM      8  C   LIG    1       28.584 -19.590   5.936  0.00  0.00    +0.020 A 
ENDBRANCH   1   6
BRANCH   1   9
ATOM      9  C   LIG    1       24.466 -20.693   5.541  0.00  0.00    -0.015 A 
ATOM     10  C   LIG    1       23.247 -20.230   6.073  0.00  0.00    +0.006 A 
ATOM     11  C   LIG    1       22.435 -19.361   5.345  0.00  0.00    +0.000 A 
ATOM     12  C   LIG    1       22.811 -18.945   4.072  0.00  0.00    +0.000 A 
ATOM     13  C   LIG    1       24.026 -19.378   3.536  0.00  0.00    +0.000 A 
ATOM     14  C   LIG    1       24.853 -20.224   4.275  0.00  0.00    +0.006 A 
ENDBRANCH   1   9
BRANCH   1  15
ATOM     15  O   LIG    1       25.367 -22.965   5.675  0.00  0.00    -0.366 OA
BRANCH  15  16
ATOM     16  C   LIG    1       24.973 -24.011   6.580  0.00  0.00    +0.176 C 
BRANCH  16  17
ATOM     17  C   LIG    1       25.912 -25.227   6.456  0.00  0.00    +0.112 C 
BRANCH  17  18
ATOM     18  N   LIG    1       25.286 -26.565   6.525  0.00  0.00    -0.300 NA
ATOM     19  C   LIG    1       25.992 -27.471   7.443  0.00  0.00    +0.084 C 
ATOM     20  C   LIG    1       25.234 -28.793   7.603  0.00  0.00    +0.015 C 
ATOM     21  C   LIG    1       24.998 -29.461   6.253  0.00  0.00    +0.002 C 
ATOM     22  C   LIG    1       24.327 -28.487   5.292  0.00  0.00    +0.015 C 
ATOM     23  C   LIG    1       25.104 -27.171   5.202  0.00  0.00    +0.084 C 
ENDBRANCH  17  18
ENDBRANCH  16  17
ENDBRANCH  15  16
ENDBRANCH   1  15
TORSDOF 6
ENDMDL
MODEL 7
REMARK VINA RESULT:      -8.6      2.818      6.510
REMARK  Name = *****
REMARK                            x       y       z     vdW  Elec       q    Type
REMARK                         _______ _______ _______ _____ _____    ______ ____
ROOT
ATOM      1  C   LIG    1       26.138 -21.463   6.165  0.00  0.00    +0.178 C 
ENDROOT
BRANCH   1   6
ATOM      2 CL   LIG    1       21.473 -18.311   3.886  0.00  0.00    -0.084 Cl
ATOM      3  C   LIG    1       22.784 -19.221   4.531  0.00  0.00    +0.041 A 
ATOM      4  C   LIG    1       23.957 -19.365   3.793  0.00  0.00    +0.020 A 
ATOM      5  C   LIG    1       25.026 -20.098   4.322  0.00  0.00    +0.008 A 
ATOM      6  C   LIG    1       24.935 -20.708   5.589  0.00  0.00    -0.014 A 
ATOM      7  C   LIG    1       23.736 -20.555   6.308  0.00  0.00    +0.008 A 
ATOM      8  C   LIG    1       22.671 -19.810   5.786  0.00  0.00    +0.020 A 
ENDBRANCH   1   6
BRANCH   1   9
ATOM      9  C   LIG    1       27.316 -20.541   6.470  0.00  0.00    -0.015 A 
ATOM     10  C   LIG    1       27.942 -19.787   5.458  0.00  0.00    +0.006 A 
ATOM     11  C   LIG    1       29.036 -18.971   5.750  0.00  0.00    +0.000 A 
ATOM     12  C   LIG    1       29.535 -18.899   7.045  0.00  0.00    +0.000 A 
ATOM     13  C   LIG    1       28.917 -19.626   8.065  0.00  0.00    +0.000 A 
ATOM     14  C   LIG    1       27.804 -20.419   7.781  0.00  0.00    +0.006 A 
ENDBRANCH   1   9
BRANCH   1  15
ATOM     15  O   LIG    1       25.751 -22.211   7.338  0.00  0.00    -0.366 OA
BRANCH  15  16
ATOM     16  C   LIG    1       26.021 -23.616   7.193  0.00  0.00    +0.176 C 
BRANCH  16  17
ATOM     17  C   LIG    1       24.922 -24.304   6.360  0.00  0.00    +0.112 C 
BRANCH  17  18
ATOM     18  N   LIG    1       24.806 -25.773   6.488  0.00  0.00    -0.300 NA
ATOM     19  C   LIG    1       26.032 -26.393   7.012  0.00  0.00    +0.084 C 
ATOM     20  C   LIG    1       25.826 -27.888   7.272  0.00  0.00    +0.015 C 
ATOM     21  C   LIG    1       25.349 -28.605   6.014  0.00  0.00    +0.002 C 
ATOM     22  C   LIG    1       24.118 -27.911   5.444  0.00  0.00    +0.015 C 
ATOM     23  C   LIG    1       24.367 -26.414   5.244  0.00  0.00    +0.084 C 
ENDBRANCH  17  18
ENDBRANCH  16  17
ENDBRANCH  15  16
ENDBRANCH   1  15
TORSDOF 6
ENDMDL
MODEL 8
REMARK VINA RESULT:      -7.9      2.910      6.123
REMARK  Name = *****
REMARK                            x       y       z     vdW  Elec       q    Type
REMARK                         _______ _______ _______ _____ _____    ______ ____
ROOT
ATOM      1  C   LIG    1       25.147 -22.397   6.542  0.00  0.00    +0.178 C 
ENDROOT
BRANCH   1   6
ATOM      2 CL   LIG    1       30.432 -19.416   6.836  0.00  0.00    -0.084 Cl
ATOM      3  C   LIG    1       28.929 -20.254   6.771  0.00  0.00    +0.041 A 
ATOM      4  C   LIG    1       27.973 -19.889   5.826  0.00  0.00    +0.020 A 
ATOM      5  C   LIG    1       26.754 -20.576   5.768  0.00  0.00    +0.008 A 
ATOM      6  C   LIG    1       26.469 -21.628   6.660  0.00  0.00    -0.014 A 
ATOM      7  C   LIG    1       27.447 -21.969   7.610  0.00  0.00    +0.008 A 
ATOM      8  C   LIG    1       28.673 -21.293   7.660  0.00  0.00    +0.020 A 
ENDBRANCH   1   6
BRANCH   1   9
ATOM      9  C   LIG    1       25.356 -23.875   6.227  0.00  0.00    -0.015 A 
ATOM     10  C   LIG    1       25.088 -24.401   4.948  0.00  0.00    +0.006 A 
ATOM     11  C   LIG    1       25.257 -25.761   4.686  0.00  0.00    +0.000 A 
ATOM     12  C   LIG    1       25.683 -26.624   5.690  0.00  0.00    +0.000 A 
ATOM     13  C   LIG    1       25.972 -26.118   6.959  0.00  0.00    +0.000 A 
ATOM     14  C   LIG    1       25.831 -24.754   7.215  0.00  0.00    +0.006 A 
ENDBRANCH   1   9
BRANCH   1  15
ATOM     15  O   LIG    1       24.357 -22.229   7.739  0.00  0.00    -0.366 OA
BRANCH  15  16
ATOM     16  C   LIG    1       23.087 -21.615   7.464  0.00  0.00    +0.176 C 
BRANCH  16  17
ATOM     17  C   LIG    1       22.604 -21.964   6.042  0.00  0.00    +0.112 C 
BRANCH  17  18
ATOM     18  N   LIG    1       22.662 -20.886   5.032  0.00  0.00    -0.300 NA
ATOM     19  C   LIG    1       23.831 -21.002   4.148  0.00  0.00    +0.084 C 
ATOM     20  C   LIG    1       23.779 -19.962   3.025  0.00  0.00    +0.015 C 
ATOM     21  C   LIG    1       23.661 -18.550   3.587  0.00  0.00    +0.002 C 
ATOM     22  C   LIG    1       22.485 -18.462   4.554  0.00  0.00    +0.015 C 
ATOM     23  C   LIG    1       22.568 -19.549   5.628  0.00  0.00    +0.084 C 
ENDBRANCH  17  18
ENDBRANCH  16  17
ENDBRANCH  15  16
ENDBRANCH   1  15
TORSDOF 6
ENDMDL
MODEL 9
REMARK VINA RESULT:      -7.5      3.558      7.012
REMARK  Name = *****
REMARK                            x       y       z     vdW  Elec       q    Type
REMARK                         _______ _______ _______ _____ _____    ______ ____
ROOT
ATOM      1  C   LIG    1       28.822 -20.832   6.569  0.00  0.00    +0.178 C 
ENDROOT
BRANCH   1   6
ATOM      2 CL   LIG    1       32.375 -17.454  10.154  0.00  0.00    -0.084 Cl
ATOM      3  C   LIG    1       31.378 -18.405   9.122  0.00  0.00    +0.041 A 
ATOM      4  C   LIG    1       31.452 -19.794   9.176  0.00  0.00    +0.020 A 
ATOM      5  C   LIG    1       30.634 -20.567   8.342  0.00  0.00    +0.008 A 
ATOM      6  C   LIG    1       29.741 -19.962   7.435  0.00  0.00    -0.014 A 
ATOM      7  C   LIG    1       29.695 -18.558   7.394  0.00  0.00    +0.008 A 
ATOM      8  C   LIG    1       30.501 -17.784   8.238  0.00  0.00    +0.020 A 
ENDBRANCH   1   6
BRANCH   1   9
ATOM      9  C   LIG    1       27.555 -21.258   7.306  0.00  0.00    -0.015 A 
ATOM     10  C   LIG    1       26.992 -22.537   7.124  0.00  0.00    +0.006 A 
ATOM     11  C   LIG    1       25.818 -22.900   7.784  0.00  0.00    +0.000 A 
ATOM     12  C   LIG    1       25.175 -21.998   8.626  0.00  0.00    +0.000 A 
ATOM     13  C   LIG    1       25.728 -20.733   8.833  0.00  0.00    +0.000 A 
ATOM     14  C   LIG    1       26.918 -20.379   8.196  0.00  0.00    +0.006 A 
ENDBRANCH   1   9
BRANCH   1  15
ATOM     15  O   LIG    1       28.499 -20.153   5.336  0.00  0.00    -0.366 OA
BRANCH  15  16
ATOM     16  C   LIG    1       27.256 -19.437   5.425  0.00  0.00    +0.176 C 
BRANCH  16  17
ATOM     17  C   LIG    1       26.219 -20.011   4.439  0.00  0.00    +0.112 C 
BRANCH  17  18
ATOM     18  N   LIG    1       24.810 -20.029   4.885  0.00  0.00    -0.300 NA
ATOM     19  C   LIG    1       24.292 -21.392   5.066  0.00  0.00    +0.084 C 
ATOM     20  C   LIG    1       22.884 -21.372   5.669  0.00  0.00    +0.015 C 
ATOM     21  C   LIG    1       21.932 -20.538   4.819  0.00  0.00    +0.002 C 
ATOM     22  C   LIG    1       22.514 -19.149   4.583  0.00  0.00    +0.015 C 
ATOM     23  C   LIG    1       23.935 -19.230   4.019  0.00  0.00    +0.084 C 
ENDBRANCH  17  18
ENDBRANCH  16  17
ENDBRANCH  15  16
ENDBRANCH   1  15
TORSDOF 6
ENDMDL
