MODEL 1
REMARK VINA RESULT:      -1.9      0.000      0.000
REMARK  Name = *****
REMARK                            x       y       z     vdW  Elec       q    Type
REMARK                         _______ _______ _______ _____ _____    ______ ____
ROOT
ATOM      1  C   LIG    1       27.167 -15.451   3.761  0.00  0.00    +0.166 C 
ENDROOT
BRANCH   1   2
ATOM      2  O   LIG    1       26.181 -16.080   2.931  0.00  0.00    -0.387 OA
ATOM      3  H   LIG    1       26.063 -16.980   3.293  0.00  0.00    +0.210 HD
ENDBRANCH   1   2
BRANCH   1   4
ATOM      4  C   LIG    1       27.979 -14.451   2.929  0.00  0.00    +0.115 C 
BRANCH   4   5
ATOM      5  N   LIG    1       27.345 -13.129   2.919  0.00  0.00    -0.310 NA
ATOM      6  H   LIG    1       27.091 -12.873   3.874  0.00  0.00    +0.122 HD
BRANCH   5   7
ATOM      7  C   LIG    1       26.126 -13.102   2.100  0.00  0.00    +0.122 C 
BRANCH   7   8
ATOM      8  C   LIG    1       25.395 -11.752   2.025  0.00  0.00    +0.244 C 
BRANCH   8   9
ATOM      9  O   LIG    1       24.121 -11.833   2.671  0.00  0.00    -0.487 OA
BRANCH   9  11
ATOM     10  C   LIG    1       24.402 -13.193   4.750  0.00  0.00    +0.162 A 
ATOM     11  C   LIG    1       23.890 -12.933   3.462  0.00  0.00    +0.162 A 
ATOM     12  C   LIG    1       23.033 -13.866   2.856  0.00  0.00    +0.049 A 
ATOM     13  C   LIG    1       22.739 -15.077   3.480  0.00  0.00    +0.004 A 
ATOM     14  C   LIG    1       23.290 -15.359   4.724  0.00  0.00    +0.004 A 
ATOM     15  C   LIG    1       24.111 -14.422   5.355  0.00  0.00    +0.049 A 
BRANCH  10  17
ATOM     16  C   LIG    1       26.458 -12.705   5.908  0.00  0.00    +0.277 C 
ATOM     17  O   LIG    1       25.240 -12.275   5.319  0.00  0.00    -0.491 OA
ENDBRANCH  10  17
ENDBRANCH   9  11
ENDBRANCH   8   9
ENDBRANCH   7   8
ENDBRANCH   5   7
ENDBRANCH   4   5
ENDBRANCH   1   4
BRANCH   1  18
ATOM     18  C   LIG    1       28.010 -16.533   4.449  0.00  0.00    +0.261 C 
BRANCH  18  19
ATOM     19  O   LIG    1       27.583 -17.859   4.083  0.00  0.00    -0.489 OA
BRANCH  19  20
ATOM     20  C   LIG    1       27.849 -18.863   4.998  0.00  0.00    +0.130 C 
ATOM     21  C   LIG    1       26.791 -19.723   5.431  0.00  0.00    +0.049 C 
ATOM     22  C   LIG    1       27.061 -20.626   6.465  0.00  0.00    +0.051 C 
ATOM     23  N   LIG    1       25.898 -21.287   6.759  0.00  0.00    -0.354 NA
ATOM     24  H   LIG    1       25.807 -21.990   7.481  0.00  0.00    +0.166 HD
ATOM     25  C   LIG    1       24.886 -20.908   5.925  0.00  0.00    +0.048 C 
ATOM     26  C   LIG    1       23.559 -21.361   5.880  0.00  0.00    +0.026 C 
ATOM     27  C   LIG    1       22.732 -20.835   4.892  0.00  0.00    +0.002 C 
ATOM     28  C   LIG    1       23.216 -19.898   3.985  0.00  0.00    +0.001 C 
ATOM     29  C   LIG    1       24.546 -19.440   4.056  0.00  0.00    +0.010 C 
ATOM     30  C   LIG    1       28.315 -20.774   7.062  0.00  0.00    +0.026 C 
ATOM     31  C   LIG    1       29.351 -19.984   6.588  0.00  0.00    +0.006 C 
ATOM     32  C   LIG    1       25.409 -19.943   5.057  0.00  0.00    +0.011 C 
ATOM     33  C   LIG    1       29.124 -19.056   5.576  0.00  0.00    +0.046 C 
ENDBRANCH  19  20
ENDBRANCH  18  19
ENDBRANCH   1  18
TORSDOF 11
ENDMDL
MODEL 2
REMARK VINA RESULT:      -1.5      2.154      6.793
REMARK  Name = *****
REMARK                            x       y       z     vdW  Elec       q    Type
REMARK                         _______ _______ _______ _____ _____    ______ ____
ROOT
ATOM      1  C   LIG    1       28.249 -18.620   4.670  0.00  0.00    +0.166 C 
ENDROOT
BRANCH   1   2
ATOM      2  O   LIG    1       26.844 -18.901   4.581  0.00  0.00    -0.387 OA
ATOM      3  H   LIG    1       26.771 -19.739   4.083  0.00  0.00    +0.210 HD
ENDBRANCH   1   2
BRANCH   1   4
ATOM      4  C   LIG    1       28.812 -19.218   5.965  0.00  0.00    +0.115 C 
BRANCH   4   5
ATOM      5  N   LIG    1       29.011 -20.665   5.841  0.00  0.00    -0.310 NA
ATOM      6  H   LIG    1       28.537 -20.996   5.000  0.00  0.00    +0.122 HD
BRANCH   5   7
ATOM      7  C   LIG    1       28.469 -21.402   6.990  0.00  0.00    +0.122 C 
BRANCH   7   8
ATOM      8  C   LIG    1       26.937 -21.505   7.062  0.00  0.00    +0.244 C 
BRANCH   8   9
ATOM      9  O   LIG    1       26.360 -21.348   5.762  0.00  0.00    -0.487 OA
BRANCH   9  11
ATOM     10  C   LIG    1       24.175 -21.345   4.548  0.00  0.00    +0.162 A 
ATOM     11  C   LIG    1       24.991 -21.241   5.693  0.00  0.00    +0.162 A 
ATOM     12  C   LIG    1       24.402 -21.003   6.945  0.00  0.00    +0.049 A 
ATOM     13  C   LIG    1       23.029 -20.797   7.062  0.00  0.00    +0.004 A 
ATOM     14  C   LIG    1       22.230 -20.842   5.926  0.00  0.00    +0.004 A 
ATOM     15  C   LIG    1       22.799 -21.118   4.680  0.00  0.00    +0.049 A 
BRANCH  10  17
ATOM     16  C   LIG    1       24.921 -20.498   2.419  0.00  0.00    +0.277 C 
ATOM     17  O   LIG    1       24.769 -21.570   3.338  0.00  0.00    -0.491 OA
ENDBRANCH  10  17
ENDBRANCH   9  11
ENDBRANCH   8   9
ENDBRANCH   7   8
ENDBRANCH   5   7
ENDBRANCH   4   5
ENDBRANCH   1   4
BRANCH   1  18
ATOM     18  C   LIG    1       28.470 -17.109   4.520  0.00  0.00    +0.261 C 
BRANCH  18  19
ATOM     19  O   LIG    1       27.586 -16.532   3.541  0.00  0.00    -0.489 OA
BRANCH  19  20
ATOM     20  C   LIG    1       27.028 -15.308   3.865  0.00  0.00    +0.130 C 
ATOM     21  C   LIG    1       25.615 -15.203   4.057  0.00  0.00    +0.049 C 
ATOM     22  C   LIG    1       25.068 -13.927   4.233  0.00  0.00    +0.051 C 
ATOM     23  N   LIG    1       23.708 -14.063   4.326  0.00  0.00    -0.354 NA
ATOM     24  H   LIG    1       23.064 -13.291   4.444  0.00  0.00    +0.166 HD
ATOM     25  C   LIG    1       23.335 -15.374   4.281  0.00  0.00    +0.048 C 
ATOM     26  C   LIG    1       22.050 -15.932   4.367  0.00  0.00    +0.026 C 
ATOM     27  C   LIG    1       21.948 -17.320   4.337  0.00  0.00    +0.002 C 
ATOM     28  C   LIG    1       23.085 -18.114   4.229  0.00  0.00    +0.001 C 
ATOM     29  C   LIG    1       24.365 -17.537   4.124  0.00  0.00    +0.010 C 
ATOM     30  C   LIG    1       25.828 -12.756   4.287  0.00  0.00    +0.026 C 
ATOM     31  C   LIG    1       27.204 -12.875   4.169  0.00  0.00    +0.006 C 
ATOM     32  C   LIG    1       24.503 -16.130   4.138  0.00  0.00    +0.011 C 
ATOM     33  C   LIG    1       27.789 -14.121   3.969  0.00  0.00    +0.046 C 
ENDBRANCH  19  20
ENDBRANCH  18  19
ENDBRANCH   1  18
TORSDOF 11
ENDMDL
MODEL 3
REMARK VINA RESULT:      -0.2      1.355      2.431
REMARK  Name = *****
REMARK                            x       y       z     vdW  Elec       q    Type
REMARK                         _______ _______ _______ _____ _____    ______ ____
ROOT
ATOM      1  C   LIG    1       26.005 -16.064   3.292  0.00  0.00    +0.166 C 
ENDROOT
BRANCH   1   2
ATOM      2  O   LIG    1       26.602 -15.221   2.296  0.00  0.00    -0.387 OA
ATOM      3  H   LIG    1       26.733 -15.788   1.511  0.00  0.00    +0.210 HD
ENDBRANCH   1   2
BRANCH   1   4
ATOM      4  C   LIG    1       25.261 -15.202   4.318  0.00  0.00    +0.115 C 
BRANCH   4   5
ATOM      5  N   LIG    1       23.878 -14.950   3.900  0.00  0.00    -0.310 NA
ATOM      6  H   LIG    1       23.421 -15.842   3.705  0.00  0.00    +0.122 HD
BRANCH   5   7
ATOM      7  C   LIG    1       23.805 -14.125   2.687  0.00  0.00    +0.122 C 
BRANCH   7   8
ATOM      8  C   LIG    1       23.995 -12.613   2.889  0.00  0.00    +0.244 C 
BRANCH   8   9
ATOM      9  O   LIG    1       25.343 -12.233   2.599  0.00  0.00    -0.487 OA
BRANCH   9  11
ATOM     10  C   LIG    1       26.074 -12.723   4.939  0.00  0.00    +0.162 A 
ATOM     11  C   LIG    1       26.287 -12.491   3.565  0.00  0.00    +0.162 A 
ATOM     12  C   LIG    1       27.595 -12.514   3.053  0.00  0.00    +0.049 A 
ATOM     13  C   LIG    1       28.690 -12.692   3.897  0.00  0.00    +0.004 A 
ATOM     14  C   LIG    1       28.484 -12.863   5.260  0.00  0.00    +0.004 A 
ATOM     15  C   LIG    1       27.186 -12.883   5.776  0.00  0.00    +0.049 A 
BRANCH  10  17
ATOM     16  C   LIG    1       24.116 -11.447   5.525  0.00  0.00    +0.277 C 
ATOM     17  O   LIG    1       24.795 -12.690   5.418  0.00  0.00    -0.491 OA
ENDBRANCH  10  17
ENDBRANCH   9  11
ENDBRANCH   8   9
ENDBRANCH   7   8
ENDBRANCH   5   7
ENDBRANCH   4   5
ENDBRANCH   1   4
BRANCH   1  18
ATOM     18  C   LIG    1       27.085 -16.974   3.893  0.00  0.00    +0.261 C 
BRANCH  18  19
ATOM     19  O   LIG    1       26.766 -18.368   3.726  0.00  0.00    -0.489 OA
BRANCH  19  20
ATOM     20  C   LIG    1       27.141 -19.211   4.757  0.00  0.00    +0.130 C 
ATOM     21  C   LIG    1       26.150 -19.999   5.422  0.00  0.00    +0.049 C 
ATOM     22  C   LIG    1       26.538 -20.723   6.555  0.00  0.00    +0.051 C 
ATOM     23  N   LIG    1       25.424 -21.339   7.061  0.00  0.00    -0.354 NA
ATOM     24  H   LIG    1       25.419 -21.919   7.891  0.00  0.00    +0.166 HD
ATOM     25  C   LIG    1       24.330 -21.106   6.281  0.00  0.00    +0.048 C 
ATOM     26  C   LIG    1       23.015 -21.572   6.438  0.00  0.00    +0.026 C 
ATOM     27  C   LIG    1       22.086 -21.217   5.465  0.00  0.00    +0.002 C 
ATOM     28  C   LIG    1       22.459 -20.433   4.378  0.00  0.00    +0.001 C 
ATOM     29  C   LIG    1       23.778 -19.958   4.246  0.00  0.00    +0.010 C 
ATOM     30  C   LIG    1       27.847 -20.764   7.042  0.00  0.00    +0.026 C 
ATOM     31  C   LIG    1       28.814 -20.052   6.350  0.00  0.00    +0.006 C 
ATOM     32  C   LIG    1       24.744 -20.288   5.224  0.00  0.00    +0.011 C 
ATOM     33  C   LIG    1       28.470 -19.299   5.231  0.00  0.00    +0.046 C 
ENDBRANCH  19  20
ENDBRANCH  18  19
ENDBRANCH   1  18
TORSDOF 11
ENDMDL
MODEL 4
REMARK VINA RESULT:       0.6      2.212      7.872
REMARK  Name = *****
REMARK                            x       y       z     vdW  Elec       q    Type
REMARK                         _______ _______ _______ _____ _____    ______ ____
ROOT
ATOM      1  C   LIG    1       21.972 -19.251   3.854  0.00  0.00    +0.166 C 
ENDROOT
BRANCH   1   2
ATOM      2  O   LIG    1       20.610 -18.863   3.623  0.00  0.00    -0.387 OA
ATOM      3  H   LIG    1       20.348 -18.336   4.404  0.00  0.00    +0.210 HD
ENDBRANCH   1   2
BRANCH   1   4
ATOM      4  C   LIG    1       22.022 -20.720   4.291  0.00  0.00    +0.115 C 
BRANCH   4   5
ATOM      5  N   LIG    1       23.372 -21.103   4.717  0.00  0.00    -0.310 NA
ATOM      6  H   LIG    1       23.683 -21.901   4.162  0.00  0.00    +0.122 HD
BRANCH   5   7
ATOM      7  C   LIG    1       23.420 -21.486   6.134  0.00  0.00    +0.122 C 
BRANCH   7   8
ATOM      8  C   LIG    1       24.610 -20.937   6.939  0.00  0.00    +0.244 C 
BRANCH   8   9
ATOM      9  O   LIG    1       25.827 -21.566   6.529  0.00  0.00    -0.487 OA
BRANCH   9  11
ATOM     10  C   LIG    1       26.955 -19.728   5.265  0.00  0.00    +0.162 A 
ATOM     11  C   LIG    1       26.890 -20.744   6.241  0.00  0.00    +0.162 A 
ATOM     12  C   LIG    1       28.008 -20.998   7.052  0.00  0.00    +0.049 A 
ATOM     13  C   LIG    1       29.204 -20.308   6.859  0.00  0.00    +0.004 A 
ATOM     14  C   LIG    1       29.287 -19.347   5.859  0.00  0.00    +0.004 A 
ATOM     15  C   LIG    1       28.169 -19.056   5.072  0.00  0.00    +0.049 A 
BRANCH  10  17
ATOM     16  C   LIG    1       25.956 -18.617   3.375  0.00  0.00    +0.277 C 
ATOM     17  O   LIG    1       25.859 -19.501   4.482  0.00  0.00    -0.491 OA
ENDBRANCH  10  17
ENDBRANCH   9  11
ENDBRANCH   8   9
ENDBRANCH   7   8
ENDBRANCH   5   7
ENDBRANCH   4   5
ENDBRANCH   1   4
BRANCH   1  18
ATOM     18  C   LIG    1       22.613 -18.272   4.847  0.00  0.00    +0.261 C 
BRANCH  18  19
ATOM     19  O   LIG    1       23.149 -17.111   4.186  0.00  0.00    -0.489 OA
BRANCH  19  20
ATOM     20  C   LIG    1       22.923 -15.894   4.804  0.00  0.00    +0.130 C 
ATOM     21  C   LIG    1       23.874 -14.837   4.653  0.00  0.00    +0.049 C 
ATOM     22  C   LIG    1       23.691 -13.675   5.411  0.00  0.00    +0.051 C 
ATOM     23  N   LIG    1       24.747 -12.839   5.160  0.00  0.00    -0.354 NA
ATOM     24  H   LIG    1       24.872 -11.932   5.590  0.00  0.00    +0.166 HD
ATOM     25  C   LIG    1       25.587 -13.368   4.223  0.00  0.00    +0.048 C 
ATOM     26  C   LIG    1       26.759 -12.822   3.677  0.00  0.00    +0.026 C 
ATOM     27  C   LIG    1       27.414 -13.557   2.694  0.00  0.00    +0.002 C 
ATOM     28  C   LIG    1       26.914 -14.785   2.274  0.00  0.00    +0.001 C 
ATOM     29  C   LIG    1       25.747 -15.327   2.846  0.00  0.00    +0.010 C 
ATOM     30  C   LIG    1       22.606 -13.467   6.266  0.00  0.00    +0.026 C 
ATOM     31  C   LIG    1       21.653 -14.470   6.354  0.00  0.00    +0.006 C 
ATOM     32  C   LIG    1       25.064 -14.612   3.857  0.00  0.00    +0.011 C 
ATOM     33  C   LIG    1       21.806 -15.652   5.635  0.00  0.00    +0.046 C 
ENDBRANCH  19  20
ENDBRANCH  18  19
ENDBRANCH   1  18
TORSDOF 11
ENDMDL
