MODEL 1
REMARK VINA RESULT:      -8.5      0.000      0.000
REMARK  Name = *****
REMARK                            x       y       z     vdW  Elec       q    Type
REMARK                         _______ _______ _______ _____ _____    ______ ____
ROOT
ATOM      1  C   LIG    1       25.771 -23.142   7.657  0.00  0.00    +0.053 C 
ATOM      2  C   LIG    1       25.444 -21.650   7.605  0.00  0.00    +0.187 C 
ENDROOT
BRANCH   2   3
ATOM      3  C   LIG    1       26.173 -20.845   8.710  0.00  0.00    +0.125 C 
BRANCH   3   4
ATOM      4  N   LIG    1       27.367 -20.128   8.235  0.00  0.00    -0.310 NA
ATOM      5  H   LIG    1       27.978 -19.916   9.023  0.00  0.00    +0.122 HD
BRANCH   4   6
ATOM      6  C   LIG    1       28.125 -20.859   7.206  0.00  0.00    +0.054 C 
ATOM      7  C   LIG    1       28.384 -20.056   5.916  0.00  0.00    +0.019 C 
ATOM      8  C   LIG    1       29.283 -18.841   6.152  0.00  0.00    +0.002 C 
ATOM      9  C   LIG    1       30.612 -19.250   6.781  0.00  0.00    +0.000 C 
ATOM     10  C   LIG    1       30.414 -20.082   8.046  0.00  0.00    +0.002 C 
ATOM     11  C   LIG    1       29.486 -21.276   7.800  0.00  0.00    +0.019 C 
ENDBRANCH   4   6
ENDBRANCH   3   4
ENDBRANCH   2   3
BRANCH   2  12
ATOM     12  O   LIG    1       24.012 -21.527   7.729  0.00  0.00    -0.457 OA
BRANCH  12  13
ATOM     13  C   LIG    1       23.265 -21.897   6.661  0.00  0.00    +0.340 C 
ATOM     14  O   LIG    1       22.531 -22.869   6.582  0.00  0.00    -0.245 OA
BRANCH  13  15
ATOM     15  C   LIG    1       23.435 -20.887   5.584  0.00  0.00    +0.059 A 
ATOM     16  C   LIG    1       22.562 -19.796   5.548  0.00  0.00    +0.015 A 
ATOM     17  C   LIG    1       22.688 -18.832   4.540  0.00  0.00    +0.001 A 
ATOM     18  C   LIG    1       23.678 -18.966   3.567  0.00  0.00    +0.000 A 
ATOM     19  C   LIG    1       24.548 -20.056   3.597  0.00  0.00    +0.001 A 
ATOM     20  C   LIG    1       24.428 -21.017   4.602  0.00  0.00    +0.015 A 
ENDBRANCH  13  15
ENDBRANCH  12  13
ENDBRANCH   2  12
TORSDOF 6
ENDMDL
MODEL 2
REMARK VINA RESULT:      -8.4      1.694      5.385
REMARK  Name = *****
REMARK                            x       y       z     vdW  Elec       q    Type
REMARK                         _______ _______ _______ _____ _____    ______ ____
ROOT
ATOM      1  C   LIG    1       25.797 -24.347   6.434  0.00  0.00    +0.053 C 
ATOM      2  C   LIG    1       25.602 -23.126   7.333  0.00  0.00    +0.187 C 
ENDROOT
BRANCH   2   3
ATOM      3  C   LIG    1       24.171 -22.539   7.230  0.00  0.00    +0.125 C 
BRANCH   3   4
ATOM      4  N   LIG    1       24.093 -21.296   6.448  0.00  0.00    -0.310 NA
ATOM      5  H   LIG    1       25.032 -20.935   6.281  0.00  0.00    +0.122 HD
BRANCH   4   6
ATOM      6  C   LIG    1       23.388 -21.449   5.163  0.00  0.00    +0.054 C 
ATOM      7  C   LIG    1       22.153 -20.541   5.005  0.00  0.00    +0.019 C 
ATOM      8  C   LIG    1       22.516 -19.056   4.978  0.00  0.00    +0.002 C 
ATOM      9  C   LIG    1       23.524 -18.752   3.874  0.00  0.00    +0.000 C 
ATOM     10  C   LIG    1       24.756 -19.651   3.962  0.00  0.00    +0.002 C 
ATOM     11  C   LIG    1       24.374 -21.133   4.020  0.00  0.00    +0.019 C 
ENDBRANCH   4   6
ENDBRANCH   3   4
ENDBRANCH   2   3
BRANCH   2  12
ATOM     12  O   LIG    1       26.594 -22.154   6.945  0.00  0.00    -0.457 OA
BRANCH  12  13
ATOM     13  C   LIG    1       27.087 -21.351   7.920  0.00  0.00    +0.340 C 
ATOM     14  O   LIG    1       26.878 -21.443   9.119  0.00  0.00    -0.245 OA
BRANCH  13  15
ATOM     15  C   LIG    1       27.985 -20.343   7.301  0.00  0.00    +0.059 A 
ATOM     16  C   LIG    1       27.739 -19.949   5.983  0.00  0.00    +0.015 A 
ATOM     17  C   LIG    1       28.574 -19.009   5.366  0.00  0.00    +0.001 A 
ATOM     18  C   LIG    1       29.655 -18.473   6.063  0.00  0.00    +0.000 A 
ATOM     19  C   LIG    1       29.907 -18.867   7.377  0.00  0.00    +0.001 A 
ATOM     20  C   LIG    1       29.075 -19.801   7.997  0.00  0.00    +0.015 A 
ENDBRANCH  13  15
ENDBRANCH  12  13
ENDBRANCH   2  12
TORSDOF 6
ENDMDL
MODEL 3
REMARK VINA RESULT:      -8.2      2.282      6.761
REMARK  Name = *****
REMARK                            x       y       z     vdW  Elec       q    Type
REMARK                         _______ _______ _______ _____ _____    ______ ____
ROOT
ATOM      1  C   LIG    1       25.856 -20.696   8.853  0.00  0.00    +0.053 C 
ATOM      2  C   LIG    1       26.632 -20.382   7.573  0.00  0.00    +0.187 C 
ENDROOT
BRANCH   2   3
ATOM      3  C   LIG    1       26.309 -21.375   6.428  0.00  0.00    +0.125 C 
BRANCH   3   4
ATOM      4  N   LIG    1       25.847 -20.726   5.191  0.00  0.00    -0.310 NA
ATOM      5  H   LIG    1       26.595 -20.734   4.498  0.00  0.00    +0.122 HD
BRANCH   4   6
ATOM      6  C   LIG    1       24.638 -21.341   4.617  0.00  0.00    +0.054 C 
ATOM      7  C   LIG    1       23.452 -21.445   5.596  0.00  0.00    +0.019 C 
ATOM      8  C   LIG    1       22.923 -20.076   6.026  0.00  0.00    +0.002 C 
ATOM      9  C   LIG    1       22.523 -19.233   4.819  0.00  0.00    +0.000 C 
ATOM     10  C   LIG    1       23.652 -19.127   3.796  0.00  0.00    +0.002 C 
ATOM     11  C   LIG    1       24.191 -20.505   3.400  0.00  0.00    +0.019 C 
ENDBRANCH   4   6
ENDBRANCH   3   4
ENDBRANCH   2   3
BRANCH   2  12
ATOM     12  O   LIG    1       28.033 -20.413   7.911  0.00  0.00    -0.457 OA
BRANCH  12  13
ATOM     13  C   LIG    1       28.881 -19.744   7.092  0.00  0.00    +0.340 C 
ATOM     14  O   LIG    1       28.847 -19.711   5.873  0.00  0.00    -0.245 OA
BRANCH  13  15
ATOM     15  C   LIG    1       29.857 -18.993   7.923  0.00  0.00    +0.059 A 
ATOM     16  C   LIG    1       31.192 -18.951   7.512  0.00  0.00    +0.015 A 
ATOM     17  C   LIG    1       32.139 -18.261   8.278  0.00  0.00    +0.001 A 
ATOM     18  C   LIG    1       31.753 -17.624   9.456  0.00  0.00    +0.000 A 
ATOM     19  C   LIG    1       30.423 -17.667   9.873  0.00  0.00    +0.001 A 
ATOM     20  C   LIG    1       29.474 -18.351   9.110  0.00  0.00    +0.015 A 
ENDBRANCH  13  15
ENDBRANCH  12  13
ENDBRANCH   2  12
TORSDOF 6
ENDMDL
MODEL 4
REMARK VINA RESULT:      -8.2      3.298      7.339
REMARK  Name = *****
REMARK                            x       y       z     vdW  Elec       q    Type
REMARK                         _______ _______ _______ _____ _____    ______ ____
ROOT
ATOM      1  C   LIG    1       28.162 -19.543   5.582  0.00  0.00    +0.053 C 
ATOM      2  C   LIG    1       29.201 -20.090   6.561  0.00  0.00    +0.187 C 
ENDROOT
BRANCH   2   3
ATOM      3  C   LIG    1       28.635 -21.226   7.450  0.00  0.00    +0.125 C 
BRANCH   3   4
ATOM      4  N   LIG    1       27.434 -21.872   6.898  0.00  0.00    -0.310 NA
ATOM      5  H   LIG    1       27.707 -22.633   6.277  0.00  0.00    +0.122 HD
BRANCH   4   6
ATOM      6  C   LIG    1       26.510 -22.381   7.926  0.00  0.00    +0.054 C 
ATOM      7  C   LIG    1       25.563 -21.316   8.512  0.00  0.00    +0.019 C 
ATOM      8  C   LIG    1       24.587 -20.763   7.473  0.00  0.00    +0.002 C 
ATOM      9  C   LIG    1       23.772 -21.880   6.829  0.00  0.00    +0.000 C 
ATOM     10  C   LIG    1       24.662 -22.984   6.262  0.00  0.00    +0.002 C 
ATOM     11  C   LIG    1       25.655 -23.504   7.306  0.00  0.00    +0.019 C 
ENDBRANCH   4   6
ENDBRANCH   3   4
ENDBRANCH   2   3
BRANCH   2  12
ATOM     12  O   LIG    1       29.655 -18.979   7.360  0.00  0.00    -0.457 OA
BRANCH  12  13
ATOM     13  C   LIG    1       30.973 -18.941   7.675  0.00  0.00    +0.340 C 
ATOM     14  O   LIG    1       31.882 -19.499   7.083  0.00  0.00    -0.245 OA
BRANCH  13  15
ATOM     15  C   LIG    1       31.159 -18.052   8.850  0.00  0.00    +0.059 A 
ATOM     16  C   LIG    1       30.207 -18.089   9.872  0.00  0.00    +0.015 A 
ATOM     17  C   LIG    1       30.347 -17.255  10.989  0.00  0.00    +0.001 A 
ATOM     18  C   LIG    1       31.431 -16.383  11.077  0.00  0.00    +0.000 A 
ATOM     19  C   LIG    1       32.380 -16.340  10.056  0.00  0.00    +0.001 A 
ATOM     20  C   LIG    1       32.246 -17.171   8.943  0.00  0.00    +0.015 A 
ENDBRANCH  13  15
ENDBRANCH  12  13
ENDBRANCH   2  12
TORSDOF 6
ENDMDL
MODEL 5
REMARK VINA RESULT:      -8.2      3.319      5.190
REMARK  Name = *****
REMARK                            x       y       z     vdW  Elec       q    Type
REMARK                         _______ _______ _______ _____ _____    ______ ____
ROOT
ATOM      1  C   LIG    1       30.976 -21.471   9.140  0.00  0.00    +0.053 C 
ATOM      2  C   LIG    1       30.610 -20.695   7.874  0.00  0.00    +0.187 C 
ENDROOT
BRANCH   2   3
ATOM      3  C   LIG    1       31.586 -19.524   7.596  0.00  0.00    +0.125 C 
BRANCH   3   4
ATOM      4  N   LIG    1       32.001 -18.795   8.804  0.00  0.00    -0.310 NA
ATOM      5  H   LIG    1       33.019 -18.758   8.851  0.00  0.00    +0.122 HD
BRANCH   4   6
ATOM      6  C   LIG    1       31.453 -17.431   8.889  0.00  0.00    +0.054 C 
ATOM      7  C   LIG    1       30.201 -17.302   9.778  0.00  0.00    +0.019 C 
ATOM      8  C   LIG    1       30.492 -17.605  11.249  0.00  0.00    +0.002 C 
ATOM      9  C   LIG    1       31.603 -16.710  11.789  0.00  0.00    +0.000 C 
ATOM     10  C   LIG    1       32.859 -16.770  10.922  0.00  0.00    +0.002 C 
ATOM     11  C   LIG    1       32.545 -16.496   9.448  0.00  0.00    +0.019 C 
ENDBRANCH   4   6
ENDBRANCH   3   4
ENDBRANCH   2   3
BRANCH   2  12
ATOM     12  O   LIG    1       29.260 -20.219   8.048  0.00  0.00    -0.457 OA
BRANCH  12  13
ATOM     13  C   LIG    1       28.567 -19.904   6.926  0.00  0.00    +0.340 C 
ATOM     14  O   LIG    1       29.014 -19.406   5.905  0.00  0.00    -0.245 OA
BRANCH  13  15
ATOM     15  C   LIG    1       27.150 -20.312   7.108  0.00  0.00    +0.059 A 
ATOM     16  C   LIG    1       26.341 -20.438   5.976  0.00  0.00    +0.015 A 
ATOM     17  C   LIG    1       24.998 -20.810   6.113  0.00  0.00    +0.001 A 
ATOM     18  C   LIG    1       24.466 -21.046   7.379  0.00  0.00    +0.000 A 
ATOM     19  C   LIG    1       25.269 -20.917   8.512  0.00  0.00    +0.001 A 
ATOM     20  C   LIG    1       26.609 -20.550   8.380  0.00  0.00    +0.015 A 
ENDBRANCH  13  15
ENDBRANCH  12  13
ENDBRANCH   2  12
TORSDOF 6
ENDMDL
MODEL 6
REMARK VINA RESULT:      -8.2      2.755      4.243
REMARK  Name = *****
REMARK                            x       y       z     vdW  Elec       q    Type
REMARK                         _______ _______ _______ _____ _____    ______ ____
ROOT
ATOM      1  C   LIG    1       28.212 -20.115   6.169  0.00  0.00    +0.053 C 
ATOM      2  C   LIG    1       28.396 -20.416   7.656  0.00  0.00    +0.187 C 
ENDROOT
BRANCH   2   3
ATOM      3  C   LIG    1       29.882 -20.639   8.034  0.00  0.00    +0.125 C 
BRANCH   3   4
ATOM      4  N   LIG    1       30.334 -19.828   9.175  0.00  0.00    -0.310 NA
ATOM      5  H   LIG    1       31.348 -19.895   9.265  0.00  0.00    +0.122 HD
BRANCH   4   6
ATOM      6  C   LIG    1       29.940 -18.411   9.087  0.00  0.00    +0.054 C 
ATOM      7  C   LIG    1       29.852 -17.690  10.446  0.00  0.00    +0.019 C 
ATOM      8  C   LIG    1       31.209 -17.585  11.143  0.00  0.00    +0.002 C 
ATOM      9  C   LIG    1       32.236 -16.889  10.255  0.00  0.00    +0.000 C 
ATOM     10  C   LIG    1       32.338 -17.542   8.879  0.00  0.00    +0.002 C 
ATOM     11  C   LIG    1       30.966 -17.668   8.207  0.00  0.00    +0.019 C 
ENDBRANCH   4   6
ENDBRANCH   3   4
ENDBRANCH   2   3
BRANCH   2  12
ATOM     12  O   LIG    1       27.602 -21.583   7.953  0.00  0.00    -0.457 OA
BRANCH  12  13
ATOM     13  C   LIG    1       26.357 -21.374   8.446  0.00  0.00    +0.340 C 
ATOM     14  O   LIG    1       26.030 -20.543   9.278  0.00  0.00    -0.245 OA
BRANCH  13  15
ATOM     15  C   LIG    1       25.412 -22.298   7.769  0.00  0.00    +0.059 A 
ATOM     16  C   LIG    1       24.086 -21.892   7.600  0.00  0.00    +0.015 A 
ATOM     17  C   LIG    1       23.166 -22.744   6.976  0.00  0.00    +0.001 A 
ATOM     18  C   LIG    1       23.572 -24.001   6.531  0.00  0.00    +0.000 A 
ATOM     19  C   LIG    1       24.893 -24.413   6.702  0.00  0.00    +0.001 A 
ATOM     20  C   LIG    1       25.814 -23.565   7.321  0.00  0.00    +0.015 A 
ENDBRANCH  13  15
ENDBRANCH  12  13
ENDBRANCH   2  12
TORSDOF 6
ENDMDL
MODEL 7
REMARK VINA RESULT:      -8.2      3.874      6.952
REMARK  Name = *****
REMARK                            x       y       z     vdW  Elec       q    Type
REMARK                         _______ _______ _______ _____ _____    ______ ____
ROOT
ATOM      1  C   LIG    1       22.907 -24.007   6.751  0.00  0.00    +0.053 C 
ATOM      2  C   LIG    1       24.276 -24.521   6.306  0.00  0.00    +0.187 C 
ENDROOT
BRANCH   2   3
ATOM      3  C   LIG    1       25.055 -23.476   5.467  0.00  0.00    +0.125 C 
BRANCH   3   4
ATOM      4  N   LIG    1       24.234 -22.340   5.019  0.00  0.00    -0.310 NA
ATOM      5  H   LIG    1       23.250 -22.534   5.203  0.00  0.00    +0.122 HD
BRANCH   4   6
ATOM      6  C   LIG    1       24.608 -21.058   5.641  0.00  0.00    +0.054 C 
ATOM      7  C   LIG    1       25.359 -20.093   4.702  0.00  0.00    +0.019 C 
ATOM      8  C   LIG    1       24.496 -19.623   3.531  0.00  0.00    +0.002 C 
ATOM      9  C   LIG    1       23.207 -18.969   4.020  0.00  0.00    +0.000 C 
ATOM     10  C   LIG    1       22.439 -19.870   4.984  0.00  0.00    +0.002 C 
ATOM     11  C   LIG    1       23.326 -20.358   6.134  0.00  0.00    +0.019 C 
ENDBRANCH   4   6
ENDBRANCH   3   4
ENDBRANCH   2   3
BRANCH   2  12
ATOM     12  O   LIG    1       24.050 -25.729   5.553  0.00  0.00    -0.457 OA
BRANCH  12  13
ATOM     13  C   LIG    1       25.115 -26.544   5.356  0.00  0.00    +0.340 C 
ATOM     14  O   LIG    1       25.927 -26.480   4.447  0.00  0.00    -0.245 OA
BRANCH  13  15
ATOM     15  C   LIG    1       25.180 -27.525   6.469  0.00  0.00    +0.059 A 
ATOM     16  C   LIG    1       26.155 -27.352   7.455  0.00  0.00    +0.015 A 
ATOM     17  C   LIG    1       26.251 -28.265   8.513  0.00  0.00    +0.001 A 
ATOM     18  C   LIG    1       25.380 -29.352   8.577  0.00  0.00    +0.000 A 
ATOM     19  C   LIG    1       24.409 -29.531   7.592  0.00  0.00    +0.001 A 
ATOM     20  C   LIG    1       24.308 -28.621   6.538  0.00  0.00    +0.015 A 
ENDBRANCH  13  15
ENDBRANCH  12  13
ENDBRANCH   2  12
TORSDOF 6
ENDMDL
MODEL 8
REMARK VINA RESULT:      -8.2      1.371      2.219
REMARK  Name = *****
REMARK                            x       y       z     vdW  Elec       q    Type
REMARK                         _______ _______ _______ _____ _____    ______ ____
ROOT
ATOM      1  C   LIG    1       26.578 -20.367   8.348  0.00  0.00    +0.053 C 
ATOM      2  C   LIG    1       27.024 -21.658   7.661  0.00  0.00    +0.187 C 
ENDROOT
BRANCH   2   3
ATOM      3  C   LIG    1       28.539 -21.659   7.333  0.00  0.00    +0.125 C 
BRANCH   3   4
ATOM      4  N   LIG    1       29.385 -21.155   8.426  0.00  0.00    -0.310 NA
ATOM      5  H   LIG    1       29.568 -21.903   9.094  0.00  0.00    +0.122 HD
BRANCH   4   6
ATOM      6  C   LIG    1       30.661 -20.578   7.969  0.00  0.00    +0.054 C 
ATOM      7  C   LIG    1       30.521 -19.538   6.840  0.00  0.00    +0.019 C 
ATOM      8  C   LIG    1       29.764 -18.286   7.287  0.00  0.00    +0.002 C 
ATOM      9  C   LIG    1       30.426 -17.644   8.502  0.00  0.00    +0.000 C 
ATOM     10  C   LIG    1       30.624 -18.641   9.640  0.00  0.00    +0.002 C 
ATOM     11  C   LIG    1       31.354 -19.903   9.169  0.00  0.00    +0.019 C 
ENDBRANCH   4   6
ENDBRANCH   3   4
ENDBRANCH   2   3
BRANCH   2  12
ATOM     12  O   LIG    1       26.232 -21.794   6.464  0.00  0.00    -0.457 OA
BRANCH  12  13
ATOM     13  C   LIG    1       24.885 -21.818   6.613  0.00  0.00    +0.340 C 
ATOM     14  O   LIG    1       24.247 -22.509   7.391  0.00  0.00    -0.245 OA
BRANCH  13  15
ATOM     15  C   LIG    1       24.284 -20.812   5.700  0.00  0.00    +0.059 A 
ATOM     16  C   LIG    1       25.048 -20.344   4.627  0.00  0.00    +0.015 A 
ATOM     17  C   LIG    1       24.515 -19.387   3.754  0.00  0.00    +0.001 A 
ATOM     18  C   LIG    1       23.227 -18.895   3.960  0.00  0.00    +0.000 A 
ATOM     19  C   LIG    1       22.464 -19.356   5.033  0.00  0.00    +0.001 A 
ATOM     20  C   LIG    1       22.990 -20.312   5.903  0.00  0.00    +0.015 A 
ENDBRANCH  13  15
ENDBRANCH  12  13
ENDBRANCH   2  12
TORSDOF 6
ENDMDL
MODEL 9
REMARK VINA RESULT:      -8.1      2.798      4.212
REMARK  Name = *****
REMARK                            x       y       z     vdW  Elec       q    Type
REMARK                         _______ _______ _______ _____ _____    ______ ____
ROOT
ATOM      1  C   LIG    1       29.418 -18.956   6.193  0.00  0.00    +0.053 C 
ATOM      2  C   LIG    1       29.093 -19.602   7.540  0.00  0.00    +0.187 C 
ENDROOT
BRANCH   2   3
ATOM      3  C   LIG    1       30.348 -20.195   8.229  0.00  0.00    +0.125 C 
BRANCH   3   4
ATOM      4  N   LIG    1       30.798 -19.433   9.404  0.00  0.00    -0.310 NA
ATOM      5  H   LIG    1       31.815 -19.457   9.462  0.00  0.00    +0.122 HD
BRANCH   4   6
ATOM      6  C   LIG    1       30.336 -18.034   9.414  0.00  0.00    +0.054 C 
ATOM      7  C   LIG    1       29.995 -17.487  10.814  0.00  0.00    +0.019 C 
ATOM      8  C   LIG    1       31.219 -17.410  11.728  0.00  0.00    +0.002 C 
ATOM      9  C   LIG    1       32.326 -16.569  11.100  0.00  0.00    +0.000 C 
ATOM     10  C   LIG    1       32.679 -17.045   9.693  0.00  0.00    +0.002 C 
ATOM     11  C   LIG    1       31.439 -17.147   8.801  0.00  0.00    +0.019 C 
ENDBRANCH   4   6
ENDBRANCH   3   4
ENDBRANCH   2   3
BRANCH   2  12
ATOM     12  O   LIG    1       28.104 -20.622   7.292  0.00  0.00    -0.457 OA
BRANCH  12  13
ATOM     13  C   LIG    1       26.912 -20.494   7.924  0.00  0.00    +0.340 C 
ATOM     14  O   LIG    1       26.733 -20.328   9.120  0.00  0.00    -0.245 OA
BRANCH  13  15
ATOM     15  C   LIG    1       25.826 -20.537   6.912  0.00  0.00    +0.059 A 
ATOM     16  C   LIG    1       24.517 -20.759   7.347  0.00  0.00    +0.015 A 
ATOM     17  C   LIG    1       23.470 -20.817   6.418  0.00  0.00    +0.001 A 
ATOM     18  C   LIG    1       23.736 -20.661   5.059  0.00  0.00    +0.000 A 
ATOM     19  C   LIG    1       25.042 -20.444   4.620  0.00  0.00    +0.001 A 
ATOM     20  C   LIG    1       26.087 -20.382   5.543  0.00  0.00    +0.015 A 
ENDBRANCH  13  15
ENDBRANCH  12  13
ENDBRANCH   2  12
TORSDOF 6
ENDMDL
