MODEL 1
REMARK VINA RESULT:      -0.9      0.000      0.000
REMARK  Name = *****
REMARK                            x       y       z     vdW  Elec       q    Type
REMARK                         _______ _______ _______ _____ _____    ______ ____
ROOT
ATOM      1  C   LIG    1       23.736 -20.711   5.216  0.00  0.00    +0.132 C 
ATOM      2  C   LIG    1       22.758 -19.677   4.557  0.00  0.00    +0.011 C 
ATOM      3  C   LIG    1       21.385 -20.434   4.431  0.00  0.00    +0.015 C 
ATOM      4  C   LIG    1       23.441 -19.362   3.183  0.00  0.00    +0.002 C 
ATOM      5  C   LIG    1       24.395 -18.117   3.099  0.00  0.00    +0.000 C 
ATOM      6  C   LIG    1       23.753 -16.851   3.711  0.00  0.00    +0.018 C 
ATOM      7  C   LIG    1       23.255 -17.138   5.144  0.00  0.00    +0.009 C 
ATOM      8  C   LIG    1       24.730 -15.657   3.743  0.00  0.00    -0.066 C 
ATOM      9  C   LIG    1       24.097 -14.292   3.970  0.00  0.00    +0.038 C 
ATOM     10  C   LIG    1       25.081 -13.129   3.905  0.00  0.00    +0.079 C 
ATOM     11  C   LIG    1       26.339 -13.573   4.594  0.00  0.00    +0.138 C 
ATOM     12  O   LIG    1       26.726 -13.089   5.655  0.00  0.00    -0.297 OA
ATOM     13  C   LIG    1       27.063 -14.689   3.882  0.00  0.00    +0.105 C 
ATOM     14  C   LIG    1       26.075 -15.805   3.635  0.00  0.00    -0.063 C 
ATOM     15  C   LIG    1       26.729 -17.129   3.370  0.00  0.00    +0.031 C 
ATOM     16  C   LIG    1       25.799 -18.274   3.709  0.00  0.00    +0.009 C 
ATOM     17  C   LIG    1       24.184 -20.646   2.778  0.00  0.00    +0.008 C 
ATOM     18  C   LIG    1       22.363 -18.369   5.281  0.00  0.00    +0.011 C 
ATOM     19  C   LIG    1       24.138 -21.570   3.993  0.00  0.00    +0.049 C 
ENDROOT
BRANCH   1  21
ATOM     20  C   LIG    1       25.795 -19.780   6.613  0.00  0.00    +0.007 C 
ATOM     21  C   LIG    1       24.843 -20.103   5.977  0.00  0.00    -0.070 C 
ENDBRANCH   1  21
BRANCH   1  22
ATOM     22  O   LIG    1       23.086 -21.572   6.151  0.00  0.00    -0.376 OA
ATOM     23  H   LIG    1       23.789 -22.080   6.595  0.00  0.00    +0.211 HD
ENDBRANCH   1  22
TORSDOF 2
ENDMDL
MODEL 2
REMARK VINA RESULT:       0.5      1.314      6.549
REMARK  Name = *****
REMARK                            x       y       z     vdW  Elec       q    Type
REMARK                         _______ _______ _______ _____ _____    ______ ____
ROOT
ATOM      1  C   LIG    1       27.028 -13.040   4.654  0.00  0.00    +0.132 C 
ATOM      2  C   LIG    1       27.424 -14.100   3.569  0.00  0.00    +0.011 C 
ATOM      3  C   LIG    1       28.685 -13.497   2.848  0.00  0.00    +0.015 C 
ATOM      4  C   LIG    1       26.149 -14.178   2.662  0.00  0.00    +0.002 C 
ATOM      5  C   LIG    1       25.083 -15.288   2.979  0.00  0.00    +0.000 C 
ATOM      6  C   LIG    1       25.730 -16.680   3.162  0.00  0.00    +0.018 C 
ATOM      7  C   LIG    1       26.865 -16.613   4.205  0.00  0.00    +0.009 C 
ATOM      8  C   LIG    1       24.704 -17.748   3.595  0.00  0.00    -0.066 C 
ATOM      9  C   LIG    1       25.152 -19.195   3.437  0.00  0.00    +0.038 C 
ATOM     10  C   LIG    1       24.081 -20.221   3.789  0.00  0.00    +0.079 C 
ATOM     11  C   LIG    1       23.364 -19.714   5.006  0.00  0.00    +0.138 C 
ATOM     12  O   LIG    1       23.435 -20.265   6.102  0.00  0.00    -0.297 OA
ATOM     13  C   LIG    1       22.575 -18.450   4.768  0.00  0.00    +0.105 C 
ATOM     14  C   LIG    1       23.500 -17.435   4.136  0.00  0.00    -0.063 C 
ATOM     15  C   LIG    1       23.011 -16.023   4.269  0.00  0.00    +0.031 C 
ATOM     16  C   LIG    1       24.157 -15.038   4.183  0.00  0.00    +0.009 C 
ATOM     17  C   LIG    1       25.510 -12.780   2.710  0.00  0.00    +0.008 C 
ATOM     18  C   LIG    1       27.899 -15.518   3.963  0.00  0.00    +0.011 C 
ATOM     19  C   LIG    1       26.249 -12.009   3.802  0.00  0.00    +0.049 C 
ENDROOT
BRANCH   1  21
ATOM     20  C   LIG    1       25.831 -13.929   6.853  0.00  0.00    +0.007 C 
ATOM     21  C   LIG    1       26.313 -13.597   5.817  0.00  0.00    -0.070 C 
ENDBRANCH   1  21
BRANCH   1  22
ATOM     22  O   LIG    1       28.158 -12.369   5.213  0.00  0.00    -0.376 OA
ATOM     23  H   LIG    1       28.892 -13.012   5.208  0.00  0.00    +0.211 HD
ENDBRANCH   1  22
TORSDOF 2
ENDMDL
MODEL 3
REMARK VINA RESULT:       1.2      2.501      6.328
REMARK  Name = *****
REMARK                            x       y       z     vdW  Elec       q    Type
REMARK                         _______ _______ _______ _____ _____    ______ ____
ROOT
ATOM      1  C   LIG    1       24.629 -13.048   4.097  0.00  0.00    +0.132 C 
ATOM      2  C   LIG    1       26.189 -13.167   3.989  0.00  0.00    +0.011 C 
ATOM      3  C   LIG    1       26.698 -11.694   3.775  0.00  0.00    +0.015 C 
ATOM      4  C   LIG    1       26.392 -14.099   2.746  0.00  0.00    +0.002 C 
ATOM      5  C   LIG    1       26.555 -15.641   2.997  0.00  0.00    +0.000 C 
ATOM      6  C   LIG    1       27.592 -15.943   4.103  0.00  0.00    +0.018 C 
ATOM      7  C   LIG    1       27.258 -15.152   5.385  0.00  0.00    +0.009 C 
ATOM      8  C   LIG    1       27.666 -17.447   4.439  0.00  0.00    -0.066 C 
ATOM      9  C   LIG    1       28.893 -17.889   5.224  0.00  0.00    +0.038 C 
ATOM     10  C   LIG    1       28.975 -19.394   5.458  0.00  0.00    +0.079 C 
ATOM     11  C   LIG    1       27.587 -19.870   5.773  0.00  0.00    +0.138 C 
ATOM     12  O   LIG    1       27.261 -20.298   6.877  0.00  0.00    -0.297 OA
ATOM     13  C   LIG    1       26.623 -19.746   4.619  0.00  0.00    +0.105 C 
ATOM     14  C   LIG    1       26.681 -18.323   4.113  0.00  0.00    -0.063 C 
ATOM     15  C   LIG    1       25.478 -17.930   3.305  0.00  0.00    +0.031 C 
ATOM     16  C   LIG    1       25.275 -16.431   3.323  0.00  0.00    +0.009 C 
ATOM     17  C   LIG    1       25.203 -13.822   1.812  0.00  0.00    +0.008 C 
ATOM     18  C   LIG    1       27.044 -13.655   5.182  0.00  0.00    +0.011 C 
ATOM     19  C   LIG    1       24.228 -12.955   2.605  0.00  0.00    +0.049 C 
ENDROOT
BRANCH   1  21
ATOM     20  C   LIG    1       23.332 -14.966   5.400  0.00  0.00    +0.007 C 
ATOM     21  C   LIG    1       23.989 -14.123   4.878  0.00  0.00    -0.070 C 
ENDBRANCH   1  21
BRANCH   1  22
ATOM     22  O   LIG    1       24.207 -11.841   4.732  0.00  0.00    -0.376 OA
ATOM     23  H   LIG    1       23.246 -11.770   4.583  0.00  0.00    +0.211 HD
ENDBRANCH   1  22
TORSDOF 2
ENDMDL
