MODEL 1
REMARK VINA RESULT:      15.4      0.000      0.000
REMARK  Name = *****
REMARK                            x       y       z     vdW  Elec       q    Type
REMARK                         _______ _______ _______ _____ _____    ______ ____
ROOT
ATOM      1  O   LIG    1       22.030 -18.419   5.929  0.00  0.00    -0.245 OA
ATOM      2  C   LIG    1       23.059 -18.583   5.309  0.00  0.00    +0.341 C 
ATOM      3  C   LIG    1       23.217 -19.369   4.092  0.00  0.00    +0.067 A 
ATOM      4  C   LIG    1       24.527 -19.277   3.667  0.00  0.00    +0.019 A 
ATOM      5  C   LIG    1       24.943 -19.935   2.518  0.00  0.00    +0.009 A 
ATOM      6  C   LIG    1       24.004 -20.694   1.816  0.00  0.00    +0.001 A 
ATOM      7  C   LIG    1       22.675 -20.786   2.265  0.00  0.00    +0.001 A 
ATOM      8  C   LIG    1       25.295 -18.430   4.632  0.00  0.00    +0.196 C 
ATOM      9  C   LIG    1       26.372 -19.224   5.339  0.00  0.00    +0.047 A 
ATOM     10  C   LIG    1       27.710 -18.845   5.215  0.00  0.00    +0.140 A 
ATOM     11  C   LIG    1       28.725 -19.619   5.793  0.00  0.00    +0.092 A 
ATOM     12  C   LIG    1       28.395 -20.775   6.495  0.00  0.00    +0.120 A 
ATOM     13  C   LIG    1       27.072 -21.162   6.643  0.00  0.00    +0.046 A 
ATOM     14  O   LIG    1       28.125 -17.730   4.525  0.00  0.00    -0.455 OA
ATOM     15  C   LIG    1       27.181 -16.899   3.968  0.00  0.00    +0.140 A 
ATOM     16  C   LIG    1       27.669 -15.749   3.340  0.00  0.00    +0.092 A 
ATOM     17  C   LIG    1       26.787 -14.861   2.733  0.00  0.00    +0.120 A 
ATOM     18  C   LIG    1       25.419 -15.095   2.747  0.00  0.00    +0.046 A 
ATOM     19  C   LIG    1       24.932 -16.238   3.380  0.00  0.00    +0.015 A 
ATOM     20  C   LIG    1       26.063 -20.387   6.075  0.00  0.00    +0.015 A 
ATOM     21  C   LIG    1       25.809 -17.159   3.993  0.00  0.00    +0.047 A 
ATOM     22  C   LIG    1       22.267 -20.113   3.418  0.00  0.00    +0.015 A 
ATOM     23  O   LIG    1       24.283 -18.061   5.609  0.00  0.00    -0.440 OA
ENDROOT
BRANCH  12  24
ATOM     24  O   LIG    1       29.347 -21.571   7.059  0.00  0.00    -0.507 OA
ATOM     25  H   LIG    1       29.348 -22.430   6.605  0.00  0.00    +0.292 HD
ENDBRANCH  12  24
BRANCH  17  26
ATOM     26  O   LIG    1       27.304 -13.757   2.122  0.00  0.00    -0.507 OA
ATOM     27  H   LIG    1       27.240 -13.875   1.159  0.00  0.00    +0.292 HD
ENDBRANCH  17  26
TORSDOF 2
ENDMDL
MODEL 2
REMARK VINA RESULT:      15.5      1.369      4.990
REMARK  Name = *****
REMARK                            x       y       z     vdW  Elec       q    Type
REMARK                         _______ _______ _______ _____ _____    ______ ____
ROOT
ATOM      1  O   LIG    1       23.316 -20.287   1.812  0.00  0.00    -0.245 OA
ATOM      2  C   LIG    1       23.860 -19.653   2.692  0.00  0.00    +0.341 C 
ATOM      3  C   LIG    1       23.222 -19.109   3.883  0.00  0.00    +0.067 A 
ATOM      4  C   LIG    1       24.181 -18.490   4.661  0.00  0.00    +0.019 A 
ATOM      5  C   LIG    1       23.835 -17.890   5.863  0.00  0.00    +0.009 A 
ATOM      6  C   LIG    1       22.494 -17.924   6.254  0.00  0.00    +0.001 A 
ATOM      7  C   LIG    1       21.527 -18.549   5.449  0.00  0.00    +0.001 A 
ATOM      8  C   LIG    1       25.505 -18.587   3.971  0.00  0.00    +0.196 C 
ATOM      9  C   LIG    1       26.030 -17.224   3.574  0.00  0.00    +0.047 A 
ATOM     10  C   LIG    1       27.253 -16.775   4.078  0.00  0.00    +0.140 A 
ATOM     11  C   LIG    1       27.711 -15.484   3.787  0.00  0.00    +0.092 A 
ATOM     12  C   LIG    1       26.939 -14.642   2.991  0.00  0.00    +0.120 A 
ATOM     13  C   LIG    1       25.729 -15.071   2.469  0.00  0.00    +0.046 A 
ATOM     14  O   LIG    1       28.069 -17.535   4.884  0.00  0.00    -0.455 OA
ATOM     15  C   LIG    1       27.704 -18.828   5.175  0.00  0.00    +0.140 A 
ATOM     16  C   LIG    1       28.611 -19.564   5.943  0.00  0.00    +0.092 A 
ATOM     17  C   LIG    1       28.316 -20.876   6.302  0.00  0.00    +0.120 A 
ATOM     18  C   LIG    1       27.129 -21.473   5.900  0.00  0.00    +0.046 A 
ATOM     19  C   LIG    1       26.229 -20.742   5.127  0.00  0.00    +0.015 A 
ATOM     20  C   LIG    1       25.278 -16.359   2.752  0.00  0.00    +0.015 A 
ATOM     21  C   LIG    1       26.502 -19.406   4.761  0.00  0.00    +0.047 A 
ATOM     22  C   LIG    1       21.889 -19.156   4.245  0.00  0.00    +0.015 A 
ATOM     23  O   LIG    1       25.182 -19.323   2.759  0.00  0.00    -0.440 OA
ENDROOT
BRANCH  12  24
ATOM     24  O   LIG    1       27.332 -13.370   2.697  0.00  0.00    -0.507 OA
ATOM     25  H   LIG    1       26.556 -12.788   2.717  0.00  0.00    +0.292 HD
ENDBRANCH  12  24
BRANCH  17  26
ATOM     26  O   LIG    1       29.222 -21.554   7.061  0.00  0.00    -0.507 OA
ATOM     27  H   LIG    1       30.062 -21.605   6.573  0.00  0.00    +0.292 HD
ENDBRANCH  17  26
TORSDOF 2
ENDMDL
MODEL 3
REMARK VINA RESULT:      15.9      2.055      4.998
REMARK  Name = *****
REMARK                            x       y       z     vdW  Elec       q    Type
REMARK                         _______ _______ _______ _____ _____    ______ ____
ROOT
ATOM      1  O   LIG    1       26.953 -20.410   1.837  0.00  0.00    -0.245 OA
ATOM      2  C   LIG    1       26.266 -19.928   2.712  0.00  0.00    +0.341 C 
ATOM      3  C   LIG    1       26.469 -20.073   4.147  0.00  0.00    +0.067 A 
ATOM      4  C   LIG    1       25.506 -19.342   4.813  0.00  0.00    +0.019 A 
ATOM      5  C   LIG    1       25.479 -19.307   6.200  0.00  0.00    +0.009 A 
ATOM      6  C   LIG    1       26.444 -20.038   6.896  0.00  0.00    +0.001 A 
ATOM      7  C   LIG    1       27.414 -20.786   6.206  0.00  0.00    +0.001 A 
ATOM      8  C   LIG    1       24.601 -18.700   3.808  0.00  0.00    +0.196 C 
ATOM      9  C   LIG    1       23.188 -19.233   3.908  0.00  0.00    +0.047 A 
ATOM     10  C   LIG    1       22.134 -18.362   4.191  0.00  0.00    +0.140 A 
ATOM     11  C   LIG    1       20.834 -18.853   4.370  0.00  0.00    +0.092 A 
ATOM     12  C   LIG    1       20.593 -20.220   4.267  0.00  0.00    +0.120 A 
ATOM     13  C   LIG    1       21.622 -21.102   3.973  0.00  0.00    +0.046 A 
ATOM     14  O   LIG    1       22.287 -17.001   4.327  0.00  0.00    -0.455 OA
ATOM     15  C   LIG    1       23.526 -16.444   4.122  0.00  0.00    +0.140 A 
ATOM     16  C   LIG    1       23.595 -15.050   4.209  0.00  0.00    +0.092 A 
ATOM     17  C   LIG    1       24.814 -14.402   4.034  0.00  0.00    +0.120 A 
ATOM     18  C   LIG    1       25.970 -15.121   3.764  0.00  0.00    +0.046 A 
ATOM     19  C   LIG    1       25.899 -16.509   3.668  0.00  0.00    +0.015 A 
ATOM     20  C   LIG    1       22.913 -20.611   3.786  0.00  0.00    +0.015 A 
ATOM     21  C   LIG    1       24.676 -17.190   3.854  0.00  0.00    +0.047 A 
ATOM     22  C   LIG    1       27.436 -20.806   4.811  0.00  0.00    +0.015 A 
ATOM     23  O   LIG    1       25.166 -19.138   2.542  0.00  0.00    -0.440 OA
ENDROOT
BRANCH  12  24
ATOM     24  O   LIG    1       19.350 -20.748   4.453  0.00  0.00    -0.507 OA
ATOM     25  H   LIG    1       19.285 -21.581   3.959  0.00  0.00    +0.292 HD
ENDBRANCH  12  24
BRANCH  17  26
ATOM     26  O   LIG    1       24.840 -13.043   4.139  0.00  0.00    -0.507 OA
ATOM     27  H   LIG    1       25.752 -12.763   4.327  0.00  0.00    +0.292 HD
ENDBRANCH  17  26
TORSDOF 2
ENDMDL
MODEL 4
REMARK VINA RESULT:      17.8      1.996      5.265
REMARK  Name = *****
REMARK                            x       y       z     vdW  Elec       q    Type
REMARK                         _______ _______ _______ _____ _____    ______ ____
ROOT
ATOM      1  O   LIG    1       27.395 -13.899   1.812  0.00  0.00    -0.245 OA
ATOM      2  C   LIG    1       26.999 -14.552   2.754  0.00  0.00    +0.341 C 
ATOM      3  C   LIG    1       26.862 -14.089   4.128  0.00  0.00    +0.067 A 
ATOM      4  C   LIG    1       26.341 -15.112   4.895  0.00  0.00    +0.019 A 
ATOM      5  C   LIG    1       26.105 -14.929   6.250  0.00  0.00    +0.009 A 
ATOM      6  C   LIG    1       26.417 -13.688   6.811  0.00  0.00    +0.001 A 
ATOM      7  C   LIG    1       26.956 -12.658   6.021  0.00  0.00    +0.001 A 
ATOM      8  C   LIG    1       26.143 -16.318   4.030  0.00  0.00    +0.196 C 
ATOM      9  C   LIG    1       27.033 -17.465   4.458  0.00  0.00    +0.047 A 
ATOM     10  C   LIG    1       26.465 -18.676   4.857  0.00  0.00    +0.140 A 
ATOM     11  C   LIG    1       27.271 -19.717   5.335  0.00  0.00    +0.092 A 
ATOM     12  C   LIG    1       28.650 -19.540   5.415  0.00  0.00    +0.120 A 
ATOM     13  C   LIG    1       29.237 -18.351   5.012  0.00  0.00    +0.046 A 
ATOM     14  O   LIG    1       25.113 -18.929   4.826  0.00  0.00    -0.455 OA
ATOM     15  C   LIG    1       24.264 -17.969   4.328  0.00  0.00    +0.140 A 
ATOM     16  C   LIG    1       22.912 -18.317   4.264  0.00  0.00    +0.092 A 
ATOM     17  C   LIG    1       21.979 -17.400   3.790  0.00  0.00    +0.120 A 
ATOM     18  C   LIG    1       22.373 -16.138   3.369  0.00  0.00    +0.046 A 
ATOM     19  C   LIG    1       23.722 -15.793   3.425  0.00  0.00    +0.015 A 
ATOM     20  C   LIG    1       28.435 -17.320   4.528  0.00  0.00    +0.015 A 
ATOM     21  C   LIG    1       24.685 -16.703   3.913  0.00  0.00    +0.047 A 
ATOM     22  C   LIG    1       27.181 -12.853   4.657  0.00  0.00    +0.015 A 
ATOM     23  O   LIG    1       26.590 -15.854   2.727  0.00  0.00    -0.440 OA
ENDROOT
BRANCH  12  24
ATOM     24  O   LIG    1       29.474 -20.516   5.892  0.00  0.00    -0.507 OA
ATOM     25  H   LIG    1       29.002 -21.021   6.574  0.00  0.00    +0.292 HD
ENDBRANCH  12  24
BRANCH  17  26
ATOM     26  O   LIG    1       20.669 -17.776   3.754  0.00  0.00    -0.507 OA
ATOM     27  H   LIG    1       20.564 -18.587   4.280  0.00  0.00    +0.292 HD
ENDBRANCH  17  26
TORSDOF 2
ENDMDL
