MODEL 1
REMARK VINA RESULT:      -7.6      0.000      0.000
REMARK  Name = *****
REMARK                            x       y       z     vdW  Elec       q    Type
REMARK                         _______ _______ _______ _____ _____    ______ ____
ROOT
ATOM      1  C6    A A  1       30.442 -20.039   7.312  0.00  0.00    +0.147 A 
ATOM      2  C5    A A  1       29.131 -20.514   7.490  0.00  0.00    +0.147 A 
ATOM      3  N7    A A  1       28.585 -21.424   8.369  0.00  0.00    -0.231 NA
ATOM      4  C8    A A  1       27.305 -21.460   8.064  0.00  0.00    +0.203 A 
ATOM      5  N9    A A  1       27.000 -20.626   7.015  0.00  0.00    -0.285 N 
ATOM      6  C4    A A  1       28.155 -19.983   6.656  0.00  0.00    +0.167 A 
ATOM      7  N3    A A  1       28.327 -19.045   5.709  0.00  0.00    -0.216 NA
ATOM      8  C2    A A  1       29.624 -18.671   5.629  0.00  0.00    +0.225 A 
ATOM      9  N1    A A  1       30.667 -19.099   6.368  0.00  0.00    -0.219 NA
ENDROOT
BRANCH   5  10
ATOM     10  C1*   A A  1       25.670 -20.485   6.448  0.00  0.00    +0.253 C 
ATOM     11  C2*   A A  1       25.507 -21.151   5.085  0.00  0.00    +0.195 C 
ATOM     12  C3*   A A  1       24.012 -21.431   5.070  0.00  0.00    +0.178 C 
ATOM     13  C4*   A A  1       23.687 -21.746   6.528  0.00  0.00    +0.177 C 
ATOM     14  O4*   A A  1       24.666 -21.038   7.328  0.00  0.00    -0.346 OA
BRANCH  11  15
ATOM     15  O2*   A A  1       25.887 -20.287   4.010  0.00  0.00    -0.385 OA
ATOM     16  H2*   A A  1       25.794 -20.822   3.193  0.00  0.00    +0.210 HD
ENDBRANCH  11  15
BRANCH  12  17
ATOM     17  O3*   A A  1       23.350 -20.227   4.625  0.00  0.00    -0.386 OA
ATOM     18  H3*   A A  1       23.220 -19.631   5.386  0.00  0.00    +0.210 HD
ENDBRANCH  12  17
BRANCH  13  19
ATOM     19  C5*   A A  1       23.725 -23.243   6.846  0.00  0.00    +0.190 C 
BRANCH  19  20
ATOM     20  O5*   A A  1       22.490 -23.871   6.538  0.00  0.00    -0.392 OA
ATOM     21  H5*   A A  1       22.326 -24.519   7.259  0.00  0.00    +0.209 HD
ENDBRANCH  19  20
ENDBRANCH  13  19
ENDBRANCH   5  10
BRANCH   1  22
ATOM     22  N6    A A  1       31.521 -20.467   8.076  0.00  0.00    -0.341 N 
ATOM     23  H61   A A  1       31.417 -20.257   9.062  0.00  0.00    +0.144 HD
ATOM     24  H62   A A  1       32.403 -20.235   7.640  0.00  0.00    +0.144 HD
ENDBRANCH   1  22
TORSDOF 6
ENDMDL
MODEL 2
REMARK VINA RESULT:      -7.0      1.345      2.576
REMARK  Name = *****
REMARK                            x       y       z     vdW  Elec       q    Type
REMARK                         _______ _______ _______ _____ _____    ______ ____
ROOT
ATOM      1  C6    A A  1       29.433 -19.895   7.454  0.00  0.00    +0.147 A 
ATOM      2  C5    A A  1       28.243 -20.630   7.601  0.00  0.00    +0.147 A 
ATOM      3  N7    A A  1       27.792 -21.477   8.589  0.00  0.00    -0.231 NA
ATOM      4  C8    A A  1       26.603 -21.869   8.178  0.00  0.00    +0.203 A 
ATOM      5  N9    A A  1       26.273 -21.327   6.959  0.00  0.00    -0.285 N 
ATOM      6  C4    A A  1       27.301 -20.501   6.588  0.00  0.00    +0.167 A 
ATOM      7  N3    A A  1       27.396 -19.729   5.493  0.00  0.00    -0.216 NA
ATOM      8  C2    A A  1       28.579 -19.077   5.461  0.00  0.00    +0.225 A 
ATOM      9  N1    A A  1       29.579 -19.108   6.366  0.00  0.00    -0.219 NA
ENDROOT
BRANCH   5  10
ATOM     10  C1*   A A  1       25.036 -21.608   6.253  0.00  0.00    +0.253 C 
ATOM     11  C2*   A A  1       23.860 -20.743   6.698  0.00  0.00    +0.195 C 
ATOM     12  C3*   A A  1       22.995 -20.754   5.447  0.00  0.00    +0.178 C 
ATOM     13  C4*   A A  1       24.009 -20.783   4.306  0.00  0.00    +0.177 C 
ATOM     14  O4*   A A  1       25.196 -21.428   4.828  0.00  0.00    -0.346 OA
BRANCH  11  15
ATOM     15  O2*   A A  1       23.167 -21.304   7.816  0.00  0.00    -0.385 OA
ATOM     16  H2*   A A  1       22.279 -21.555   7.481  0.00  0.00    +0.210 HD
ENDBRANCH  11  15
BRANCH  12  17
ATOM     17  O3*   A A  1       22.197 -21.957   5.482  0.00  0.00    -0.386 OA
ATOM     18  H3*   A A  1       22.314 -22.396   6.345  0.00  0.00    +0.210 HD
ENDBRANCH  12  17
BRANCH  13  19
ATOM     19  C5*   A A  1       24.355 -19.392   3.769  0.00  0.00    +0.190 C 
BRANCH  19  20
ATOM     20  O5*   A A  1       25.691 -19.336   3.293  0.00  0.00    -0.392 OA
ATOM     21  H5*   A A  1       26.250 -19.729   4.001  0.00  0.00    +0.209 HD
ENDBRANCH  19  20
ENDBRANCH  13  19
ENDBRANCH   5  10
BRANCH   1  22
ATOM     22  N6    A A  1       30.463 -19.914   8.387  0.00  0.00    -0.341 N 
ATOM     23  H61   A A  1       30.925 -20.814   8.451  0.00  0.00    +0.144 HD
ATOM     24  H62   A A  1       30.191 -19.467   9.253  0.00  0.00    +0.144 HD
ENDBRANCH   1  22
TORSDOF 6
ENDMDL
MODEL 3
REMARK VINA RESULT:      -7.0      3.734      6.551
REMARK  Name = *****
REMARK                            x       y       z     vdW  Elec       q    Type
REMARK                         _______ _______ _______ _____ _____    ______ ____
ROOT
ATOM      1  C6    A A  1       25.259 -20.771   6.296  0.00  0.00    +0.147 A 
ATOM      2  C5    A A  1       26.587 -20.312   6.314  0.00  0.00    +0.147 A 
ATOM      3  N7    A A  1       27.376 -19.713   5.356  0.00  0.00    -0.231 NA
ATOM      4  C8    A A  1       28.531 -19.506   5.953  0.00  0.00    +0.203 A 
ATOM      5  N9    A A  1       28.531 -19.958   7.251  0.00  0.00    -0.285 N 
ATOM      6  C4    A A  1       27.279 -20.449   7.512  0.00  0.00    +0.167 A 
ATOM      7  N3    A A  1       26.805 -20.954   8.663  0.00  0.00    -0.216 NA
ATOM      8  C2    A A  1       25.525 -21.365   8.520  0.00  0.00    +0.225 A 
ATOM      9  N1    A A  1       24.738 -21.294   7.427  0.00  0.00    -0.219 NA
ENDROOT
BRANCH   5  10
ATOM     10  C1*   A A  1       29.679 -19.886   8.137  0.00  0.00    +0.253 C 
ATOM     11  C2*   A A  1       30.880 -19.163   7.535  0.00  0.00    +0.195 C 
ATOM     12  C3*   A A  1       31.586 -18.668   8.787  0.00  0.00    +0.178 C 
ATOM     13  C4*   A A  1       30.442 -18.354   9.748  0.00  0.00    +0.177 C 
ATOM     14  O4*   A A  1       29.342 -19.220   9.374  0.00  0.00    -0.346 OA
BRANCH  11  15
ATOM     15  O2*   A A  1       31.717 -20.040   6.776  0.00  0.00    -0.385 OA
ATOM     16  H2*   A A  1       32.383 -20.386   7.408  0.00  0.00    +0.210 HD
ENDBRANCH  11  15
BRANCH  12  17
ATOM     17  O3*   A A  1       32.410 -19.749   9.276  0.00  0.00    -0.386 OA
ATOM     18  H3*   A A  1       32.483 -20.436   8.587  0.00  0.00    +0.210 HD
ENDBRANCH  12  17
BRANCH  13  19
ATOM     19  C5*   A A  1       30.000 -16.889   9.704  0.00  0.00    +0.190 C 
BRANCH  19  20
ATOM     20  O5*   A A  1       30.205 -16.246  10.953  0.00  0.00    -0.392 OA
ATOM     21  H5*   A A  1       30.503 -15.332  10.745  0.00  0.00    +0.209 HD
ENDBRANCH  19  20
ENDBRANCH  13  19
ENDBRANCH   5  10
BRANCH   1  22
ATOM     22  N6    A A  1       24.439 -20.693   5.176  0.00  0.00    -0.341 N 
ATOM     23  H61   A A  1       24.637 -19.888   4.593  0.00  0.00    +0.144 HD
ATOM     24  H62   A A  1       23.471 -20.873   5.409  0.00  0.00    +0.144 HD
ENDBRANCH   1  22
TORSDOF 6
ENDMDL
MODEL 4
REMARK VINA RESULT:      -6.9      1.473      3.298
REMARK  Name = *****
REMARK                            x       y       z     vdW  Elec       q    Type
REMARK                         _______ _______ _______ _____ _____    ______ ____
ROOT
ATOM      1  C6    A A  1       31.506 -19.351   8.173  0.00  0.00    +0.147 A 
ATOM      2  C5    A A  1       30.260 -19.424   7.524  0.00  0.00    +0.147 A 
ATOM      3  N7    A A  1       29.660 -18.625   6.575  0.00  0.00    -0.231 NA
ATOM      4  C8    A A  1       28.494 -19.194   6.347  0.00  0.00    +0.203 A 
ATOM      5  N9    A A  1       28.306 -20.316   7.118  0.00  0.00    -0.285 N 
ATOM      6  C4    A A  1       29.445 -20.499   7.856  0.00  0.00    +0.167 A 
ATOM      7  N3    A A  1       29.731 -21.491   8.716  0.00  0.00    -0.216 NA
ATOM      8  C2    A A  1       30.947 -21.311   9.277  0.00  0.00    +0.225 A 
ATOM      9  N1    A A  1       31.836 -20.322   9.052  0.00  0.00    -0.219 NA
ENDROOT
BRANCH   5  10
ATOM     10  C1*   A A  1       27.100 -21.126   7.095  0.00  0.00    +0.253 C 
ATOM     11  C2*   A A  1       25.930 -20.512   7.859  0.00  0.00    +0.195 C 
ATOM     12  C3*   A A  1       24.747 -21.147   7.145  0.00  0.00    +0.178 C 
ATOM     13  C4*   A A  1       25.216 -21.261   5.696  0.00  0.00    +0.177 C 
ATOM     14  O4*   A A  1       26.660 -21.367   5.740  0.00  0.00    -0.346 OA
BRANCH  11  15
ATOM     15  O2*   A A  1       25.949 -20.857   9.246  0.00  0.00    -0.385 OA
ATOM     16  H2*   A A  1       25.277 -21.565   9.354  0.00  0.00    +0.210 HD
ENDBRANCH  11  15
BRANCH  12  17
ATOM     17  O3*   A A  1       24.528 -22.445   7.738  0.00  0.00    -0.386 OA
ATOM     18  H3*   A A  1       24.452 -22.349   8.706  0.00  0.00    +0.210 HD
ENDBRANCH  12  17
BRANCH  13  19
ATOM     19  C5*   A A  1       24.798 -20.071   4.829  0.00  0.00    +0.190 C 
BRANCH  19  20
ATOM     20  O5*   A A  1       25.843 -19.673   3.955  0.00  0.00    -0.392 OA
ATOM     21  H5*   A A  1       25.475 -18.944   3.404  0.00  0.00    +0.209 HD
ENDBRANCH  19  20
ENDBRANCH  13  19
ENDBRANCH   5  10
BRANCH   1  22
ATOM     22  N6    A A  1       32.431 -18.342   7.938  0.00  0.00    -0.341 N 
ATOM     23  H61   A A  1       32.261 -17.509   8.490  0.00  0.00    +0.144 HD
ATOM     24  H62   A A  1       32.607 -18.218   6.949  0.00  0.00    +0.144 HD
ENDBRANCH   1  22
TORSDOF 6
ENDMDL
MODEL 5
REMARK VINA RESULT:      -6.7      3.255      5.928
REMARK  Name = *****
REMARK                            x       y       z     vdW  Elec       q    Type
REMARK                         _______ _______ _______ _____ _____    ______ ____
ROOT
ATOM      1  C6    A A  1       24.140 -20.651   6.173  0.00  0.00    +0.147 A 
ATOM      2  C5    A A  1       25.292 -20.633   6.979  0.00  0.00    +0.147 A 
ATOM      3  N7    A A  1       25.486 -20.843   8.327  0.00  0.00    -0.231 NA
ATOM      4  C8    A A  1       26.783 -20.698   8.506  0.00  0.00    +0.203 A 
ATOM      5  N9    A A  1       27.435 -20.387   7.337  0.00  0.00    -0.285 N 
ATOM      6  C4    A A  1       26.498 -20.375   6.338  0.00  0.00    +0.167 A 
ATOM      7  N3    A A  1       26.683 -20.164   5.024  0.00  0.00    -0.216 NA
ATOM      8  C2    A A  1       25.508 -20.200   4.358  0.00  0.00    +0.225 A 
ATOM      9  N1    A A  1       24.273 -20.437   4.846  0.00  0.00    -0.219 NA
ENDROOT
BRANCH   5  10
ATOM     10  C1*   A A  1       28.864 -20.143   7.243  0.00  0.00    +0.253 C 
ATOM     11  C2*   A A  1       29.220 -18.790   6.635  0.00  0.00    +0.195 C 
ATOM     12  C3*   A A  1       30.588 -18.540   7.252  0.00  0.00    +0.178 C 
ATOM     13  C4*   A A  1       30.477 -19.161   8.643  0.00  0.00    +0.177 C 
ATOM     14  O4*   A A  1       29.492 -20.219   8.542  0.00  0.00    -0.346 OA
BRANCH  11  15
ATOM     15  O2*   A A  1       29.293 -18.840   5.208  0.00  0.00    -0.385 OA
ATOM     16  H2*   A A  1       29.328 -19.793   4.976  0.00  0.00    +0.210 HD
ENDBRANCH  11  15
BRANCH  12  17
ATOM     17  O3*   A A  1       31.563 -19.228   6.438  0.00  0.00    -0.386 OA
ATOM     18  H3*   A A  1       32.162 -18.574   6.031  0.00  0.00    +0.210 HD
ENDBRANCH  12  17
BRANCH  13  19
ATOM     19  C5*   A A  1       30.068 -18.157   9.723  0.00  0.00    +0.190 C 
BRANCH  19  20
ATOM     20  O5*   A A  1       30.705 -18.436  10.960  0.00  0.00    -0.392 OA
ATOM     21  H5*   A A  1       30.471 -17.693  11.561  0.00  0.00    +0.209 HD
ENDBRANCH  19  20
ENDBRANCH  13  19
ENDBRANCH   5  10
BRANCH   1  22
ATOM     22  N6    A A  1       22.866 -20.904   6.668  0.00  0.00    -0.341 N 
ATOM     23  H61   A A  1       22.335 -21.546   6.090  0.00  0.00    +0.144 HD
ATOM     24  H62   A A  1       22.405 -20.055   6.966  0.00  0.00    +0.144 HD
ENDBRANCH   1  22
TORSDOF 6
ENDMDL
MODEL 6
REMARK VINA RESULT:      -6.7      1.331      2.959
REMARK  Name = *****
REMARK                            x       y       z     vdW  Elec       q    Type
REMARK                         _______ _______ _______ _____ _____    ______ ____
ROOT
ATOM      1  C6    A A  1       30.975 -19.795   7.574  0.00  0.00    +0.147 A 
ATOM      2  C5    A A  1       29.717 -19.843   6.947  0.00  0.00    +0.147 A 
ATOM      3  N7    A A  1       29.171 -19.122   5.907  0.00  0.00    -0.231 NA
ATOM      4  C8    A A  1       27.957 -19.613   5.760  0.00  0.00    +0.203 A 
ATOM      5  N9    A A  1       27.688 -20.608   6.669  0.00  0.00    -0.285 N 
ATOM      6  C4    A A  1       28.819 -20.793   7.419  0.00  0.00    +0.167 A 
ATOM      7  N3    A A  1       29.034 -21.689   8.396  0.00  0.00    -0.216 NA
ATOM      8  C2    A A  1       30.271 -21.543   8.923  0.00  0.00    +0.225 A 
ATOM      9  N1    A A  1       31.237 -20.672   8.568  0.00  0.00    -0.219 NA
ENDROOT
BRANCH   5  10
ATOM     10  C1*   A A  1       26.418 -21.307   6.757  0.00  0.00    +0.253 C 
ATOM     11  C2*   A A  1       25.432 -20.676   7.736  0.00  0.00    +0.195 C 
ATOM     12  C3*   A A  1       24.104 -21.135   7.154  0.00  0.00    +0.178 C 
ATOM     13  C4*   A A  1       24.352 -21.145   5.647  0.00  0.00    +0.177 C 
ATOM     14  O4*   A A  1       25.771 -21.376   5.467  0.00  0.00    -0.346 OA
BRANCH  11  15
ATOM     15  O2*   A A  1       25.611 -21.156   9.071  0.00  0.00    -0.385 OA
ATOM     16  H2*   A A  1       26.432 -21.694   9.052  0.00  0.00    +0.210 HD
ENDBRANCH  11  15
BRANCH  12  17
ATOM     17  O3*   A A  1       23.845 -22.463   7.660  0.00  0.00    -0.386 OA
ATOM     18  H3*   A A  1       24.673 -22.979   7.649  0.00  0.00    +0.210 HD
ENDBRANCH  12  17
BRANCH  13  19
ATOM     19  C5*   A A  1       23.935 -19.844   4.957  0.00  0.00    +0.190 C 
BRANCH  19  20
ATOM     20  O5*   A A  1       22.633 -19.440   5.353  0.00  0.00    -0.392 OA
ATOM     21  H5*   A A  1       22.485 -19.832   6.244  0.00  0.00    +0.209 HD
ENDBRANCH  19  20
ENDBRANCH  13  19
ENDBRANCH   5  10
BRANCH   1  22
ATOM     22  N6    A A  1       31.979 -18.907   7.207  0.00  0.00    -0.341 N 
ATOM     23  H61   A A  1       31.763 -17.945   7.441  0.00  0.00    +0.144 HD
ATOM     24  H62   A A  1       32.320 -19.095   6.274  0.00  0.00    +0.144 HD
ENDBRANCH   1  22
TORSDOF 6
ENDMDL
MODEL 7
REMARK VINA RESULT:      -6.4      3.362      6.167
REMARK  Name = *****
REMARK                            x       y       z     vdW  Elec       q    Type
REMARK                         _______ _______ _______ _____ _____    ______ ____
ROOT
ATOM      1  C6    A A  1       24.546 -21.180   7.085  0.00  0.00    +0.147 A 
ATOM      2  C5    A A  1       25.725 -20.665   6.517  0.00  0.00    +0.147 A 
ATOM      3  N7    A A  1       25.993 -20.098   5.290  0.00  0.00    -0.231 NA
ATOM      4  C8    A A  1       27.276 -19.804   5.330  0.00  0.00    +0.203 A 
ATOM      5  N9    A A  1       27.854 -20.171   6.522  0.00  0.00    -0.285 N 
ATOM      6  C4    A A  1       26.865 -20.695   7.311  0.00  0.00    +0.167 A 
ATOM      7  N3    A A  1       26.955 -21.143   8.574  0.00  0.00    -0.216 NA
ATOM      8  C2    A A  1       25.765 -21.615   9.007  0.00  0.00    +0.225 A 
ATOM      9  N1    A A  1       24.587 -21.649   8.351  0.00  0.00    -0.219 NA
ENDROOT
BRANCH   5  10
ATOM     10  C1*   A A  1       29.262 -19.993   6.832  0.00  0.00    +0.253 C 
ATOM     11  C2*   A A  1       29.790 -18.594   6.526  0.00  0.00    +0.195 C 
ATOM     12  C3*   A A  1       30.954 -18.498   7.500  0.00  0.00    +0.178 C 
ATOM     13  C4*   A A  1       30.472 -19.283   8.718  0.00  0.00    +0.177 C 
ATOM     14  O4*   A A  1       29.528 -20.265   8.226  0.00  0.00    -0.346 OA
BRANCH  11  15
ATOM     15  O2*   A A  1       30.232 -18.466   5.171  0.00  0.00    -0.385 OA
ATOM     16  H2*   A A  1       29.736 -17.704   4.800  0.00  0.00    +0.210 HD
ENDBRANCH  11  15
BRANCH  12  17
ATOM     17  O3*   A A  1       32.094 -19.127   6.877  0.00  0.00    -0.386 OA
ATOM     18  H3*   A A  1       31.953 -20.092   6.846  0.00  0.00    +0.210 HD
ENDBRANCH  12  17
BRANCH  13  19
ATOM     19  C5*   A A  1       29.814 -18.403   9.784  0.00  0.00    +0.190 C 
BRANCH  19  20
ATOM     20  O5*   A A  1       30.537 -18.436  11.004  0.00  0.00    -0.392 OA
ATOM     21  H5*   A A  1       29.917 -18.116  11.698  0.00  0.00    +0.209 HD
ENDBRANCH  19  20
ENDBRANCH  13  19
ENDBRANCH   5  10
BRANCH   1  22
ATOM     22  N6    A A  1       23.326 -21.209   6.418  0.00  0.00    -0.341 N 
ATOM     23  H61   A A  1       23.181 -22.064   5.893  0.00  0.00    +0.144 HD
ATOM     24  H62   A A  1       23.137 -20.334   5.948  0.00  0.00    +0.144 HD
ENDBRANCH   1  22
TORSDOF 6
ENDMDL
MODEL 8
REMARK VINA RESULT:      -6.3      3.972      6.386
REMARK  Name = *****
REMARK                            x       y       z     vdW  Elec       q    Type
REMARK                         _______ _______ _______ _____ _____    ______ ____
ROOT
ATOM      1  C6    A A  1       26.265 -20.811   5.798  0.00  0.00    +0.147 A 
ATOM      2  C5    A A  1       27.389 -19.967   5.804  0.00  0.00    +0.147 A 
ATOM      3  N7    A A  1       27.838 -19.013   4.916  0.00  0.00    -0.231 NA
ATOM      4  C8    A A  1       28.946 -18.547   5.455  0.00  0.00    +0.203 A 
ATOM      5  N9    A A  1       29.244 -19.170   6.644  0.00  0.00    -0.285 N 
ATOM      6  C4    A A  1       28.236 -20.061   6.901  0.00  0.00    +0.167 A 
ATOM      7  N3    A A  1       28.082 -20.859   7.971  0.00  0.00    -0.216 NA
ATOM      8  C2    A A  1       26.973 -21.623   7.850  0.00  0.00    +0.225 A 
ATOM      9  N1    A A  1       26.070 -21.637   6.849  0.00  0.00    -0.219 NA
ENDROOT
BRANCH   5  10
ATOM     10  C1*   A A  1       30.421 -18.878   7.442  0.00  0.00    +0.253 C 
ATOM     11  C2*   A A  1       30.113 -18.542   8.898  0.00  0.00    +0.195 C 
ATOM     12  C3*   A A  1       31.415 -18.941   9.576  0.00  0.00    +0.178 C 
ATOM     13  C4*   A A  1       31.887 -20.149   8.769  0.00  0.00    +0.177 C 
ATOM     14  O4*   A A  1       31.345 -19.989   7.435  0.00  0.00    -0.346 OA
BRANCH  11  15
ATOM     15  O2*   A A  1       29.832 -17.152   9.086  0.00  0.00    -0.385 OA
ATOM     16  H2*   A A  1       29.137 -17.112   9.778  0.00  0.00    +0.210 HD
ENDBRANCH  11  15
BRANCH  12  17
ATOM     17  O3*   A A  1       32.327 -17.829   9.452  0.00  0.00    -0.386 OA
ATOM     18  H3*   A A  1       31.860 -17.002   9.675  0.00  0.00    +0.210 HD
ENDBRANCH  12  17
BRANCH  13  19
ATOM     19  C5*   A A  1       31.441 -21.486   9.365  0.00  0.00    +0.190 C 
BRANCH  19  20
ATOM     20  O5*   A A  1       32.056 -22.581   8.704  0.00  0.00    -0.392 OA
ATOM     21  H5*   A A  1       32.886 -22.230   8.308  0.00  0.00    +0.209 HD
ENDBRANCH  19  20
ENDBRANCH  13  19
ENDBRANCH   5  10
BRANCH   1  22
ATOM     22  N6    A A  1       25.324 -20.824   4.775  0.00  0.00    -0.341 N 
ATOM     23  H61   A A  1       25.537 -21.496   4.047  0.00  0.00    +0.144 HD
ATOM     24  H62   A A  1       25.074 -19.887   4.487  0.00  0.00    +0.144 HD
ENDBRANCH   1  22
TORSDOF 6
ENDMDL
MODEL 9
REMARK VINA RESULT:      -6.3      3.305      5.855
REMARK  Name = *****
REMARK                            x       y       z     vdW  Elec       q    Type
REMARK                         _______ _______ _______ _____ _____    ______ ____
ROOT
ATOM      1  C6    A A  1       24.413 -20.752   5.908  0.00  0.00    +0.147 A 
ATOM      2  C5    A A  1       25.289 -20.690   7.006  0.00  0.00    +0.147 A 
ATOM      3  N7    A A  1       25.118 -20.964   8.346  0.00  0.00    -0.231 NA
ATOM      4  C8    A A  1       26.294 -20.726   8.890  0.00  0.00    +0.203 A 
ATOM      5  N9    A A  1       27.213 -20.293   7.964  0.00  0.00    -0.285 N 
ATOM      6  C4    A A  1       26.595 -20.296   6.742  0.00  0.00    +0.167 A 
ATOM      7  N3    A A  1       27.118 -19.991   5.543  0.00  0.00    -0.216 NA
ATOM      8  C2    A A  1       26.183 -20.082   4.570  0.00  0.00    +0.225 A 
ATOM      9  N1    A A  1       24.890 -20.447   4.681  0.00  0.00    -0.219 NA
ENDROOT
BRANCH   5  10
ATOM     10  C1*   A A  1       28.582 -19.929   8.287  0.00  0.00    +0.253 C 
ATOM     11  C2*   A A  1       29.607 -21.002   7.933  0.00  0.00    +0.195 C 
ATOM     12  C3*   A A  1       30.859 -20.162   7.738  0.00  0.00    +0.178 C 
ATOM     13  C4*   A A  1       30.332 -18.860   7.139  0.00  0.00    +0.177 C 
ATOM     14  O4*   A A  1       28.971 -18.712   7.612  0.00  0.00    -0.346 OA
BRANCH  11  15
ATOM     15  O2*   A A  1       29.777 -21.957   8.984  0.00  0.00    -0.385 OA
ATOM     16  H2*   A A  1       29.102 -22.652   8.825  0.00  0.00    +0.210 HD
ENDBRANCH  11  15
BRANCH  12  17
ATOM     17  O3*   A A  1       31.446 -19.950   9.040  0.00  0.00    -0.386 OA
ATOM     18  H3*   A A  1       32.069 -19.201   8.995  0.00  0.00    +0.210 HD
ENDBRANCH  12  17
BRANCH  13  19
ATOM     19  C5*   A A  1       30.366 -18.840   5.609  0.00  0.00    +0.190 C 
BRANCH  19  20
ATOM     20  O5*   A A  1       29.426 -17.919   5.080  0.00  0.00    -0.392 OA
ATOM     21  H5*   A A  1       28.750 -17.784   5.782  0.00  0.00    +0.209 HD
ENDBRANCH  19  20
ENDBRANCH  13  19
ENDBRANCH   5  10
BRANCH   1  22
ATOM     22  N6    A A  1       23.082 -21.137   6.012  0.00  0.00    -0.341 N 
ATOM     23  H61   A A  1       22.464 -20.600   5.415  0.00  0.00    +0.144 HD
ATOM     24  H62   A A  1       22.805 -21.264   6.977  0.00  0.00    +0.144 HD
ENDBRANCH   1  22
TORSDOF 6
ENDMDL
