MODEL 1
REMARK VINA RESULT:      -4.1      0.000      0.000
REMARK  Name = *****
REMARK                            x       y       z     vdW  Elec       q    Type
REMARK                         _______ _______ _______ _____ _____    ______ ____
ROOT
ATOM      1  C   LIG    1       26.219 -13.908   3.201  0.00  0.00    +0.170 A 
ATOM      2  S   LIG    1       27.754 -14.133   3.947  0.00  0.00    -0.056 S 
ATOM      3  C   LIG    1       27.571 -15.813   3.983  0.00  0.00    -0.001 A 
ATOM      4  C   LIG    1       28.582 -16.738   4.553  0.00  0.00    +0.058 C 
ATOM      5  C   LIG    1       27.845 -17.998   5.059  0.00  0.00    +0.091 C 
ATOM      6  N   LIG    1       26.901 -18.603   4.096  0.00  0.00    -0.285 NA
ATOM      7  C   LIG    1       25.919 -17.672   3.492  0.00  0.00    +0.121 C 
ATOM      8  C   LIG    1       26.366 -16.240   3.480  0.00  0.00    -0.019 A 
ATOM      9  C   LIG    1       25.589 -15.129   3.025  0.00  0.00    +0.059 A 
ENDROOT
BRANCH   1  10
ATOM     10  O   LIG    1       25.863 -12.671   2.902  0.00  0.00    -0.419 OA
BRANCH  10  12
ATOM     11  C   LIG    1       24.123 -11.564   1.843  0.00  0.00    +0.136 C 
ATOM     12  C   LIG    1       24.574 -12.282   3.084  0.00  0.00    +0.310 C 
ATOM     13  O   LIG    1       23.835 -12.524   4.018  0.00  0.00    -0.251 OA
ENDBRANCH  10  12
ENDBRANCH   1  10
BRANCH   6  14
ATOM     14  C   LIG    1       26.197 -19.844   4.579  0.00  0.00    +0.157 C 
BRANCH  14  15
ATOM     15  C   LIG    1       24.664 -19.800   4.619  0.00  0.00    +0.012 A 
ATOM     16  C   LIG    1       23.963 -20.695   5.442  0.00  0.00    +0.129 A 
ATOM     17  F   LIG    1       24.636 -21.569   6.204  0.00  0.00    -0.205 F 
ATOM     18  C   LIG    1       22.568 -20.714   5.496  0.00  0.00    +0.039 A 
ATOM     19  C   LIG    1       21.830 -19.819   4.727  0.00  0.00    +0.003 A 
ATOM     20  C   LIG    1       22.496 -18.905   3.918  0.00  0.00    +0.001 A 
ATOM     21  C   LIG    1       23.896 -18.885   3.879  0.00  0.00    +0.008 A 
ENDBRANCH  14  15
BRANCH  14  22
ATOM     22  C   LIG    1       26.804 -20.353   5.909  0.00  0.00    +0.158 C 
ATOM     23  O   LIG    1       26.263 -20.226   7.005  0.00  0.00    -0.295 OA
BRANCH  22  24
ATOM     24  C   LIG    1       28.134 -21.051   5.808  0.00  0.00    +0.057 C 
ATOM     25  C   LIG    1       29.420 -20.291   6.051  0.00  0.00    +0.012 C 
ATOM     26  C   LIG    1       28.954 -21.301   7.056  0.00  0.00    +0.012 C 
ENDBRANCH  22  24
ENDBRANCH  14  22
ENDBRANCH   6  14
TORSDOF 6
ENDMDL
MODEL 2
REMARK VINA RESULT:      -3.8      3.099      7.693
REMARK  Name = *****
REMARK                            x       y       z     vdW  Elec       q    Type
REMARK                         _______ _______ _______ _____ _____    ______ ____
ROOT
ATOM      1  C   LIG    1       23.681 -20.233   3.870  0.00  0.00    +0.170 A 
ATOM      2  S   LIG    1       25.356 -20.557   4.098  0.00  0.00    -0.056 S 
ATOM      3  C   LIG    1       25.744 -18.912   4.128  0.00  0.00    -0.001 A 
ATOM      4  C   LIG    1       27.126 -18.396   4.285  0.00  0.00    +0.058 C 
ATOM      5  C   LIG    1       27.207 -17.022   3.583  0.00  0.00    +0.091 C 
ATOM      6  N   LIG    1       26.130 -16.073   3.935  0.00  0.00    -0.285 NA
ATOM      7  C   LIG    1       24.750 -16.600   3.821  0.00  0.00    +0.121 C 
ATOM      8  C   LIG    1       24.658 -18.093   3.937  0.00  0.00    -0.019 A 
ATOM      9  C   LIG    1       23.464 -18.867   3.792  0.00  0.00    +0.059 A 
ENDROOT
BRANCH   1  10
ATOM     10  O   LIG    1       22.863 -21.269   3.811  0.00  0.00    -0.419 OA
BRANCH  10  12
ATOM     11  C   LIG    1       22.801 -21.559   6.110  0.00  0.00    +0.136 C 
ATOM     12  C   LIG    1       22.004 -21.505   4.837  0.00  0.00    +0.310 C 
ATOM     13  O   LIG    1       20.791 -21.570   4.808  0.00  0.00    -0.251 OA
ENDBRANCH  10  12
ENDBRANCH   1  10
BRANCH   6  14
ATOM     14  C   LIG    1       26.218 -14.725   3.268  0.00  0.00    +0.157 C 
BRANCH  14  15
ATOM     15  C   LIG    1       27.297 -13.765   3.785  0.00  0.00    +0.012 A 
ATOM     16  C   LIG    1       27.244 -13.306   5.110  0.00  0.00    +0.129 A 
ATOM     17  F   LIG    1       26.265 -13.726   5.924  0.00  0.00    -0.205 F 
ATOM     18  C   LIG    1       28.186 -12.412   5.623  0.00  0.00    +0.039 A 
ATOM     19  C   LIG    1       29.223 -11.956   4.815  0.00  0.00    +0.003 A 
ATOM     20  C   LIG    1       29.316 -12.409   3.504  0.00  0.00    +0.001 A 
ATOM     21  C   LIG    1       28.373 -13.315   3.002  0.00  0.00    +0.008 A 
ENDBRANCH  14  15
BRANCH  14  22
ATOM     22  C   LIG    1       24.828 -14.051   3.178  0.00  0.00    +0.158 C 
ATOM     23  O   LIG    1       23.909 -14.259   3.967  0.00  0.00    -0.295 OA
BRANCH  22  24
ATOM     24  C   LIG    1       24.633 -13.079   2.044  0.00  0.00    +0.057 C 
ATOM     25  C   LIG    1       23.822 -11.817   2.247  0.00  0.00    +0.012 C 
ATOM     26  C   LIG    1       25.310 -11.725   2.084  0.00  0.00    +0.012 C 
ENDBRANCH  22  24
ENDBRANCH  14  22
ENDBRANCH   6  14
TORSDOF 6
ENDMDL
MODEL 3
REMARK VINA RESULT:      -3.8      1.069      1.329
REMARK  Name = *****
REMARK                            x       y       z     vdW  Elec       q    Type
REMARK                         _______ _______ _______ _____ _____    ______ ____
ROOT
ATOM      1  C   LIG    1       26.005 -13.977   3.435  0.00  0.00    +0.170 A 
ATOM      2  S   LIG    1       27.579 -14.142   4.112  0.00  0.00    -0.056 S 
ATOM      3  C   LIG    1       27.487 -15.829   4.098  0.00  0.00    -0.001 A 
ATOM      4  C   LIG    1       28.569 -16.716   4.595  0.00  0.00    +0.058 C 
ATOM      5  C   LIG    1       27.922 -18.029   5.088  0.00  0.00    +0.091 C 
ATOM      6  N   LIG    1       26.972 -18.654   4.144  0.00  0.00    -0.285 NA
ATOM      7  C   LIG    1       25.918 -17.759   3.610  0.00  0.00    +0.121 C 
ATOM      8  C   LIG    1       26.287 -16.305   3.630  0.00  0.00    -0.019 A 
ATOM      9  C   LIG    1       25.434 -15.225   3.244  0.00  0.00    +0.059 A 
ENDROOT
BRANCH   1  10
ATOM     10  O   LIG    1       25.571 -12.753   3.192  0.00  0.00    -0.419 OA
BRANCH  10  12
ATOM     11  C   LIG    1       24.301 -12.698   5.130  0.00  0.00    +0.136 C 
ATOM     12  C   LIG    1       24.358 -12.365   3.665  0.00  0.00    +0.310 C 
ATOM     13  O   LIG    1       23.477 -11.763   3.085  0.00  0.00    -0.251 OA
ENDBRANCH  10  12
ENDBRANCH   1  10
BRANCH   6  14
ATOM     14  C   LIG    1       26.356 -19.946   4.612  0.00  0.00    +0.157 C 
BRANCH  14  15
ATOM     15  C   LIG    1       24.823 -20.009   4.652  0.00  0.00    +0.012 A 
ATOM     16  C   LIG    1       24.117 -20.491   3.539  0.00  0.00    +0.129 A 
ATOM     17  F   LIG    1       24.784 -20.915   2.457  0.00  0.00    -0.205 F 
ATOM     18  C   LIG    1       22.722 -20.546   3.514  0.00  0.00    +0.039 A 
ATOM     19  C   LIG    1       21.990 -20.122   4.619  0.00  0.00    +0.003 A 
ATOM     20  C   LIG    1       22.661 -19.659   5.745  0.00  0.00    +0.001 A 
ATOM     21  C   LIG    1       24.061 -19.620   5.766  0.00  0.00    +0.008 A 
ENDBRANCH  14  15
BRANCH  14  22
ATOM     22  C   LIG    1       26.996 -20.427   5.936  0.00  0.00    +0.158 C 
ATOM     23  O   LIG    1       26.388 -20.523   7.000  0.00  0.00    -0.295 OA
BRANCH  22  24
ATOM     24  C   LIG    1       28.453 -20.801   5.872  0.00  0.00    +0.057 C 
ATOM     25  C   LIG    1       29.475 -20.053   6.701  0.00  0.00    +0.012 C 
ATOM     26  C   LIG    1       29.118 -21.464   7.060  0.00  0.00    +0.012 C 
ENDBRANCH  22  24
ENDBRANCH  14  22
ENDBRANCH   6  14
TORSDOF 6
ENDMDL
MODEL 4
REMARK VINA RESULT:      -2.2      2.666      7.701
REMARK  Name = *****
REMARK                            x       y       z     vdW  Elec       q    Type
REMARK                         _______ _______ _______ _____ _____    ______ ____
ROOT
ATOM      1  C   LIG    1       26.956 -19.969   5.249  0.00  0.00    +0.170 A 
ATOM      2  S   LIG    1       25.255 -20.085   5.015  0.00  0.00    -0.056 S 
ATOM      3  C   LIG    1       25.199 -18.623   4.168  0.00  0.00    -0.001 A 
ATOM      4  C   LIG    1       23.948 -18.031   3.631  0.00  0.00    +0.058 C 
ATOM      5  C   LIG    1       24.125 -16.497   3.588  0.00  0.00    +0.091 C 
ATOM      6  N   LIG    1       25.374 -16.027   2.952  0.00  0.00    -0.285 NA
ATOM      7  C   LIG    1       26.621 -16.650   3.456  0.00  0.00    +0.121 C 
ATOM      8  C   LIG    1       26.420 -18.004   4.070  0.00  0.00    -0.019 A 
ATOM      9  C   LIG    1       27.436 -18.792   4.696  0.00  0.00    +0.059 A 
ENDROOT
BRANCH   1  10
ATOM     10  O   LIG    1       27.553 -20.963   5.882  0.00  0.00    -0.419 OA
BRANCH  10  12
ATOM     11  C   LIG    1       28.672 -19.249   6.969  0.00  0.00    +0.136 C 
ATOM     12  C   LIG    1       28.659 -20.714   6.630  0.00  0.00    +0.310 C 
ATOM     13  O   LIG    1       29.475 -21.504   7.062  0.00  0.00    -0.251 OA
ENDBRANCH  10  12
ENDBRANCH   1  10
BRANCH   6  14
ATOM     14  C   LIG    1       25.540 -14.532   2.889  0.00  0.00    +0.157 C 
BRANCH  14  15
ATOM     15  C   LIG    1       26.688 -13.926   3.707  0.00  0.00    +0.012 A 
ATOM     16  C   LIG    1       26.520 -13.700   5.081  0.00  0.00    +0.129 A 
ATOM     17  F   LIG    1       25.366 -14.032   5.677  0.00  0.00    -0.205 F 
ATOM     18  C   LIG    1       27.524 -13.128   5.866  0.00  0.00    +0.039 A 
ATOM     19  C   LIG    1       28.740 -12.774   5.290  0.00  0.00    +0.003 A 
ATOM     20  C   LIG    1       28.946 -13.007   3.934  0.00  0.00    +0.001 A 
ATOM     21  C   LIG    1       27.937 -13.591   3.158  0.00  0.00    +0.008 A 
ENDBRANCH  14  15
BRANCH  14  22
ATOM     22  C   LIG    1       24.196 -13.806   3.140  0.00  0.00    +0.158 C 
ATOM     23  O   LIG    1       23.132 -14.382   3.357  0.00  0.00    -0.295 OA
BRANCH  22  24
ATOM     24  C   LIG    1       24.240 -12.301   3.119  0.00  0.00    +0.057 C 
ATOM     25  C   LIG    1       25.128 -11.573   2.133  0.00  0.00    +0.012 C 
ATOM     26  C   LIG    1       23.640 -11.542   1.954  0.00  0.00    +0.012 C 
ENDBRANCH  22  24
ENDBRANCH  14  22
ENDBRANCH   6  14
TORSDOF 6
ENDMDL
MODEL 5
REMARK VINA RESULT:      -1.6      3.217      7.934
REMARK  Name = *****
REMARK                            x       y       z     vdW  Elec       q    Type
REMARK                         _______ _______ _______ _____ _____    ______ ____
ROOT
ATOM      1  C   LIG    1       24.990 -19.442   4.316  0.00  0.00    +0.170 A 
ATOM      2  S   LIG    1       23.430 -18.857   4.745  0.00  0.00    -0.056 S 
ATOM      3  C   LIG    1       23.735 -17.337   4.070  0.00  0.00    -0.001 A 
ATOM      4  C   LIG    1       22.760 -16.219   4.088  0.00  0.00    +0.058 C 
ATOM      5  C   LIG    1       23.552 -14.893   4.068  0.00  0.00    +0.091 C 
ATOM      6  N   LIG    1       24.602 -14.804   3.032  0.00  0.00    -0.285 NA
ATOM      7  C   LIG    1       25.550 -15.942   2.983  0.00  0.00    +0.121 C 
ATOM      8  C   LIG    1       24.999 -17.218   3.548  0.00  0.00    -0.019 A 
ATOM      9  C   LIG    1       25.720 -18.444   3.691  0.00  0.00    +0.059 A 
ENDROOT
BRANCH   1  10
ATOM     10  O   LIG    1       25.273 -20.698   4.614  0.00  0.00    -0.419 OA
BRANCH  10  12
ATOM     11  C   LIG    1       27.052 -20.467   6.081  0.00  0.00    +0.136 C 
ATOM     12  C   LIG    1       25.668 -21.017   5.874  0.00  0.00    +0.310 C 
ATOM     13  O   LIG    1       25.029 -21.558   6.754  0.00  0.00    -0.251 OA
ENDBRANCH  10  12
ENDBRANCH   1  10
BRANCH   6  14
ATOM     14  C   LIG    1       25.362 -13.505   2.996  0.00  0.00    +0.157 C 
BRANCH  14  15
ATOM     15  C   LIG    1       26.482 -13.328   4.031  0.00  0.00    +0.012 A 
ATOM     16  C   LIG    1       27.638 -12.610   3.689  0.00  0.00    +0.129 A 
ATOM     17  F   LIG    1       27.750 -12.064   2.469  0.00  0.00    -0.205 F 
ATOM     18  C   LIG    1       28.697 -12.441   4.584  0.00  0.00    +0.039 A 
ATOM     19  C   LIG    1       28.619 -12.985   5.862  0.00  0.00    +0.003 A 
ATOM     20  C   LIG    1       27.477 -13.683   6.238  0.00  0.00    +0.001 A 
ATOM     21  C   LIG    1       26.415 -13.837   5.338  0.00  0.00    +0.008 A 
ENDBRANCH  14  15
BRANCH  14  22
ATOM     22  C   LIG    1       24.401 -12.292   2.960  0.00  0.00    +0.158 C 
ATOM     23  O   LIG    1       23.732 -11.973   1.980  0.00  0.00    -0.295 OA
BRANCH  22  24
ATOM     24  C   LIG    1       24.302 -11.485   4.227  0.00  0.00    +0.057 C 
ATOM     25  C   LIG    1       23.010 -11.447   5.014  0.00  0.00    +0.012 C 
ATOM     26  C   LIG    1       24.192 -12.186   5.565  0.00  0.00    +0.012 C 
ENDBRANCH  22  24
ENDBRANCH  14  22
ENDBRANCH   6  14
TORSDOF 6
ENDMDL
