MODEL 1
REMARK VINA RESULT:      -6.6      0.000      0.000
REMARK  Name = *****
REMARK                            x       y       z     vdW  Elec       q    Type
REMARK                         _______ _______ _______ _____ _____    ______ ____
ROOT
ATOM      1  C   LIG    1       24.431 -31.049   7.363  0.00  0.00    +0.268 C 
ATOM      2  N   LIG    1       25.242 -30.556   8.383  0.00  0.00    -0.296 N 
ATOM      3  H   LIG    1       25.877 -29.799   8.145  0.00  0.00    +0.150 HD
ATOM      4  O   LIG    1       23.442 -31.738   7.564  0.00  0.00    -0.268 OA
ENDROOT
BRANCH   2   5
ATOM      5  CA  LIG    1       24.864 -30.835   9.782  0.00  0.00    +0.191 C 
ATOM      6  C   LIG    1       25.566 -30.137  10.969  0.00  0.00    +0.169 C 
ATOM      7  N   LIG    1       24.266 -29.608  11.335  0.00  0.00    -0.249 N 
ATOM      8  CA  LIG    1       24.031 -28.957  12.503  0.00  0.00    +0.128 C 
ATOM      9  C   LIG    1       25.102 -28.467  13.192  0.00  0.00    +0.033 C 
ATOM     10  C   LIG    1       26.477 -28.249  12.537  0.00  0.00    +0.110 C 
ATOM     11  S   LIG    1       26.582 -28.667  10.756  0.00  0.00    -0.131 S 
ATOM     12  C   LIG    1       23.581 -30.114  10.288  0.00  0.00    +0.244 C 
ATOM     13  O   LIG    1       22.439 -29.950   9.980  0.00  0.00    -0.273 OA
BRANCH   8  14
ATOM     14  C   LIG    1       22.631 -28.875  13.039  0.00  0.00    +0.352 C 
ATOM     15  O   LIG    1       22.122 -29.809  13.642  0.00  0.00    -0.244 OA
BRANCH  14  16
ATOM     16  OXT LIG    1       21.961 -27.733  12.862  0.00  0.00    -0.476 OA
ATOM     17  HXT LIG    1       22.090 -27.212  12.034  0.00  0.00    +0.295 HD
ENDBRANCH  14  16
ENDBRANCH   8  14
BRANCH   9  18
ATOM     18  C   LIG    1       25.081 -28.055  14.663  0.00  0.00    +0.392 C 
BRANCH  18  19
ATOM     19  N   LIG    1       25.468 -26.607  14.776  0.00  0.00    -0.200 N 
ATOM     20  C   LIG    1       26.578 -26.248  15.470  0.00  0.00    +0.309 A 
ATOM     21  C   LIG    1       27.013 -24.929  15.499  0.00  0.00    +0.070 A 
ATOM     22  C   LIG    1       26.278 -23.955  14.843  0.00  0.00    +0.012 A 
ATOM     23  C   LIG    1       25.111 -24.319  14.185  0.00  0.00    +0.070 A 
ATOM     24  C   LIG    1       24.716 -25.654  14.172  0.00  0.00    +0.309 A 
ENDBRANCH  18  19
ENDBRANCH   9  18
ENDBRANCH   2   5
BRANCH   1  26
ATOM     25  N   LIG    1       24.827 -29.593   5.367  0.00  0.00    -0.077 NA
ATOM     26  C   LIG    1       24.924 -30.737   5.962  0.00  0.00    +0.190 C 
BRANCH  26  27
ATOM     27  C   LIG    1       25.665 -31.737   5.191  0.00  0.00    +0.107 A 
ATOM     28  N   LIG    1       25.366 -31.909   3.839  0.00  0.00    -0.223 NA
ATOM     29  C   LIG    1       26.166 -32.777   3.283  0.00  0.00    +0.156 A 
ATOM     30  S   LIG    1       27.318 -33.479   4.338  0.00  0.00    -0.060 S 
ATOM     31  C   LIG    1       26.713 -32.523   5.634  0.00  0.00    +0.078 A 
BRANCH  29  32
ATOM     32  N   LIG    1       26.129 -33.055   1.973  0.00  0.00    -0.338 N 
ATOM     33  H   LIG    1       25.302 -32.746   1.472  0.00  0.00    +0.144 HD
ATOM     34  H   LIG    1       26.987 -33.015   1.436  0.00  0.00    +0.144 HD
ENDBRANCH  29  32
ENDBRANCH  26  27
BRANCH  25  35
ATOM     35  O   LIG    1       24.236 -28.524   6.062  0.00  0.00    -0.376 OA
BRANCH  35  37
ATOM     36  C   LIG    1       26.021 -27.330   7.217  0.00  0.00    +0.070 C 
ATOM     37  C   LIG    1       25.155 -27.405   5.943  0.00  0.00    +0.228 C 
ATOM     38  C   LIG    1       26.049 -27.642   4.713  0.00  0.00    +0.070 C 
BRANCH  37  39
ATOM     39  C   LIG    1       24.429 -26.060   5.712  0.00  0.00    +0.351 C 
ATOM     40  O   LIG    1       23.570 -25.559   6.422  0.00  0.00    -0.246 OA
BRANCH  39  41
ATOM     41  O   LIG    1       24.746 -25.450   4.544  0.00  0.00    -0.478 OA
ATOM     42  H   LIG    1       24.411 -24.534   4.634  0.00  0.00    +0.295 HD
ENDBRANCH  39  41
ENDBRANCH  37  39
ENDBRANCH  35  37
ENDBRANCH  25  35
ENDBRANCH   1  26
TORSDOF 12
ENDMDL
MODEL 2
REMARK VINA RESULT:      -6.2      1.474      1.975
REMARK  Name = *****
REMARK                            x       y       z     vdW  Elec       q    Type
REMARK                         _______ _______ _______ _____ _____    ______ ____
ROOT
ATOM      1  C   LIG    1       25.458 -30.700   8.166  0.00  0.00    +0.268 C 
ATOM      2  N   LIG    1       24.529 -30.152   9.048  0.00  0.00    -0.296 N 
ATOM      3  H   LIG    1       23.646 -29.836   8.655  0.00  0.00    +0.150 HD
ATOM      4  O   LIG    1       26.415 -31.368   8.527  0.00  0.00    -0.268 OA
ENDROOT
BRANCH   2   5
ATOM      5  CA  LIG    1       24.675 -30.431  10.490  0.00  0.00    +0.191 C 
ATOM      6  C   LIG    1       25.723 -29.698  11.358  0.00  0.00    +0.169 C 
ATOM      7  N   LIG    1       24.615 -29.211  12.159  0.00  0.00    -0.249 N 
ATOM      8  CA  LIG    1       24.781 -28.558  13.336  0.00  0.00    +0.128 C 
ATOM      9  C   LIG    1       26.007 -28.025  13.608  0.00  0.00    +0.033 C 
ATOM     10  C   LIG    1       27.057 -27.765  12.515  0.00  0.00    +0.110 C 
ATOM     11  S   LIG    1       26.547 -28.196  10.808  0.00  0.00    -0.131 S 
ATOM     12  C   LIG    1       23.625 -29.749  11.415  0.00  0.00    +0.244 C 
ATOM     13  O   LIG    1       22.443 -29.628  11.527  0.00  0.00    -0.273 OA
BRANCH   8  14
ATOM     14  C   LIG    1       23.654 -28.519  14.330  0.00  0.00    +0.352 C 
ATOM     15  O   LIG    1       22.839 -27.609  14.336  0.00  0.00    -0.244 OA
BRANCH  14  16
ATOM     16  OXT LIG    1       23.553 -29.532  15.196  0.00  0.00    -0.476 OA
ATOM     17  HXT LIG    1       22.662 -29.868  15.455  0.00  0.00    +0.295 HD
ENDBRANCH  14  16
ENDBRANCH   8  14
BRANCH   9  18
ATOM     18  C   LIG    1       26.487 -27.599  14.995  0.00  0.00    +0.392 C 
BRANCH  18  19
ATOM     19  N   LIG    1       26.552 -26.099  15.058  0.00  0.00    -0.200 N 
ATOM     20  C   LIG    1       25.421 -25.359  14.937  0.00  0.00    +0.309 A 
ATOM     21  C   LIG    1       25.443 -23.980  15.098  0.00  0.00    +0.070 A 
ATOM     22  C   LIG    1       26.647 -23.342  15.345  0.00  0.00    +0.012 A 
ATOM     23  C   LIG    1       27.810 -24.098  15.408  0.00  0.00    +0.070 A 
ATOM     24  C   LIG    1       27.742 -25.479  15.251  0.00  0.00    +0.309 A 
ENDBRANCH  18  19
ENDBRANCH   9  18
ENDBRANCH   2   5
BRANCH   1  26
ATOM     25  N   LIG    1       25.280 -29.127   6.229  0.00  0.00    -0.077 NA
ATOM     26  C   LIG    1       25.240 -30.326   6.712  0.00  0.00    +0.190 C 
BRANCH  26  27
ATOM     27  C   LIG    1       25.058 -31.362   5.693  0.00  0.00    +0.107 A 
ATOM     28  N   LIG    1       25.967 -31.441   4.637  0.00  0.00    -0.223 NA
ATOM     29  C   LIG    1       25.709 -32.461   3.866  0.00  0.00    +0.156 A 
ATOM     30  S   LIG    1       24.342 -33.387   4.323  0.00  0.00    -0.060 S 
ATOM     31  C   LIG    1       24.095 -32.353   5.676  0.00  0.00    +0.078 A 
BRANCH  29  32
ATOM     32  N   LIG    1       26.488 -32.796   2.829  0.00  0.00    -0.338 N 
ATOM     33  H   LIG    1       27.450 -33.031   3.049  0.00  0.00    +0.144 HD
ATOM     34  H   LIG    1       26.090 -33.324   2.062  0.00  0.00    +0.144 HD
ENDBRANCH  29  32
ENDBRANCH  26  27
BRANCH  25  35
ATOM     35  O   LIG    1       25.566 -28.062   7.100  0.00  0.00    -0.376 OA
BRANCH  35  37
ATOM     36  C   LIG    1       24.009 -26.656   5.857  0.00  0.00    +0.070 C 
ATOM     37  C   LIG    1       25.472 -26.850   6.305  0.00  0.00    +0.228 C 
ATOM     38  C   LIG    1       25.914 -25.663   7.181  0.00  0.00    +0.070 C 
BRANCH  37  39
ATOM     39  C   LIG    1       26.408 -26.868   5.076  0.00  0.00    +0.351 C 
ATOM     40  O   LIG    1       26.075 -26.836   3.900  0.00  0.00    -0.246 OA
BRANCH  39  41
ATOM     41  O   LIG    1       27.720 -27.024   5.377  0.00  0.00    -0.478 OA
ATOM     42  H   LIG    1       27.743 -27.208   6.338  0.00  0.00    +0.295 HD
ENDBRANCH  39  41
ENDBRANCH  37  39
ENDBRANCH  35  37
ENDBRANCH  25  35
ENDBRANCH   1  26
TORSDOF 12
ENDMDL
MODEL 3
REMARK VINA RESULT:      -6.0      3.860      8.921
REMARK  Name = *****
REMARK                            x       y       z     vdW  Elec       q    Type
REMARK                         _______ _______ _______ _____ _____    ______ ____
ROOT
ATOM      1  C   LIG    1       21.358 -30.824  13.620  0.00  0.00    +0.268 C 
ATOM      2  N   LIG    1       22.179 -30.252  12.651  0.00  0.00    -0.296 N 
ATOM      3  H   LIG    1       21.888 -29.356  12.268  0.00  0.00    +0.150 HD
ATOM      4  O   LIG    1       21.719 -31.729  14.357  0.00  0.00    -0.268 OA
ENDROOT
BRANCH   2   5
ATOM      5  CA  LIG    1       23.572 -30.724  12.537  0.00  0.00    +0.191 C 
ATOM      6  C   LIG    1       24.014 -31.692  11.416  0.00  0.00    +0.169 C 
ATOM      7  N   LIG    1       24.943 -30.662  10.990  0.00  0.00    -0.249 N 
ATOM      8  CA  LIG    1       25.902 -30.868  10.052  0.00  0.00    +0.128 C 
ATOM      9  C   LIG    1       25.772 -31.948   9.228  0.00  0.00    +0.033 C 
ATOM     10  C   LIG    1       24.435 -32.681   9.029  0.00  0.00    +0.110 C 
ATOM     11  S   LIG    1       23.009 -31.995   9.955  0.00  0.00    -0.131 S 
ATOM     12  C   LIG    1       24.569 -29.723  11.884  0.00  0.00    +0.244 C 
ATOM     13  O   LIG    1       24.929 -28.589  11.987  0.00  0.00    -0.273 OA
BRANCH   8  14
ATOM     14  C   LIG    1       27.104 -29.970  10.009  0.00  0.00    +0.352 C 
ATOM     15  O   LIG    1       28.080 -30.172  10.717  0.00  0.00    -0.244 OA
BRANCH  14  16
ATOM     16  OXT LIG    1       27.089 -28.950   9.146  0.00  0.00    -0.476 OA
ATOM     17  HXT LIG    1       27.301 -29.108   8.195  0.00  0.00    +0.295 HD
ENDBRANCH  14  16
ENDBRANCH   8  14
BRANCH   9  18
ATOM     18  C   LIG    1       26.900 -32.549   8.391  0.00  0.00    +0.392 C 
BRANCH  18  19
ATOM     19  N   LIG    1       26.594 -32.352   6.933  0.00  0.00    -0.200 N 
ATOM     20  C   LIG    1       26.964 -33.288   6.023  0.00  0.00    +0.309 A 
ATOM     21  C   LIG    1       26.600 -33.177   4.687  0.00  0.00    +0.070 A 
ATOM     22  C   LIG    1       25.880 -32.071   4.268  0.00  0.00    +0.012 A 
ATOM     23  C   LIG    1       25.555 -31.087   5.192  0.00  0.00    +0.070 A 
ATOM     24  C   LIG    1       25.932 -31.242   6.523  0.00  0.00    +0.309 A 
ENDBRANCH  18  19
ENDBRANCH   9  18
ENDBRANCH   2   5
BRANCH   1  26
ATOM     25  N   LIG    1       19.535 -29.227  14.243  0.00  0.00    -0.077 NA
ATOM     26  C   LIG    1       19.936 -30.295  13.633  0.00  0.00    +0.190 C 
BRANCH  26  27
ATOM     27  C   LIG    1       18.892 -30.939  12.834  0.00  0.00    +0.107 A 
ATOM     28  N   LIG    1       19.102 -31.123  11.466  0.00  0.00    -0.223 NA
ATOM     29  C   LIG    1       18.115 -31.778  10.919  0.00  0.00    +0.156 A 
ATOM     30  S   LIG    1       16.845 -32.200  11.989  0.00  0.00    -0.060 S 
ATOM     31  C   LIG    1       17.700 -31.470  13.290  0.00  0.00    +0.078 A 
BRANCH  29  32
ATOM     32  N   LIG    1       18.121 -32.147   9.631  0.00  0.00    -0.338 N 
ATOM     33  H   LIG    1       17.650 -33.020   9.414  0.00  0.00    +0.144 HD
ATOM     34  H   LIG    1       18.046 -31.437   8.914  0.00  0.00    +0.144 HD
ENDBRANCH  29  32
ENDBRANCH  26  27
BRANCH  25  35
ATOM     35  O   LIG    1       20.481 -28.462  14.946  0.00  0.00    -0.376 OA
BRANCH  35  37
ATOM     36  C   LIG    1       21.071 -26.154  15.465  0.00  0.00    +0.070 C 
ATOM     37  C   LIG    1       20.294 -27.088  14.515  0.00  0.00    +0.228 C 
ATOM     38  C   LIG    1       20.842 -26.952  13.082  0.00  0.00    +0.070 C 
BRANCH  37  39
ATOM     39  C   LIG    1       18.806 -26.676  14.462  0.00  0.00    +0.351 C 
ATOM     40  O   LIG    1       18.278 -25.937  13.643  0.00  0.00    -0.246 OA
BRANCH  39  41
ATOM     41  O   LIG    1       18.063 -27.135  15.499  0.00  0.00    -0.478 OA
ATOM     42  H   LIG    1       17.262 -27.521  15.089  0.00  0.00    +0.295 HD
ENDBRANCH  39  41
ENDBRANCH  37  39
ENDBRANCH  35  37
ENDBRANCH  25  35
ENDBRANCH   1  26
TORSDOF 12
ENDMDL
MODEL 4
REMARK VINA RESULT:      -5.5      3.487      4.283
REMARK  Name = *****
REMARK                            x       y       z     vdW  Elec       q    Type
REMARK                         _______ _______ _______ _____ _____    ______ ____
ROOT
ATOM      1  C   LIG    1       25.074 -29.796   8.664  0.00  0.00    +0.268 C 
ATOM      2  N   LIG    1       23.864 -30.118   9.274  0.00  0.00    -0.296 N 
ATOM      3  H   LIG    1       23.250 -30.758   8.777  0.00  0.00    +0.150 HD
ATOM      4  O   LIG    1       26.011 -29.285   9.258  0.00  0.00    -0.268 OA
ENDROOT
BRANCH   2   5
ATOM      5  CA  LIG    1       23.718 -29.878  10.724  0.00  0.00    +0.191 C 
ATOM      6  C   LIG    1       22.341 -29.941  11.424  0.00  0.00    +0.169 C 
ATOM      7  N   LIG    1       22.887 -31.005  12.245  0.00  0.00    -0.249 N 
ATOM      8  CA  LIG    1       22.244 -31.512  13.327  0.00  0.00    +0.128 C 
ATOM      9  C   LIG    1       20.905 -31.280  13.446  0.00  0.00    +0.033 C 
ATOM     10  C   LIG    1       20.031 -30.851  12.255  0.00  0.00    +0.110 C 
ATOM     11  S   LIG    1       20.902 -30.694  10.649  0.00  0.00    -0.131 S 
ATOM     12  C   LIG    1       24.093 -31.077  11.643  0.00  0.00    +0.244 C 
ATOM     13  O   LIG    1       24.988 -31.844  11.829  0.00  0.00    -0.273 OA
BRANCH   8  14
ATOM     14  C   LIG    1       23.029 -32.225  14.392  0.00  0.00    +0.352 C 
ATOM     15  O   LIG    1       23.254 -31.705  15.475  0.00  0.00    -0.244 OA
BRANCH  14  16
ATOM     16  OXT LIG    1       23.453 -33.464  14.129  0.00  0.00    -0.476 OA
ATOM     17  HXT LIG    1       23.783 -34.036  14.862  0.00  0.00    +0.295 HD
ENDBRANCH  14  16
ENDBRANCH   8  14
BRANCH   9  18
ATOM     18  C   LIG    1       20.102 -31.432  14.736  0.00  0.00    +0.392 C 
BRANCH  18  19
ATOM     19  N   LIG    1       19.437 -30.125  15.063  0.00  0.00    -0.200 N 
ATOM     20  C   LIG    1       20.184 -29.017  15.300  0.00  0.00    +0.309 A 
ATOM     21  C   LIG    1       19.590 -27.778  15.500  0.00  0.00    +0.070 A 
ATOM     22  C   LIG    1       18.209 -27.676  15.497  0.00  0.00    +0.012 A 
ATOM     23  C   LIG    1       17.449 -28.823  15.314  0.00  0.00    +0.070 A 
ATOM     24  C   LIG    1       18.084 -30.045  15.108  0.00  0.00    +0.309 A 
ENDBRANCH  18  19
ENDBRANCH   9  18
ENDBRANCH   2   5
BRANCH   1  26
ATOM     25  N   LIG    1       24.683 -29.234   6.257  0.00  0.00    -0.077 NA
ATOM     26  C   LIG    1       25.111 -30.047   7.168  0.00  0.00    +0.190 C 
BRANCH  26  27
ATOM     27  C   LIG    1       25.754 -31.246   6.628  0.00  0.00    +0.107 A 
ATOM     28  N   LIG    1       25.659 -31.508   5.260  0.00  0.00    -0.223 NA
ATOM     29  C   LIG    1       26.348 -32.565   4.930  0.00  0.00    +0.156 A 
ATOM     30  S   LIG    1       27.139 -33.348   6.233  0.00  0.00    -0.060 S 
ATOM     31  C   LIG    1       26.530 -32.159   7.317  0.00  0.00    +0.078 A 
BRANCH  29  32
ATOM     32  N   LIG    1       26.478 -32.975   3.662  0.00  0.00    -0.338 N 
ATOM     33  H   LIG    1       25.621 -33.230   3.183  0.00  0.00    +0.144 HD
ATOM     34  H   LIG    1       27.177 -32.541   3.072  0.00  0.00    +0.144 HD
ENDBRANCH  29  32
ENDBRANCH  26  27
BRANCH  25  35
ATOM     35  O   LIG    1       24.152 -27.997   6.659  0.00  0.00    -0.376 OA
BRANCH  35  37
ATOM     36  C   LIG    1       26.235 -26.766   6.961  0.00  0.00    +0.070 C 
ATOM     37  C   LIG    1       24.999 -26.978   6.064  0.00  0.00    +0.228 C 
ATOM     38  C   LIG    1       25.439 -27.469   4.672  0.00  0.00    +0.070 C 
BRANCH  37  39
ATOM     39  C   LIG    1       24.260 -25.639   5.849  0.00  0.00    +0.351 C 
ATOM     40  O   LIG    1       23.455 -25.116   6.606  0.00  0.00    -0.246 OA
BRANCH  39  41
ATOM     41  O   LIG    1       24.491 -25.061   4.645  0.00  0.00    -0.478 OA
ATOM     42  H   LIG    1       23.852 -25.480   4.032  0.00  0.00    +0.295 HD
ENDBRANCH  39  41
ENDBRANCH  37  39
ENDBRANCH  35  37
ENDBRANCH  25  35
ENDBRANCH   1  26
TORSDOF 12
ENDMDL
MODEL 5
REMARK VINA RESULT:      -5.4      7.273      9.944
REMARK  Name = *****
REMARK                            x       y       z     vdW  Elec       q    Type
REMARK                         _______ _______ _______ _____ _____    ______ ____
ROOT
ATOM      1  C   LIG    1       24.833 -22.015   7.394  0.00  0.00    +0.268 C 
ATOM      2  N   LIG    1       25.602 -21.334   6.452  0.00  0.00    -0.296 N 
ATOM      3  H   LIG    1       25.317 -21.409   5.479  0.00  0.00    +0.150 HD
ATOM      4  O   LIG    1       24.881 -21.786   8.593  0.00  0.00    -0.268 OA
ENDROOT
BRANCH   2   5
ATOM      5  CA  LIG    1       26.485 -20.246   6.915  0.00  0.00    +0.191 C 
ATOM      6  C   LIG    1       27.669 -20.511   7.873  0.00  0.00    +0.169 C 
ATOM      7  N   LIG    1       28.535 -19.985   6.835  0.00  0.00    -0.249 N 
ATOM      8  CA  LIG    1       29.851 -19.720   7.029  0.00  0.00    +0.128 C 
ATOM      9  C   LIG    1       30.469 -20.291   8.103  0.00  0.00    +0.033 C 
ATOM     10  C   LIG    1       29.887 -21.507   8.843  0.00  0.00    +0.110 C 
ATOM     11  S   LIG    1       28.313 -22.165   8.171  0.00  0.00    -0.131 S 
ATOM     12  C   LIG    1       27.576 -19.791   5.904  0.00  0.00    +0.244 C 
ATOM     13  O   LIG    1       27.684 -19.437   4.769  0.00  0.00    -0.273 OA
BRANCH   8  14
ATOM     14  C   LIG    1       30.556 -18.752   6.123  0.00  0.00    +0.352 C 
ATOM     15  O   LIG    1       31.735 -18.893   5.829  0.00  0.00    -0.244 OA
BRANCH  14  16
ATOM     16  OXT LIG    1       29.846 -17.738   5.620  0.00  0.00    -0.476 OA
ATOM     17  HXT LIG    1       30.123 -17.317   4.771  0.00  0.00    +0.295 HD
ENDBRANCH  14  16
ENDBRANCH   8  14
BRANCH   9  18
ATOM     18  C   LIG    1       31.801 -19.830   8.692  0.00  0.00    +0.392 C 
BRANCH  18  19
ATOM     19  N   LIG    1       31.605 -18.514   9.390  0.00  0.00    -0.200 N 
ATOM     20  C   LIG    1       30.665 -18.387  10.361  0.00  0.00    +0.309 A 
ATOM     21  C   LIG    1       30.538 -17.213  11.091  0.00  0.00    +0.070 A 
ATOM     22  C   LIG    1       31.359 -16.136  10.797  0.00  0.00    +0.012 A 
ATOM     23  C   LIG    1       32.278 -16.251   9.764  0.00  0.00    +0.070 A 
ATOM     24  C   LIG    1       32.379 -17.450   9.063  0.00  0.00    +0.309 A 
ENDBRANCH  18  19
ENDBRANCH   9  18
ENDBRANCH   2   5
BRANCH   1  26
ATOM     25  N   LIG    1       22.788 -23.011   6.352  0.00  0.00    -0.077 NA
ATOM     26  C   LIG    1       23.986 -23.137   6.822  0.00  0.00    +0.190 C 
BRANCH  26  27
ATOM     27  C   LIG    1       24.536 -24.484   6.668  0.00  0.00    +0.107 A 
ATOM     28  N   LIG    1       23.715 -25.499   6.174  0.00  0.00    -0.223 NA
ATOM     29  C   LIG    1       24.377 -26.614   6.026  0.00  0.00    +0.156 A 
ATOM     30  S   LIG    1       26.024 -26.546   6.493  0.00  0.00    -0.060 S 
ATOM     31  C   LIG    1       25.839 -24.885   6.901  0.00  0.00    +0.078 A 
BRANCH  29  32
ATOM     32  N   LIG    1       23.828 -27.713   5.491  0.00  0.00    -0.338 N 
ATOM     33  H   LIG    1       22.857 -27.889   5.729  0.00  0.00    +0.144 HD
ATOM     34  H   LIG    1       24.090 -27.990   4.554  0.00  0.00    +0.144 HD
ENDBRANCH  29  32
ENDBRANCH  26  27
BRANCH  25  35
ATOM     35  O   LIG    1       22.203 -21.733   6.340  0.00  0.00    -0.376 OA
BRANCH  35  37
ATOM     36  C   LIG    1       23.361 -22.130   4.231  0.00  0.00    +0.070 C 
ATOM     37  C   LIG    1       22.378 -21.217   4.994  0.00  0.00    +0.228 C 
ATOM     38  C   LIG    1       21.007 -21.221   4.293  0.00  0.00    +0.070 C 
BRANCH  37  39
ATOM     39  C   LIG    1       22.883 -19.757   4.975  0.00  0.00    +0.351 C 
ATOM     40  O   LIG    1       22.263 -18.763   5.323  0.00  0.00    -0.246 OA
BRANCH  39  41
ATOM     41  O   LIG    1       24.111 -19.599   4.426  0.00  0.00    -0.478 OA
ATOM     42  H   LIG    1       24.154 -20.253   3.699  0.00  0.00    +0.295 HD
ENDBRANCH  39  41
ENDBRANCH  37  39
ENDBRANCH  35  37
ENDBRANCH  25  35
ENDBRANCH   1  26
TORSDOF 12
ENDMDL
MODEL 6
REMARK VINA RESULT:      -5.1      2.720      4.524
REMARK  Name = *****
REMARK                            x       y       z     vdW  Elec       q    Type
REMARK                         _______ _______ _______ _____ _____    ______ ____
ROOT
ATOM      1  C   LIG    1       24.951 -30.282   8.329  0.00  0.00    +0.268 C 
ATOM      2  N   LIG    1       24.047 -29.840   9.293  0.00  0.00    -0.296 N 
ATOM      3  H   LIG    1       23.104 -29.626   8.980  0.00  0.00    +0.150 HD
ATOM      4  O   LIG    1       26.004 -30.838   8.600  0.00  0.00    -0.268 OA
ENDROOT
BRANCH   2   5
ATOM      5  CA  LIG    1       24.348 -30.099  10.715  0.00  0.00    +0.191 C 
ATOM      6  C   LIG    1       25.552 -29.439  11.424  0.00  0.00    +0.169 C 
ATOM      7  N   LIG    1       24.595 -28.843  12.338  0.00  0.00    -0.249 N 
ATOM      8  CA  LIG    1       24.958 -28.181  13.465  0.00  0.00    +0.128 C 
ATOM      9  C   LIG    1       26.248 -27.747  13.569  0.00  0.00    +0.033 C 
ATOM     10  C   LIG    1       27.172 -27.601  12.348  0.00  0.00    +0.110 C 
ATOM     11  S   LIG    1       26.420 -28.024  10.730  0.00  0.00    -0.131 S 
ATOM     12  C   LIG    1       23.480 -29.312  11.739  0.00  0.00    +0.244 C 
ATOM     13  O   LIG    1       22.335 -29.089  11.990  0.00  0.00    -0.273 OA
BRANCH   8  14
ATOM     14  C   LIG    1       23.971 -28.026  14.587  0.00  0.00    +0.352 C 
ATOM     15  O   LIG    1       23.665 -28.968  15.304  0.00  0.00    -0.244 OA
BRANCH  14  16
ATOM     16  OXT LIG    1       23.454 -26.812  14.799  0.00  0.00    -0.476 OA
ATOM     17  HXT LIG    1       23.091 -26.582  15.687  0.00  0.00    +0.295 HD
ENDBRANCH  14  16
ENDBRANCH   8  14
BRANCH   9  18
ATOM     18  C   LIG    1       26.930 -27.334  14.872  0.00  0.00    +0.392 C 
BRANCH  18  19
ATOM     19  N   LIG    1       28.074 -28.268  15.150  0.00  0.00    -0.200 N 
ATOM     20  C   LIG    1       27.856 -29.602  15.266  0.00  0.00    +0.309 A 
ATOM     21  C   LIG    1       28.910 -30.494  15.418  0.00  0.00    +0.070 A 
ATOM     22  C   LIG    1       30.206 -30.009  15.491  0.00  0.00    +0.012 A 
ATOM     23  C   LIG    1       30.418 -28.639  15.431  0.00  0.00    +0.070 A 
ATOM     24  C   LIG    1       29.334 -27.781  15.270  0.00  0.00    +0.309 A 
ENDBRANCH  18  19
ENDBRANCH   9  18
ENDBRANCH   2   5
BRANCH   1  26
ATOM     25  N   LIG    1       23.839 -30.666   6.121  0.00  0.00    -0.077 NA
ATOM     26  C   LIG    1       24.567 -29.937   6.902  0.00  0.00    +0.190 C 
BRANCH  26  27
ATOM     27  C   LIG    1       24.935 -28.644   6.322  0.00  0.00    +0.107 A 
ATOM     28  N   LIG    1       25.205 -27.571   7.173  0.00  0.00    -0.223 NA
ATOM     29  C   LIG    1       25.591 -26.520   6.503  0.00  0.00    +0.156 A 
ATOM     30  S   LIG    1       25.633 -26.721   4.803  0.00  0.00    -0.060 S 
ATOM     31  C   LIG    1       25.118 -28.352   4.983  0.00  0.00    +0.078 A 
BRANCH  29  32
ATOM     32  N   LIG    1       25.984 -25.388   7.102  0.00  0.00    -0.338 N 
ATOM     33  H   LIG    1       26.017 -25.406   8.116  0.00  0.00    +0.144 HD
ATOM     34  H   LIG    1       26.702 -24.823   6.667  0.00  0.00    +0.144 HD
ENDBRANCH  29  32
ENDBRANCH  26  27
BRANCH  25  35
ATOM     35  O   LIG    1       23.331 -31.879   6.617  0.00  0.00    -0.376 OA
BRANCH  35  37
ATOM     36  C   LIG    1       24.694 -33.825   7.170  0.00  0.00    +0.070 C 
ATOM     37  C   LIG    1       24.150 -32.930   6.037  0.00  0.00    +0.228 C 
ATOM     38  C   LIG    1       23.268 -33.762   5.088  0.00  0.00    +0.070 C 
BRANCH  37  39
ATOM     39  C   LIG    1       25.317 -32.377   5.188  0.00  0.00    +0.351 C 
ATOM     40  O   LIG    1       26.467 -32.190   5.557  0.00  0.00    -0.246 OA
BRANCH  39  41
ATOM     41  O   LIG    1       24.963 -31.991   3.938  0.00  0.00    -0.478 OA
ATOM     42  H   LIG    1       25.699 -31.426   3.626  0.00  0.00    +0.295 HD
ENDBRANCH  39  41
ENDBRANCH  37  39
ENDBRANCH  35  37
ENDBRANCH  25  35
ENDBRANCH   1  26
TORSDOF 12
ENDMDL
MODEL 7
REMARK VINA RESULT:      -5.1      2.121      2.780
REMARK  Name = *****
REMARK                            x       y       z     vdW  Elec       q    Type
REMARK                         _______ _______ _______ _____ _____    ______ ____
ROOT
ATOM      1  C   LIG    1       25.482 -30.582   8.793  0.00  0.00    +0.268 C 
ATOM      2  N   LIG    1       24.449 -30.077   9.578  0.00  0.00    -0.296 N 
ATOM      3  H   LIG    1       23.550 -29.932   9.125  0.00  0.00    +0.150 HD
ATOM      4  O   LIG    1       26.503 -31.067   9.256  0.00  0.00    -0.268 OA
ENDROOT
BRANCH   2   5
ATOM      5  CA  LIG    1       24.564 -30.175  11.047  0.00  0.00    +0.191 C 
ATOM      6  C   LIG    1       25.638 -29.387  11.832  0.00  0.00    +0.169 C 
ATOM      7  N   LIG    1       24.547 -28.749  12.544  0.00  0.00    -0.249 N 
ATOM      8  CA  LIG    1       24.731 -27.959  13.631  0.00  0.00    +0.128 C 
ATOM      9  C   LIG    1       25.979 -27.454  13.854  0.00  0.00    +0.033 C 
ATOM     10  C   LIG    1       27.053 -27.388  12.755  0.00  0.00    +0.110 C 
ATOM     11  S   LIG    1       26.541 -28.009  11.109  0.00  0.00    -0.131 S 
ATOM     12  C   LIG    1       23.540 -29.331  11.858  0.00  0.00    +0.244 C 
ATOM     13  O   LIG    1       22.364 -29.140  11.934  0.00  0.00    -0.273 OA
BRANCH   8  14
ATOM     14  C   LIG    1       23.597 -27.739  14.592  0.00  0.00    +0.352 C 
ATOM     15  O   LIG    1       22.967 -26.692  14.608  0.00  0.00    -0.244 OA
BRANCH  14  16
ATOM     16  OXT LIG    1       23.276 -28.741  15.416  0.00  0.00    -0.476 OA
ATOM     17  HXT LIG    1       23.976 -29.365  15.726  0.00  0.00    +0.295 HD
ENDBRANCH  14  16
ENDBRANCH   8  14
BRANCH   9  18
ATOM     18  C   LIG    1       26.465 -26.878  15.184  0.00  0.00    +0.392 C 
BRANCH  18  19
ATOM     19  N   LIG    1       27.926 -27.185  15.353  0.00  0.00    -0.200 N 
ATOM     20  C   LIG    1       28.353 -28.473  15.403  0.00  0.00    +0.309 A 
ATOM     21  C   LIG    1       29.706 -28.781  15.453  0.00  0.00    +0.070 A 
ATOM     22  C   LIG    1       30.637 -27.755  15.492  0.00  0.00    +0.012 A 
ATOM     23  C   LIG    1       30.191 -26.441  15.500  0.00  0.00    +0.070 A 
ATOM     24  C   LIG    1       28.826 -26.176  15.440  0.00  0.00    +0.309 A 
ENDBRANCH  18  19
ENDBRANCH   9  18
ENDBRANCH   2   5
BRANCH   1  26
ATOM     25  N   LIG    1       25.337 -29.277   6.663  0.00  0.00    -0.077 NA
ATOM     26  C   LIG    1       25.283 -30.402   7.299  0.00  0.00    +0.190 C 
BRANCH  26  27
ATOM     27  C   LIG    1       25.104 -31.561   6.424  0.00  0.00    +0.107 A 
ATOM     28  N   LIG    1       23.810 -31.969   6.095  0.00  0.00    -0.223 NA
ATOM     29  C   LIG    1       23.827 -32.962   5.249  0.00  0.00    +0.156 A 
ATOM     30  S   LIG    1       25.389 -33.507   4.804  0.00  0.00    -0.060 S 
ATOM     31  C   LIG    1       26.095 -32.299   5.804  0.00  0.00    +0.078 A 
BRANCH  29  32
ATOM     32  N   LIG    1       22.710 -33.478   4.721  0.00  0.00    -0.338 N 
ATOM     33  H   LIG    1       22.806 -34.377   4.260  0.00  0.00    +0.144 HD
ATOM     34  H   LIG    1       21.829 -33.342   5.200  0.00  0.00    +0.144 HD
ENDBRANCH  29  32
ENDBRANCH  26  27
BRANCH  25  35
ATOM     35  O   LIG    1       25.621 -28.108   7.390  0.00  0.00    -0.376 OA
BRANCH  35  37
ATOM     36  C   LIG    1       24.059 -27.084   5.823  0.00  0.00    +0.070 C 
ATOM     37  C   LIG    1       25.460 -27.003   6.462  0.00  0.00    +0.228 C 
ATOM     38  C   LIG    1       25.604 -25.687   7.248  0.00  0.00    +0.070 C 
BRANCH  37  39
ATOM     39  C   LIG    1       26.547 -26.984   5.363  0.00  0.00    +0.351 C 
ATOM     40  O   LIG    1       27.731 -26.718   5.508  0.00  0.00    -0.246 OA
BRANCH  39  41
ATOM     41  O   LIG    1       26.078 -27.205   4.111  0.00  0.00    -0.478 OA
ATOM     42  H   LIG    1       26.544 -28.007   3.800  0.00  0.00    +0.295 HD
ENDBRANCH  39  41
ENDBRANCH  37  39
ENDBRANCH  35  37
ENDBRANCH  25  35
ENDBRANCH   1  26
TORSDOF 12
ENDMDL
MODEL 8
REMARK VINA RESULT:      -5.0      4.794      8.162
REMARK  Name = *****
REMARK                            x       y       z     vdW  Elec       q    Type
REMARK                         _______ _______ _______ _____ _____    ______ ____
ROOT
ATOM      1  C   LIG    1       25.333 -23.992   5.607  0.00  0.00    +0.268 C 
ATOM      2  N   LIG    1       25.896 -24.852   6.548  0.00  0.00    -0.296 N 
ATOM      3  H   LIG    1       25.781 -24.606   7.528  0.00  0.00    +0.150 HD
ATOM      4  O   LIG    1       25.145 -24.303   4.441  0.00  0.00    -0.268 OA
ENDROOT
BRANCH   2   5
ATOM      5  CA  LIG    1       26.240 -26.226   6.132  0.00  0.00    +0.191 C 
ATOM      6  C   LIG    1       26.546 -27.335   7.164  0.00  0.00    +0.169 C 
ATOM      7  N   LIG    1       25.427 -28.068   6.601  0.00  0.00    -0.249 N 
ATOM      8  CA  LIG    1       25.147 -29.356   6.921  0.00  0.00    +0.128 C 
ATOM      9  C   LIG    1       25.698 -29.870   8.059  0.00  0.00    +0.033 C 
ATOM     10  C   LIG    1       26.260 -28.980   9.181  0.00  0.00    +0.110 C 
ATOM     11  S   LIG    1       26.118 -27.173   8.905  0.00  0.00    -0.131 S 
ATOM     12  C   LIG    1       25.038 -27.123   5.720  0.00  0.00    +0.244 C 
ATOM     13  O   LIG    1       24.089 -27.108   4.995  0.00  0.00    -0.273 OA
BRANCH   8  14
ATOM     14  C   LIG    1       24.325 -30.193   5.983  0.00  0.00    +0.352 C 
ATOM     15  O   LIG    1       24.716 -31.282   5.589  0.00  0.00    -0.244 OA
BRANCH  14  16
ATOM     16  OXT LIG    1       23.131 -29.723   5.611  0.00  0.00    -0.476 OA
ATOM     17  HXT LIG    1       22.508 -30.303   5.112  0.00  0.00    +0.295 HD
ENDBRANCH  14  16
ENDBRANCH   8  14
BRANCH   9  18
ATOM     18  C   LIG    1       25.810 -31.359   8.381  0.00  0.00    +0.392 C 
BRANCH  18  19
ATOM     19  N   LIG    1       24.833 -31.706   9.468  0.00  0.00    -0.200 N 
ATOM     20  C   LIG    1       25.275 -32.182  10.660  0.00  0.00    +0.309 A 
ATOM     21  C   LIG    1       24.399 -32.408  11.714  0.00  0.00    +0.070 A 
ATOM     22  C   LIG    1       23.044 -32.183  11.534  0.00  0.00    +0.012 A 
ATOM     23  C   LIG    1       22.591 -31.753  10.294  0.00  0.00    +0.070 A 
ATOM     24  C   LIG    1       23.504 -31.530   9.267  0.00  0.00    +0.309 A 
ENDBRANCH  18  19
ENDBRANCH   9  18
ENDBRANCH   2   5
BRANCH   1  26
ATOM     25  N   LIG    1       25.866 -21.864   6.811  0.00  0.00    -0.077 NA
ATOM     26  C   LIG    1       25.048 -22.594   6.124  0.00  0.00    +0.190 C 
BRANCH  26  27
ATOM     27  C   LIG    1       23.801 -21.909   5.777  0.00  0.00    +0.107 A 
ATOM     28  N   LIG    1       23.840 -20.550   5.462  0.00  0.00    -0.223 NA
ATOM     29  C   LIG    1       22.665 -20.113   5.102  0.00  0.00    +0.156 A 
ATOM     30  S   LIG    1       21.415 -21.284   5.142  0.00  0.00    -0.060 S 
ATOM     31  C   LIG    1       22.546 -22.473   5.656  0.00  0.00    +0.078 A 
BRANCH  29  32
ATOM     32  N   LIG    1       22.461 -18.859   4.676  0.00  0.00    -0.338 N 
ATOM     33  H   LIG    1       21.597 -18.419   4.977  0.00  0.00    +0.144 HD
ATOM     34  H   LIG    1       23.249 -18.231   4.597  0.00  0.00    +0.144 HD
ENDBRANCH  29  32
ENDBRANCH  26  27
BRANCH  25  35
ATOM     35  O   LIG    1       27.141 -22.378   7.101  0.00  0.00    -0.376 OA
BRANCH  35  37
ATOM     36  C   LIG    1       27.142 -20.293   8.366  0.00  0.00    +0.070 C 
ATOM     37  C   LIG    1       27.964 -21.239   7.467  0.00  0.00    +0.228 C 
ATOM     38  C   LIG    1       29.192 -21.758   8.237  0.00  0.00    +0.070 C 
BRANCH  37  39
ATOM     39  C   LIG    1       28.503 -20.473   6.238  0.00  0.00    +0.351 C 
ATOM     40  O   LIG    1       29.589 -19.921   6.136  0.00  0.00    -0.246 OA
BRANCH  39  41
ATOM     41  O   LIG    1       27.612 -20.349   5.224  0.00  0.00    -0.478 OA
ATOM     42  H   LIG    1       27.926 -20.965   4.530  0.00  0.00    +0.295 HD
ENDBRANCH  39  41
ENDBRANCH  37  39
ENDBRANCH  35  37
ENDBRANCH  25  35
ENDBRANCH   1  26
TORSDOF 12
ENDMDL
MODEL 9
REMARK VINA RESULT:      -5.0      3.858      9.281
REMARK  Name = *****
REMARK                            x       y       z     vdW  Elec       q    Type
REMARK                         _______ _______ _______ _____ _____    ______ ____
ROOT
ATOM      1  C   LIG    1       22.119 -29.914  12.642  0.00  0.00    +0.268 C 
ATOM      2  N   LIG    1       22.785 -30.843  13.439  0.00  0.00    -0.296 N 
ATOM      3  H   LIG    1       22.212 -31.456  14.014  0.00  0.00    +0.150 HD
ATOM      4  O   LIG    1       22.648 -29.328  11.710  0.00  0.00    -0.268 OA
ENDROOT
BRANCH   2   5
ATOM      5  CA  LIG    1       24.186 -31.177  13.115  0.00  0.00    +0.191 C 
ATOM      6  C   LIG    1       24.551 -32.063  11.902  0.00  0.00    +0.169 C 
ATOM      7  N   LIG    1       25.314 -30.937  11.399  0.00  0.00    -0.249 N 
ATOM      8  CA  LIG    1       26.146 -31.021  10.330  0.00  0.00    +0.128 C 
ATOM      9  C   LIG    1       25.999 -32.082   9.484  0.00  0.00    +0.033 C 
ATOM     10  C   LIG    1       24.718 -32.932   9.438  0.00  0.00    +0.110 C 
ATOM     11  S   LIG    1       23.381 -32.413  10.580  0.00  0.00    -0.131 S 
ATOM     12  C   LIG    1       24.987 -30.066  12.377  0.00  0.00    +0.244 C 
ATOM     13  O   LIG    1       25.255 -28.907  12.479  0.00  0.00    -0.273 OA
BRANCH   8  14
ATOM     14  C   LIG    1       27.245 -30.012  10.162  0.00  0.00    +0.352 C 
ATOM     15  O   LIG    1       28.245 -30.033  10.864  0.00  0.00    -0.244 OA
BRANCH  14  16
ATOM     16  OXT LIG    1       27.110 -29.099   9.196  0.00  0.00    -0.476 OA
ATOM     17  HXT LIG    1       26.823 -28.182   9.423  0.00  0.00    +0.295 HD
ENDBRANCH  14  16
ENDBRANCH   8  14
BRANCH   9  18
ATOM     18  C   LIG    1       27.047 -32.547   8.474  0.00  0.00    +0.392 C 
BRANCH  18  19
ATOM     19  N   LIG    1       26.498 -32.392   7.084  0.00  0.00    -0.200 N 
ATOM     20  C   LIG    1       25.934 -31.220   6.697  0.00  0.00    +0.309 A 
ATOM     21  C   LIG    1       25.516 -31.020   5.388  0.00  0.00    +0.070 A 
ATOM     22  C   LIG    1       25.640 -32.049   4.469  0.00  0.00    +0.012 A 
ATOM     23  C   LIG    1       26.163 -33.265   4.885  0.00  0.00    +0.070 A 
ATOM     24  C   LIG    1       26.578 -33.421   6.205  0.00  0.00    +0.309 A 
ENDBRANCH  18  19
ENDBRANCH   9  18
ENDBRANCH   2   5
BRANCH   1  26
ATOM     25  N   LIG    1       19.670 -30.372  12.867  0.00  0.00    -0.077 NA
ATOM     26  C   LIG    1       20.697 -29.615  13.079  0.00  0.00    +0.190 C 
BRANCH  26  27
ATOM     27  C   LIG    1       20.398 -28.437  13.895  0.00  0.00    +0.107 A 
ATOM     28  N   LIG    1       19.072 -28.022  14.026  0.00  0.00    -0.223 NA
ATOM     29  C   LIG    1       18.970 -27.012  14.845  0.00  0.00    +0.156 A 
ATOM     30  S   LIG    1       20.454 -26.458  15.499  0.00  0.00    -0.060 S 
ATOM     31  C   LIG    1       21.292 -27.688  14.637  0.00  0.00    +0.078 A 
BRANCH  29  32
ATOM     32  N   LIG    1       17.790 -26.484  15.195  0.00  0.00    -0.338 N 
ATOM     33  H   LIG    1       17.784 -25.922  16.040  0.00  0.00    +0.144 HD
ATOM     34  H   LIG    1       17.158 -26.165  14.472  0.00  0.00    +0.144 HD
ENDBRANCH  29  32
ENDBRANCH  26  27
BRANCH  25  35
ATOM     35  O   LIG    1       19.862 -31.590  12.193  0.00  0.00    -0.376 OA
BRANCH  35  37
ATOM     36  C   LIG    1       18.371 -33.481  11.809  0.00  0.00    +0.070 C 
ATOM     37  C   LIG    1       18.568 -31.960  11.646  0.00  0.00    +0.228 C 
ATOM     38  C   LIG    1       17.479 -31.203  12.429  0.00  0.00    +0.070 C 
BRANCH  37  39
ATOM     39  C   LIG    1       18.409 -31.558  10.163  0.00  0.00    +0.351 C 
ATOM     40  O   LIG    1       17.945 -32.244   9.263  0.00  0.00    -0.246 OA
BRANCH  39  41
ATOM     41  O   LIG    1       18.932 -30.347   9.855  0.00  0.00    -0.478 OA
ATOM     42  H   LIG    1       19.324 -30.016  10.689  0.00  0.00    +0.295 HD
ENDBRANCH  39  41
ENDBRANCH  37  39
ENDBRANCH  35  37
ENDBRANCH  25  35
ENDBRANCH   1  26
TORSDOF 12
ENDMDL
