MODEL 1
REMARK VINA RESULT:      -7.1      0.000      0.000
REMARK  Name = *****
REMARK                            x       y       z     vdW  Elec       q    Type
REMARK                         _______ _______ _______ _____ _____    ______ ____
ROOT
ATOM      1  C   LIG    1       26.112 -28.209   7.893  0.00  0.00    -0.008 A 
ATOM      2  C   LIG    1       25.458 -29.457   7.896  0.00  0.00    -0.004 A 
ATOM      3  C   LIG    1       25.047 -30.429   6.847  0.00  0.00    -0.009 A 
ATOM      4  C   LIG    1       24.223 -31.434   7.407  0.00  0.00    -0.008 A 
ATOM      5  C   LIG    1       24.020 -31.050   8.850  0.00  0.00    -0.009 C 
ATOM      6  C   LIG    1       22.929 -31.287   9.573  0.00  0.00    +0.017 C 
ATOM      7  C   LIG    1       23.818 -32.541   6.659  0.00  0.00    +0.029 A 
ATOM      8  C   LIG    1       24.140 -32.566   5.283  0.00  0.00    +0.042 A 
ATOM      9 CL   LIG    1       23.524 -33.815   4.265  0.00  0.00    -0.084 Cl
ATOM     10  C   LIG    1       24.974 -31.595   4.743  0.00  0.00    +0.020 A 
ATOM     11  C   LIG    1       25.496 -30.609   5.535  0.00  0.00    +0.010 A 
ATOM     12  C   LIG    1       25.043 -30.015   9.148  0.00  0.00    -0.008 A 
ATOM     13  C   LIG    1       25.577 -29.634  10.359  0.00  0.00    +0.029 A 
ATOM     14  C   LIG    1       26.450 -28.551  10.341  0.00  0.00    +0.042 A 
ATOM     15 CL   LIG    1       27.240 -28.084  11.788  0.00  0.00    -0.084 Cl
ATOM     16  C   LIG    1       26.662 -27.827   9.150  0.00  0.00    +0.027 A 
ENDROOT
BRANCH   6  17
ATOM     17  C   LIG    1       22.443 -30.659  10.864  0.00  0.00    -0.024 A 
ATOM     18  C   LIG    1       23.192 -30.744  12.043  0.00  0.00    +0.009 A 
ATOM     19  C   LIG    1       22.665 -30.265  13.272  0.00  0.00    +0.020 A 
ATOM     20  C   LIG    1       21.402 -29.688  13.315  0.00  0.00    +0.041 A 
ATOM     21 CL   LIG    1       20.758 -29.125  14.815  0.00  0.00    -0.084 Cl
ATOM     22  C   LIG    1       20.657 -29.568  12.150  0.00  0.00    +0.020 A 
ATOM     23  C   LIG    1       21.179 -30.056  10.920  0.00  0.00    +0.009 A 
ENDBRANCH   6  17
BRANCH   1  24
ATOM     24  C   LIG    1       26.005 -27.169   6.735  0.00  0.00    +0.159 C 
BRANCH  24  25
ATOM     25  O   LIG    1       26.249 -27.698   5.429  0.00  0.00    -0.386 OA
ATOM     26  H   LIG    1       25.536 -27.455   4.824  0.00  0.00    +0.210 HD
ENDBRANCH  24  25
BRANCH  24  27
ATOM     27  C   LIG    1       24.702 -26.327   6.650  0.00  0.00    +0.120 C 
BRANCH  27  28
ATOM     28  N   LIG    1       24.593 -24.844   6.887  0.00  0.00    -0.300 NA
BRANCH  28  29
ATOM     29  C   LIG    1       23.286 -24.323   6.410  0.00  0.00    +0.084 C 
BRANCH  29  30
ATOM     30  C   LIG    1       22.729 -22.934   6.904  0.00  0.00    +0.015 C 
BRANCH  30  32
ATOM     31  C   LIG    1       23.114 -20.361   6.212  0.00  0.00    +0.004 C 
ATOM     32  C   LIG    1       22.870 -21.809   5.905  0.00  0.00    -0.002 C 
ENDBRANCH  30  32
ENDBRANCH  29  30
ENDBRANCH  28  29
BRANCH  28  33
ATOM     33  C   LIG    1       25.860 -24.242   6.367  0.00  0.00    +0.084 C 
BRANCH  33  34
ATOM     34  C   LIG    1       26.412 -23.041   7.094  0.00  0.00    +0.015 C 
BRANCH  34  35
ATOM     35  C   LIG    1       25.818 -22.439   8.341  0.00  0.00    -0.002 C 
ATOM     36  C   LIG    1       25.972 -20.954   8.413  0.00  0.00    +0.004 C 
ENDBRANCH  34  35
ENDBRANCH  33  34
ENDBRANCH  28  33
ENDBRANCH  27  28
ENDBRANCH  24  27
ENDBRANCH   1  24
TORSDOF 11
ENDMDL
MODEL 2
REMARK VINA RESULT:      -6.8      0.714      1.952
REMARK  Name = *****
REMARK                            x       y       z     vdW  Elec       q    Type
REMARK                         _______ _______ _______ _____ _____    ______ ____
ROOT
ATOM      1  C   LIG    1       26.140 -28.118   7.954  0.00  0.00    -0.008 A 
ATOM      2  C   LIG    1       25.402 -29.314   8.053  0.00  0.00    -0.004 A 
ATOM      3  C   LIG    1       24.910 -30.325   7.079  0.00  0.00    -0.009 A 
ATOM      4  C   LIG    1       24.027 -31.229   7.718  0.00  0.00    -0.008 A 
ATOM      5  C   LIG    1       23.873 -30.731   9.132  0.00  0.00    -0.009 C 
ATOM      6  C   LIG    1       22.779 -30.840   9.882  0.00  0.00    +0.017 C 
ATOM      7  C   LIG    1       23.535 -32.354   7.055  0.00  0.00    +0.029 A 
ATOM      8  C   LIG    1       23.833 -32.499   5.681  0.00  0.00    +0.042 A 
ATOM      9 CL   LIG    1       23.117 -33.770   4.762  0.00  0.00    -0.084 Cl
ATOM     10  C   LIG    1       24.724 -31.629   5.065  0.00  0.00    +0.020 A 
ATOM     11  C   LIG    1       25.325 -30.628   5.780  0.00  0.00    +0.010 A 
ATOM     12  C   LIG    1       24.969 -29.751   9.345  0.00  0.00    -0.008 A 
ATOM     13  C   LIG    1       25.546 -29.325  10.521  0.00  0.00    +0.029 A 
ATOM     14  C   LIG    1       26.491 -28.309  10.416  0.00  0.00    +0.042 A 
ATOM     15 CL   LIG    1       27.334 -27.797  11.819  0.00  0.00    -0.084 Cl
ATOM     16  C   LIG    1       26.735 -27.687   9.175  0.00  0.00    +0.027 A 
ENDROOT
BRANCH   6  17
ATOM     17  C   LIG    1       22.357 -30.090  11.130  0.00  0.00    -0.024 A 
ATOM     18  C   LIG    1       21.028 -30.091  11.567  0.00  0.00    +0.009 A 
ATOM     19  C   LIG    1       20.624 -29.279  12.660  0.00  0.00    +0.020 A 
ATOM     20  C   LIG    1       21.552 -28.485  13.323  0.00  0.00    +0.041 A 
ATOM     21 CL   LIG    1       21.051 -27.485  14.638  0.00  0.00    -0.084 Cl
ATOM     22  C   LIG    1       22.880 -28.493  12.922  0.00  0.00    +0.020 A 
ATOM     23  C   LIG    1       23.285 -29.298  11.821  0.00  0.00    +0.009 A 
ENDBRANCH   6  17
BRANCH   1  24
ATOM     24  C   LIG    1       26.088 -27.157   6.726  0.00  0.00    +0.159 C 
BRANCH  24  25
ATOM     25  O   LIG    1       26.346 -27.780   5.465  0.00  0.00    -0.386 OA
ATOM     26  H   LIG    1       27.032 -28.455   5.552  0.00  0.00    +0.210 HD
ENDBRANCH  24  25
BRANCH  24  27
ATOM     27  C   LIG    1       24.810 -26.289   6.553  0.00  0.00    +0.120 C 
BRANCH  27  28
ATOM     28  N   LIG    1       24.773 -24.787   6.439  0.00  0.00    -0.300 NA
BRANCH  28  29
ATOM     29  C   LIG    1       25.774 -24.161   7.341  0.00  0.00    +0.084 C 
BRANCH  29  30
ATOM     30  C   LIG    1       26.514 -22.828   6.943  0.00  0.00    +0.015 C 
BRANCH  30  32
ATOM     31  C   LIG    1       25.942 -20.746   8.551  0.00  0.00    +0.004 C 
ATOM     32  C   LIG    1       26.793 -21.895   8.098  0.00  0.00    -0.002 C 
ENDBRANCH  30  32
ENDBRANCH  29  30
ENDBRANCH  28  29
BRANCH  28  33
ATOM     33  C   LIG    1       23.334 -24.394   6.549  0.00  0.00    +0.084 C 
BRANCH  33  34
ATOM     34  C   LIG    1       23.029 -22.969   6.940  0.00  0.00    +0.015 C 
BRANCH  34  35
ATOM     35  C   LIG    1       22.655 -21.871   5.978  0.00  0.00    -0.002 C 
ATOM     36  C   LIG    1       23.836 -21.134   5.434  0.00  0.00    +0.004 C 
ENDBRANCH  34  35
ENDBRANCH  33  34
ENDBRANCH  28  33
ENDBRANCH  27  28
ENDBRANCH  24  27
ENDBRANCH   1  24
TORSDOF 11
ENDMDL
MODEL 3
REMARK VINA RESULT:      -6.6      4.467      8.780
REMARK  Name = *****
REMARK                            x       y       z     vdW  Elec       q    Type
REMARK                         _______ _______ _______ _____ _____    ______ ____
ROOT
ATOM      1  C   LIG    1       22.476 -29.633  12.995  0.00  0.00    -0.008 A 
ATOM      2  C   LIG    1       23.774 -29.168  12.705  0.00  0.00    -0.004 A 
ATOM      3  C   LIG    1       24.585 -27.993  13.124  0.00  0.00    -0.009 A 
ATOM      4  C   LIG    1       25.766 -27.913  12.347  0.00  0.00    -0.008 A 
ATOM      5  C   LIG    1       25.672 -29.021  11.330  0.00  0.00    -0.009 C 
ATOM      6  C   LIG    1       26.164 -28.989  10.094  0.00  0.00    +0.017 C 
ATOM      7  C   LIG    1       26.762 -26.978  12.635  0.00  0.00    +0.029 A 
ATOM      8  C   LIG    1       26.503 -26.021  13.642  0.00  0.00    +0.042 A 
ATOM      9 CL   LIG    1       27.615 -24.734  13.930  0.00  0.00    -0.084 Cl
ATOM     10  C   LIG    1       25.358 -26.121  14.423  0.00  0.00    +0.020 A 
ATOM     11  C   LIG    1       24.474 -27.147  14.230  0.00  0.00    +0.010 A 
ATOM     12  C   LIG    1       24.592 -29.923  11.804  0.00  0.00    -0.008 A 
ATOM     13  C   LIG    1       24.372 -31.253  11.517  0.00  0.00    +0.029 A 
ATOM     14  C   LIG    1       23.206 -31.814  12.028  0.00  0.00    +0.042 A 
ATOM     15 CL   LIG    1       22.913 -33.489  11.808  0.00  0.00    -0.084 Cl
ATOM     16  C   LIG    1       22.261 -31.010  12.697  0.00  0.00    +0.027 A 
ENDROOT
BRANCH   6  17
ATOM     17  C   LIG    1       25.838 -29.834   8.879  0.00  0.00    -0.024 A 
ATOM     18  C   LIG    1       26.464 -31.065   8.658  0.00  0.00    +0.009 A 
ATOM     19  C   LIG    1       26.247 -31.783   7.452  0.00  0.00    +0.020 A 
ATOM     20  C   LIG    1       25.392 -31.278   6.481  0.00  0.00    +0.041 A 
ATOM     21 CL   LIG    1       25.146 -32.145   5.008  0.00  0.00    -0.084 Cl
ATOM     22  C   LIG    1       24.738 -30.072   6.695  0.00  0.00    +0.020 A 
ATOM     23  C   LIG    1       24.963 -29.347   7.898  0.00  0.00    +0.009 A 
ENDBRANCH   6  17
BRANCH   1  24
ATOM     24  C   LIG    1       21.267 -28.704  13.322  0.00  0.00    +0.159 C 
BRANCH  24  25
ATOM     25  O   LIG    1       20.580 -28.188  12.179  0.00  0.00    -0.386 OA
ATOM     26  H   LIG    1       19.854 -27.612  12.449  0.00  0.00    +0.210 HD
ENDBRANCH  24  25
BRANCH  24  27
ATOM     27  C   LIG    1       20.185 -29.256  14.293  0.00  0.00    +0.120 C 
BRANCH  27  28
ATOM     28  N   LIG    1       18.761 -29.583  13.931  0.00  0.00    -0.300 NA
BRANCH  28  29
ATOM     29  C   LIG    1       17.812 -28.956  14.887  0.00  0.00    +0.084 C 
BRANCH  29  30
ATOM     30  C   LIG    1       16.626 -28.046  14.387  0.00  0.00    +0.015 C 
BRANCH  30  32
ATOM     31  C   LIG    1       18.292 -25.999  13.860  0.00  0.00    +0.004 C 
ATOM     32  C   LIG    1       16.969 -26.581  14.261  0.00  0.00    -0.002 C 
ENDBRANCH  30  32
ENDBRANCH  29  30
ENDBRANCH  28  29
BRANCH  28  33
ATOM     33  C   LIG    1       18.713 -31.061  13.709  0.00  0.00    +0.084 C 
BRANCH  33  34
ATOM     34  C   LIG    1       18.272 -31.549  12.351  0.00  0.00    +0.015 C 
BRANCH  34  35
ATOM     35  C   LIG    1       19.005 -31.289  11.061  0.00  0.00    -0.002 C 
ATOM     36  C   LIG    1       18.110 -31.275   9.864  0.00  0.00    +0.004 C 
ENDBRANCH  34  35
ENDBRANCH  33  34
ENDBRANCH  28  33
ENDBRANCH  27  28
ENDBRANCH  24  27
ENDBRANCH   1  24
TORSDOF 11
ENDMDL
MODEL 4
REMARK VINA RESULT:      -6.6      3.844      6.877
REMARK  Name = *****
REMARK                            x       y       z     vdW  Elec       q    Type
REMARK                         _______ _______ _______ _____ _____    ______ ____
ROOT
ATOM      1  C   LIG    1       25.756 -28.934   9.597  0.00  0.00    -0.008 A 
ATOM      2  C   LIG    1       24.740 -29.902   9.473  0.00  0.00    -0.004 A 
ATOM      3  C   LIG    1       23.849 -30.616  10.428  0.00  0.00    -0.009 A 
ATOM      4  C   LIG    1       23.151 -31.651   9.763  0.00  0.00    -0.008 A 
ATOM      5  C   LIG    1       23.673 -31.667   8.350  0.00  0.00    -0.009 C 
ATOM      6  C   LIG    1       23.796 -32.742   7.575  0.00  0.00    +0.017 C 
ATOM      7  C   LIG    1       22.150 -32.382  10.407  0.00  0.00    +0.029 A 
ATOM      8  C   LIG    1       21.943 -32.152  11.786  0.00  0.00    +0.042 A 
ATOM      9 CL   LIG    1       20.846 -33.137  12.680  0.00  0.00    -0.084 Cl
ATOM     10  C   LIG    1       22.607 -31.114  12.428  0.00  0.00    +0.020 A 
ATOM     11  C   LIG    1       23.464 -30.303  11.734  0.00  0.00    +0.010 A 
ATOM     12  C   LIG    1       24.405 -30.387   8.168  0.00  0.00    -0.008 A 
ATOM     13  C   LIG    1       24.706 -29.706   7.009  0.00  0.00    +0.029 A 
ATOM     14  C   LIG    1       25.503 -28.574   7.142  0.00  0.00    +0.042 A 
ATOM     15 CL   LIG    1       25.832 -27.611   5.762  0.00  0.00    -0.084 Cl
ATOM     16  C   LIG    1       26.057 -28.235   8.393  0.00  0.00    +0.027 A 
ENDROOT
BRANCH   6  17
ATOM     17  C   LIG    1       24.621 -32.970   6.324  0.00  0.00    -0.024 A 
ATOM     18  C   LIG    1       26.019 -32.993   6.367  0.00  0.00    +0.009 A 
ATOM     19  C   LIG    1       26.780 -33.076   5.170  0.00  0.00    +0.020 A 
ATOM     20  C   LIG    1       26.141 -33.155   3.939  0.00  0.00    +0.041 A 
ATOM     21 CL   LIG    1       27.070 -33.236   2.486  0.00  0.00    -0.084 Cl
ATOM     22  C   LIG    1       24.754 -33.163   3.878  0.00  0.00    +0.020 A 
ATOM     23  C   LIG    1       23.991 -33.070   5.075  0.00  0.00    +0.009 A 
ENDBRANCH   6  17
BRANCH   1  24
ATOM     24  C   LIG    1       26.703 -28.814  10.830  0.00  0.00    +0.159 C 
BRANCH  24  25
ATOM     25  O   LIG    1       28.034 -29.291  10.614  0.00  0.00    -0.386 OA
ATOM     26  H   LIG    1       28.242 -30.010  11.224  0.00  0.00    +0.210 HD
ENDBRANCH  24  25
BRANCH  24  27
ATOM     27  C   LIG    1       26.824 -27.418  11.504  0.00  0.00    +0.120 C 
BRANCH  27  28
ATOM     28  N   LIG    1       26.775 -27.147  12.985  0.00  0.00    -0.300 NA
BRANCH  28  29
ATOM     29  C   LIG    1       25.655 -27.885  13.624  0.00  0.00    +0.084 C 
BRANCH  29  30
ATOM     30  C   LIG    1       24.430 -27.123  14.259  0.00  0.00    +0.015 C 
BRANCH  30  32
ATOM     31  C   LIG    1       21.895 -27.005  13.361  0.00  0.00    +0.004 C 
ATOM     32  C   LIG    1       23.364 -26.714  13.270  0.00  0.00    -0.002 C 
ENDBRANCH  30  32
ENDBRANCH  29  30
ENDBRANCH  28  29
BRANCH  28  33
ATOM     33  C   LIG    1       26.864 -25.662  13.143  0.00  0.00    +0.084 C 
BRANCH  33  34
ATOM     34  C   LIG    1       27.525 -25.132  14.391  0.00  0.00    +0.015 C 
BRANCH  34  35
ATOM     35  C   LIG    1       26.932 -24.092  15.306  0.00  0.00    -0.002 C 
ATOM     36  C   LIG    1       25.582 -23.621  14.870  0.00  0.00    +0.004 C 
ENDBRANCH  34  35
ENDBRANCH  33  34
ENDBRANCH  28  33
ENDBRANCH  27  28
ENDBRANCH  24  27
ENDBRANCH   1  24
TORSDOF 11
ENDMDL
MODEL 5
REMARK VINA RESULT:      -6.6      2.792      5.813
REMARK  Name = *****
REMARK                            x       y       z     vdW  Elec       q    Type
REMARK                         _______ _______ _______ _____ _____    ______ ____
ROOT
ATOM      1  C   LIG    1       25.368 -29.780   9.842  0.00  0.00    -0.008 A 
ATOM      2  C   LIG    1       24.437 -29.760  10.899  0.00  0.00    -0.004 A 
ATOM      3  C   LIG    1       23.004 -30.133  11.042  0.00  0.00    -0.009 A 
ATOM      4  C   LIG    1       22.510 -29.701  12.296  0.00  0.00    -0.008 A 
ATOM      5  C   LIG    1       23.637 -28.944  12.951  0.00  0.00    -0.009 C 
ATOM      6  C   LIG    1       23.505 -27.905  13.771  0.00  0.00    +0.017 C 
ATOM      7  C   LIG    1       21.230 -30.049  12.731  0.00  0.00    +0.029 A 
ATOM      8  C   LIG    1       20.385 -30.733  11.828  0.00  0.00    +0.042 A 
ATOM      9 CL   LIG    1       18.738 -31.041  12.235  0.00  0.00    -0.084 Cl
ATOM     10  C   LIG    1       20.882 -31.182  10.610  0.00  0.00    +0.020 A 
ATOM     11  C   LIG    1       22.193 -30.973  10.275  0.00  0.00    +0.010 A 
ATOM     12  C   LIG    1       24.861 -29.284  12.181  0.00  0.00    -0.008 A 
ATOM     13  C   LIG    1       26.183 -29.226  12.567  0.00  0.00    +0.029 A 
ATOM     14  C   LIG    1       27.129 -29.509  11.588  0.00  0.00    +0.042 A 
ATOM     15 CL   LIG    1       28.789 -29.563  12.013  0.00  0.00    -0.084 Cl
ATOM     16  C   LIG    1       26.731 -29.722  10.252  0.00  0.00    +0.027 A 
ENDROOT
BRANCH   6  17
ATOM     17  C   LIG    1       24.503 -26.845  14.192  0.00  0.00    -0.024 A 
ATOM     18  C   LIG    1       24.558 -25.601  13.554  0.00  0.00    +0.009 A 
ATOM     19  C   LIG    1       25.583 -24.669  13.870  0.00  0.00    +0.020 A 
ATOM     20  C   LIG    1       26.535 -24.976  14.834  0.00  0.00    +0.041 A 
ATOM     21 CL   LIG    1       27.789 -23.847  15.200  0.00  0.00    -0.084 Cl
ATOM     22  C   LIG    1       26.479 -26.193  15.499  0.00  0.00    +0.020 A 
ATOM     23  C   LIG    1       25.460 -27.132  15.176  0.00  0.00    +0.009 A 
ENDBRANCH   6  17
BRANCH   1  24
ATOM     24  C   LIG    1       24.992 -29.575   8.342  0.00  0.00    +0.159 C 
BRANCH  24  25
ATOM     25  O   LIG    1       23.622 -29.836   8.025  0.00  0.00    -0.386 OA
ATOM     26  H   LIG    1       23.055 -29.645   8.784  0.00  0.00    +0.210 HD
ENDBRANCH  24  25
BRANCH  24  27
ATOM     27  C   LIG    1       25.358 -28.210   7.695  0.00  0.00    +0.120 C 
BRANCH  27  28
ATOM     28  N   LIG    1       24.990 -27.767   6.303  0.00  0.00    -0.300 NA
BRANCH  28  29
ATOM     29  C   LIG    1       25.599 -28.660   5.283  0.00  0.00    +0.084 C 
BRANCH  29  30
ATOM     30  C   LIG    1       24.953 -30.051   4.922  0.00  0.00    +0.015 C 
BRANCH  30  32
ATOM     31  C   LIG    1       25.952 -32.451   4.224  0.00  0.00    +0.004 C 
ATOM     32  C   LIG    1       25.872 -31.237   5.100  0.00  0.00    -0.002 C 
ENDBRANCH  30  32
ENDBRANCH  29  30
ENDBRANCH  28  29
BRANCH  28  33
ATOM     33  C   LIG    1       25.256 -26.297   6.246  0.00  0.00    +0.084 C 
BRANCH  33  34
ATOM     34  C   LIG    1       24.063 -25.375   6.178  0.00  0.00    +0.015 C 
BRANCH  34  35
ATOM     35  C   LIG    1       24.041 -23.954   6.678  0.00  0.00    -0.002 C 
ATOM     36  C   LIG    1       25.381 -23.461   7.118  0.00  0.00    +0.004 C 
ENDBRANCH  34  35
ENDBRANCH  33  34
ENDBRANCH  28  33
ENDBRANCH  27  28
ENDBRANCH  24  27
ENDBRANCH   1  24
TORSDOF 11
ENDMDL
MODEL 6
REMARK VINA RESULT:      -6.5      4.145      5.585
REMARK  Name = *****
REMARK                            x       y       z     vdW  Elec       q    Type
REMARK                         _______ _______ _______ _____ _____    ______ ____
ROOT
ATOM      1  C   LIG    1       26.066 -29.580  12.699  0.00  0.00    -0.008 A 
ATOM      2  C   LIG    1       25.397 -29.864  11.492  0.00  0.00    -0.004 A 
ATOM      3  C   LIG    1       25.446 -29.312  10.111  0.00  0.00    -0.009 A 
ATOM      4  C   LIG    1       24.389 -29.844   9.335  0.00  0.00    -0.008 A 
ATOM      5  C   LIG    1       23.575 -30.700  10.270  0.00  0.00    -0.009 C 
ATOM      6  C   LIG    1       22.259 -30.892  10.205  0.00  0.00    +0.017 C 
ATOM      7  C   LIG    1       24.295 -29.590   7.965  0.00  0.00    +0.029 A 
ATOM      8  C   LIG    1       25.209 -28.675   7.395  0.00  0.00    +0.042 A 
ATOM      9 CL   LIG    1       25.042 -28.184   5.751  0.00  0.00    -0.084 Cl
ATOM     10  C   LIG    1       26.264 -28.179   8.152  0.00  0.00    +0.020 A 
ATOM     11  C   LIG    1       26.432 -28.573   9.452  0.00  0.00    +0.010 A 
ATOM     12  C   LIG    1       24.417 -30.907  11.476  0.00  0.00    -0.008 A 
ATOM     13  C   LIG    1       24.362 -31.908  12.422  0.00  0.00    +0.029 A 
ATOM     14  C   LIG    1       25.219 -31.782  13.510  0.00  0.00    +0.042 A 
ATOM     15 CL   LIG    1       25.289 -33.038  14.674  0.00  0.00    -0.084 Cl
ATOM     16  C   LIG    1       26.004 -30.622  13.669  0.00  0.00    +0.027 A 
ENDROOT
BRANCH   6  17
ATOM     17  C   LIG    1       21.282 -31.395  11.248  0.00  0.00    -0.024 A 
ATOM     18  C   LIG    1       20.949 -32.751  11.342  0.00  0.00    +0.009 A 
ATOM     19  C   LIG    1       19.935 -33.189  12.235  0.00  0.00    +0.020 A 
ATOM     20  C   LIG    1       19.272 -32.274  13.044  0.00  0.00    +0.041 A 
ATOM     21 CL   LIG    1       18.027 -32.808  14.114  0.00  0.00    -0.084 Cl
ATOM     22  C   LIG    1       19.609 -30.929  12.987  0.00  0.00    +0.020 A 
ATOM     23  C   LIG    1       20.617 -30.487  12.085  0.00  0.00    +0.009 A 
ENDBRANCH   6  17
BRANCH   1  24
ATOM     24  C   LIG    1       26.575 -28.162  13.104  0.00  0.00    +0.159 C 
BRANCH  24  25
ATOM     25  O   LIG    1       27.802 -27.766  12.485  0.00  0.00    -0.386 OA
ATOM     26  H   LIG    1       27.676 -26.965  11.960  0.00  0.00    +0.210 HD
ENDBRANCH  24  25
BRANCH  24  27
ATOM     27  C   LIG    1       25.582 -26.976  12.949  0.00  0.00    +0.120 C 
BRANCH  27  28
ATOM     28  N   LIG    1       24.971 -26.185  14.075  0.00  0.00    -0.300 NA
BRANCH  28  29
ATOM     29  C   LIG    1       23.520 -26.475  14.202  0.00  0.00    +0.084 C 
BRANCH  29  30
ATOM     30  C   LIG    1       22.782 -27.422  13.182  0.00  0.00    +0.015 C 
BRANCH  30  32
ATOM     31  C   LIG    1       20.293 -26.856  14.038  0.00  0.00    +0.004 C 
ATOM     32  C   LIG    1       21.320 -27.102  12.972  0.00  0.00    -0.002 C 
ENDBRANCH  30  32
ENDBRANCH  29  30
ENDBRANCH  28  29
BRANCH  28  33
ATOM     33  C   LIG    1       25.427 -24.772  13.890  0.00  0.00    +0.084 C 
BRANCH  33  34
ATOM     34  C   LIG    1       26.511 -24.263  14.808  0.00  0.00    +0.015 C 
BRANCH  34  35
ATOM     35  C   LIG    1       27.988 -24.472  14.598  0.00  0.00    -0.002 C 
ATOM     36  C   LIG    1       28.514 -25.697  15.272  0.00  0.00    +0.004 C 
ENDBRANCH  34  35
ENDBRANCH  33  34
ENDBRANCH  28  33
ENDBRANCH  27  28
ENDBRANCH  24  27
ENDBRANCH   1  24
TORSDOF 11
ENDMDL
MODEL 7
REMARK VINA RESULT:      -6.5      3.019      5.777
REMARK  Name = *****
REMARK                            x       y       z     vdW  Elec       q    Type
REMARK                         _______ _______ _______ _____ _____    ______ ____
ROOT
ATOM      1  C   LIG    1       26.448 -29.998  10.460  0.00  0.00    -0.008 A 
ATOM      2  C   LIG    1       25.202 -29.883  11.107  0.00  0.00    -0.004 A 
ATOM      3  C   LIG    1       23.809 -30.289  10.779  0.00  0.00    -0.009 A 
ATOM      4  C   LIG    1       22.904 -29.725  11.709  0.00  0.00    -0.008 A 
ATOM      5  C   LIG    1       23.729 -28.850  12.617  0.00  0.00    -0.009 C 
ATOM      6  C   LIG    1       23.323 -27.723  13.196  0.00  0.00    +0.017 C 
ATOM      7  C   LIG    1       21.549 -30.065  11.703  0.00  0.00    +0.029 A 
ATOM      8  C   LIG    1       21.076 -30.887  10.656  0.00  0.00    +0.042 A 
ATOM      9 CL   LIG    1       19.390 -31.204  10.489  0.00  0.00    -0.084 Cl
ATOM     10  C   LIG    1       21.971 -31.464   9.763  0.00  0.00    +0.020 A 
ATOM     11  C   LIG    1       23.316 -31.248   9.890  0.00  0.00    +0.010 A 
ATOM     12  C   LIG    1       25.145 -29.236  12.383  0.00  0.00    -0.008 A 
ATOM     13  C   LIG    1       26.242 -29.080  13.201  0.00  0.00    +0.029 A 
ATOM     14  C   LIG    1       27.473 -29.445  12.666  0.00  0.00    +0.042 A 
ATOM     15 CL   LIG    1       28.872 -29.383  13.655  0.00  0.00    -0.084 Cl
ATOM     16  C   LIG    1       27.576 -29.837  11.315  0.00  0.00    +0.027 A 
ENDROOT
BRANCH   6  17
ATOM     17  C   LIG    1       24.115 -26.582  13.802  0.00  0.00    -0.024 A 
ATOM     18  C   LIG    1       23.732 -25.991  15.011  0.00  0.00    +0.009 A 
ATOM     19  C   LIG    1       24.405 -24.839  15.500  0.00  0.00    +0.020 A 
ATOM     20  C   LIG    1       25.468 -24.296  14.789  0.00  0.00    +0.041 A 
ATOM     21 CL   LIG    1       26.271 -22.885  15.378  0.00  0.00    -0.084 Cl
ATOM     22  C   LIG    1       25.881 -24.886  13.603  0.00  0.00    +0.020 A 
ATOM     23  C   LIG    1       25.202 -26.033  13.107  0.00  0.00    +0.009 A 
ENDBRANCH   6  17
BRANCH   1  24
ATOM     24  C   LIG    1       26.633 -29.995   8.911  0.00  0.00    +0.159 C 
BRANCH  24  25
ATOM     25  O   LIG    1       26.974 -31.264   8.345  0.00  0.00    -0.386 OA
ATOM     26  H   LIG    1       27.152 -31.911   9.040  0.00  0.00    +0.210 HD
ENDBRANCH  24  25
BRANCH  24  27
ATOM     27  C   LIG    1       25.475 -29.411   8.055  0.00  0.00    +0.120 C 
BRANCH  27  28
ATOM     28  N   LIG    1       25.549 -29.062   6.592  0.00  0.00    -0.300 NA
BRANCH  28  29
ATOM     29  C   LIG    1       24.936 -27.734   6.330  0.00  0.00    +0.084 C 
BRANCH  29  30
ATOM     30  C   LIG    1       25.655 -26.401   6.765  0.00  0.00    +0.015 C 
BRANCH  30  32
ATOM     31  C   LIG    1       23.931 -24.349   6.511  0.00  0.00    +0.004 C 
ATOM     32  C   LIG    1       25.126 -25.155   6.095  0.00  0.00    -0.002 C 
ENDBRANCH  30  32
ENDBRANCH  29  30
ENDBRANCH  28  29
BRANCH  28  33
ATOM     33  C   LIG    1       25.052 -30.262   5.849  0.00  0.00    +0.084 C 
BRANCH  33  34
ATOM     34  C   LIG    1       24.022 -31.128   6.532  0.00  0.00    +0.015 C 
BRANCH  34  35
ATOM     35  C   LIG    1       23.994 -32.633   6.487  0.00  0.00    -0.002 C 
ATOM     36  C   LIG    1       24.401 -33.193   5.163  0.00  0.00    +0.004 C 
ENDBRANCH  34  35
ENDBRANCH  33  34
ENDBRANCH  28  33
ENDBRANCH  27  28
ENDBRANCH  24  27
ENDBRANCH   1  24
TORSDOF 11
ENDMDL
MODEL 8
REMARK VINA RESULT:      -6.2      4.081      6.113
REMARK  Name = *****
REMARK                            x       y       z     vdW  Elec       q    Type
REMARK                         _______ _______ _______ _____ _____    ______ ____
ROOT
ATOM      1  C   LIG    1       26.117 -29.505  12.489  0.00  0.00    -0.008 A 
ATOM      2  C   LIG    1       25.439 -29.774  11.284  0.00  0.00    -0.004 A 
ATOM      3  C   LIG    1       25.459 -29.189   9.916  0.00  0.00    -0.009 A 
ATOM      4  C   LIG    1       24.403 -29.725   9.141  0.00  0.00    -0.008 A 
ATOM      5  C   LIG    1       23.619 -30.619  10.065  0.00  0.00    -0.009 C 
ATOM      6  C   LIG    1       22.307 -30.838  10.013  0.00  0.00    +0.017 C 
ATOM      7  C   LIG    1       24.286 -29.440   7.779  0.00  0.00    +0.029 A 
ATOM      8  C   LIG    1       25.173 -28.493   7.220  0.00  0.00    +0.042 A 
ATOM      9 CL   LIG    1       24.975 -27.967   5.590  0.00  0.00    -0.084 Cl
ATOM     10  C   LIG    1       26.227 -27.993   7.975  0.00  0.00    +0.020 A 
ATOM     11  C   LIG    1       26.420 -28.414   9.262  0.00  0.00    +0.010 A 
ATOM     12  C   LIG    1       24.481 -30.838  11.255  0.00  0.00    -0.008 A 
ATOM     13  C   LIG    1       24.459 -31.861  12.178  0.00  0.00    +0.029 A 
ATOM     14  C   LIG    1       25.328 -31.743  13.258  0.00  0.00    +0.042 A 
ATOM     15 CL   LIG    1       25.439 -33.024  14.391  0.00  0.00    -0.084 Cl
ATOM     16  C   LIG    1       26.090 -30.570  13.435  0.00  0.00    +0.027 A 
ENDROOT
BRANCH   6  17
ATOM     17  C   LIG    1       21.354 -31.386  11.056  0.00  0.00    -0.024 A 
ATOM     18  C   LIG    1       20.838 -32.683  10.962  0.00  0.00    +0.009 A 
ATOM     19  C   LIG    1       19.847 -33.137  11.872  0.00  0.00    +0.020 A 
ATOM     20  C   LIG    1       19.389 -32.300  12.882  0.00  0.00    +0.041 A 
ATOM     21 CL   LIG    1       18.169 -32.849  13.974  0.00  0.00    -0.084 Cl
ATOM     22  C   LIG    1       19.910 -31.020  13.009  0.00  0.00    +0.020 A 
ATOM     23  C   LIG    1       20.895 -30.560  12.092  0.00  0.00    +0.009 A 
ENDBRANCH   6  17
BRANCH   1  24
ATOM     24  C   LIG    1       26.603 -28.087  12.922  0.00  0.00    +0.159 C 
BRANCH  24  25
ATOM     25  O   LIG    1       27.712 -27.578  12.175  0.00  0.00    -0.386 OA
ATOM     26  H   LIG    1       27.712 -27.937  11.278  0.00  0.00    +0.210 HD
ENDBRANCH  24  25
BRANCH  24  27
ATOM     27  C   LIG    1       25.538 -26.956  12.982  0.00  0.00    +0.120 C 
BRANCH  27  28
ATOM     28  N   LIG    1       25.296 -26.034  14.148  0.00  0.00    -0.300 NA
BRANCH  28  29
ATOM     29  C   LIG    1       26.275 -26.287  15.237  0.00  0.00    +0.084 C 
BRANCH  29  30
ATOM     30  C   LIG    1       27.500 -25.325  15.477  0.00  0.00    +0.015 C 
BRANCH  30  32
ATOM     31  C   LIG    1       29.184 -27.425  15.498  0.00  0.00    +0.004 C 
ATOM     32  C   LIG    1       28.853 -25.975  15.302  0.00  0.00    -0.002 C 
ENDBRANCH  30  32
ENDBRANCH  29  30
ENDBRANCH  28  29
BRANCH  28  33
ATOM     33  C   LIG    1       23.832 -26.104  14.443  0.00  0.00    +0.084 C 
BRANCH  33  34
ATOM     34  C   LIG    1       22.894 -26.296  13.276  0.00  0.00    +0.015 C 
BRANCH  34  35
ATOM     35  C   LIG    1       21.852 -27.379  13.176  0.00  0.00    -0.002 C 
ATOM     36  C   LIG    1       20.453 -26.853  13.160  0.00  0.00    +0.004 C 
ENDBRANCH  34  35
ENDBRANCH  33  34
ENDBRANCH  28  33
ENDBRANCH  27  28
ENDBRANCH  24  27
ENDBRANCH   1  24
TORSDOF 11
ENDMDL
MODEL 9
REMARK VINA RESULT:      -6.1      4.855      9.416
REMARK  Name = *****
REMARK                            x       y       z     vdW  Elec       q    Type
REMARK                         _______ _______ _______ _____ _____    ______ ____
ROOT
ATOM      1  C   LIG    1       24.737 -20.447   5.046  0.00  0.00    -0.008 A 
ATOM      2  C   LIG    1       25.615 -21.052   5.966  0.00  0.00    -0.004 A 
ATOM      3  C   LIG    1       26.955 -20.714   6.515  0.00  0.00    -0.009 A 
ATOM      4  C   LIG    1       27.467 -21.803   7.261  0.00  0.00    -0.008 A 
ATOM      5  C   LIG    1       26.463 -22.917   7.115  0.00  0.00    -0.009 C 
ATOM      6  C   LIG    1       26.739 -24.219   7.094  0.00  0.00    +0.017 C 
ATOM      7  C   LIG    1       28.650 -21.690   7.993  0.00  0.00    +0.029 A 
ATOM      8  C   LIG    1       29.399 -20.498   7.864  0.00  0.00    +0.042 A 
ATOM      9 CL   LIG    1       30.951 -20.359   8.603  0.00  0.00    -0.084 Cl
ATOM     10  C   LIG    1       28.880 -19.420   7.157  0.00  0.00    +0.020 A 
ATOM     11  C   LIG    1       27.640 -19.498   6.584  0.00  0.00    +0.010 A 
ATOM     12  C   LIG    1       25.229 -22.290   6.575  0.00  0.00    -0.008 A 
ATOM     13  C   LIG    1       23.923 -22.724   6.642  0.00  0.00    +0.029 A 
ATOM     14  C   LIG    1       22.982 -21.974   5.946  0.00  0.00    +0.042 A 
ATOM     15 CL   LIG    1       21.322 -22.385   6.068  0.00  0.00    -0.084 Cl
ATOM     16  C   LIG    1       23.389 -20.902   5.126  0.00  0.00    +0.027 A 
ENDROOT
BRANCH   6  17
ATOM     17  C   LIG    1       25.922 -25.394   6.596  0.00  0.00    -0.024 A 
ATOM     18  C   LIG    1       25.843 -26.587   7.323  0.00  0.00    +0.009 A 
ATOM     19  C   LIG    1       25.183 -27.723   6.783  0.00  0.00    +0.020 A 
ATOM     20  C   LIG    1       24.590 -27.657   5.529  0.00  0.00    +0.041 A 
ATOM     21 CL   LIG    1       23.806 -29.047   4.868  0.00  0.00    -0.084 Cl
ATOM     22  C   LIG    1       24.633 -26.474   4.805  0.00  0.00    +0.020 A 
ATOM     23  C   LIG    1       25.302 -25.338   5.340  0.00  0.00    +0.009 A 
ENDBRANCH   6  17
BRANCH   1  24
ATOM     24  C   LIG    1       25.201 -19.584   3.832  0.00  0.00    +0.159 C 
BRANCH  24  25
ATOM     25  O   LIG    1       25.317 -20.298   2.598  0.00  0.00    -0.386 OA
ATOM     26  H   LIG    1       26.245 -20.414   2.357  0.00  0.00    +0.210 HD
ENDBRANCH  24  25
BRANCH  24  27
ATOM     27  C   LIG    1       24.403 -18.284   3.533  0.00  0.00    +0.120 C 
BRANCH  27  28
ATOM     28  N   LIG    1       24.790 -16.894   3.963  0.00  0.00    -0.300 NA
BRANCH  28  29
ATOM     29  C   LIG    1       23.597 -16.013   4.053  0.00  0.00    +0.084 C 
BRANCH  29  30
ATOM     30  C   LIG    1       23.736 -14.476   4.373  0.00  0.00    +0.015 C 
BRANCH  30  32
ATOM     31  C   LIG    1       24.671 -13.596   2.008  0.00  0.00    +0.004 C 
ATOM     32  C   LIG    1       23.711 -13.577   3.160  0.00  0.00    -0.002 C 
ENDBRANCH  30  32
ENDBRANCH  29  30
ENDBRANCH  28  29
BRANCH  28  33
ATOM     33  C   LIG    1       25.939 -16.491   3.094  0.00  0.00    +0.084 C 
BRANCH  33  34
ATOM     34  C   LIG    1       27.121 -15.831   3.761  0.00  0.00    +0.015 C 
BRANCH  34  35
ATOM     35  C   LIG    1       27.421 -14.355   3.721  0.00  0.00    -0.002 C 
ATOM     36  C   LIG    1       27.139 -13.659   5.013  0.00  0.00    +0.004 C 
ENDBRANCH  34  35
ENDBRANCH  33  34
ENDBRANCH  28  33
ENDBRANCH  27  28
ENDBRANCH  24  27
ENDBRANCH   1  24
TORSDOF 11
ENDMDL
