MODEL 1
REMARK VINA RESULT:      -3.6      0.000      0.000
REMARK  Name = *****
REMARK                            x       y       z     vdW  Elec       q    Type
REMARK                         _______ _______ _______ _____ _____    ______ ____
ROOT
ATOM      1  C   LIG    1       23.635 -17.604   4.156  0.00  0.00    +0.121 A 
ATOM      2  C   LIG    1       24.752 -17.152   3.450  0.00  0.00    +0.046 A 
ATOM      3  C   LIG    1       24.978 -15.779   3.273  0.00  0.00    +0.007 A 
ATOM      4  C   LIG    1       24.078 -14.841   3.794  0.00  0.00    -0.046 A 
ATOM      5  C   LIG    1       22.941 -15.306   4.467  0.00  0.00    +0.007 A 
ATOM      6  C   LIG    1       22.716 -16.674   4.637  0.00  0.00    +0.046 A 
ENDROOT
BRANCH   1   7
ATOM      7  O   LIG    1       23.526 -18.964   4.324  0.00  0.00    -0.490 OA
BRANCH   7   8
ATOM      8  C   LIG    1       24.548 -19.725   3.661  0.00  0.00    +0.248 C 
BRANCH   8   9
ATOM      9  C   LIG    1       24.894 -20.980   4.477  0.00  0.00    +0.147 C 
BRANCH   9  11
ATOM     10  C   LIG    1       24.641 -21.318   6.937  0.00  0.00    +0.131 C 
ATOM     11  N   LIG    1       25.368 -20.668   5.841  0.00  0.00    -0.315 N 
BRANCH  11  12
ATOM     12  C   LIG    1       26.741 -20.508   6.060  0.00  0.00    +0.121 A 
ATOM     13  N   LIG    1       27.396 -21.399   6.841  0.00  0.00    -0.240 NA
ATOM     14  C   LIG    1       28.721 -21.231   7.060  0.00  0.00    +0.113 A 
ATOM     15  C   LIG    1       29.471 -20.207   6.518  0.00  0.00    +0.020 A 
ATOM     16  C   LIG    1       28.808 -19.278   5.737  0.00  0.00    +0.005 A 
ATOM     17  C   LIG    1       27.435 -19.418   5.530  0.00  0.00    +0.043 A 
ENDBRANCH  11  12
ENDBRANCH   9  11
ENDBRANCH   8   9
ENDBRANCH   7   8
ENDBRANCH   1   7
BRANCH   4  18
ATOM     18  C   LIG    1       24.299 -13.354   3.648  0.00  0.00    +0.059 C 
BRANCH  18  19
ATOM     19  C   LIG    1       25.670 -12.865   4.131  0.00  0.00    +0.146 C 
ATOM     20  C   LIG    1       26.698 -12.770   3.016  0.00  0.00    +0.234 C 
ATOM     21  O   LIG    1       26.777 -11.864   2.199  0.00  0.00    -0.274 OA
ATOM     22  N   LIG    1       27.540 -13.841   3.007  0.00  0.00    -0.246 N 
ATOM     23  H   LIG    1       28.252 -13.931   2.294  0.00  0.00    +0.158 HD
ATOM     24  C   LIG    1       27.513 -14.693   4.053  0.00  0.00    +0.279 C 
ATOM     25  O   LIG    1       28.200 -15.706   4.168  0.00  0.00    -0.263 OA
ATOM     26  S   LIG    1       26.370 -14.150   5.248  0.00  0.00    -0.054 S 
ENDBRANCH  18  19
ENDBRANCH   4  18
TORSDOF 7
ENDMDL
MODEL 2
REMARK VINA RESULT:      -3.3      1.957      3.938
REMARK  Name = *****
REMARK                            x       y       z     vdW  Elec       q    Type
REMARK                         _______ _______ _______ _____ _____    ______ ____
ROOT
ATOM      1  C   LIG    1       27.949 -16.036   4.313  0.00  0.00    +0.121 A 
ATOM      2  C   LIG    1       28.310 -14.695   4.456  0.00  0.00    +0.046 A 
ATOM      3  C   LIG    1       27.567 -13.684   3.830  0.00  0.00    +0.007 A 
ATOM      4  C   LIG    1       26.455 -14.008   3.041  0.00  0.00    -0.046 A 
ATOM      5  C   LIG    1       26.124 -15.358   2.873  0.00  0.00    +0.007 A 
ATOM      6  C   LIG    1       26.870 -16.364   3.493  0.00  0.00    +0.046 A 
ENDROOT
BRANCH   1   7
ATOM      7  O   LIG    1       28.704 -16.952   5.006  0.00  0.00    -0.490 OA
BRANCH   7   8
ATOM      8  C   LIG    1       28.282 -18.315   4.835  0.00  0.00    +0.248 C 
BRANCH   8   9
ATOM      9  C   LIG    1       28.460 -19.098   6.145  0.00  0.00    +0.147 C 
BRANCH   9  11
ATOM     10  C   LIG    1       28.299 -21.422   7.041  0.00  0.00    +0.131 C 
ATOM     11  N   LIG    1       27.761 -20.400   6.138  0.00  0.00    -0.315 N 
BRANCH  11  12
ATOM     12  C   LIG    1       26.369 -20.420   5.991  0.00  0.00    +0.121 A 
ATOM     13  N   LIG    1       25.824 -20.071   4.802  0.00  0.00    -0.240 NA
ATOM     14  C   LIG    1       24.477 -20.078   4.669  0.00  0.00    +0.113 A 
ATOM     15  C   LIG    1       23.603 -20.444   5.673  0.00  0.00    +0.020 A 
ATOM     16  C   LIG    1       24.148 -20.781   6.899  0.00  0.00    +0.005 A 
ATOM     17  C   LIG    1       25.533 -20.744   7.061  0.00  0.00    +0.043 A 
ENDBRANCH  11  12
ENDBRANCH   9  11
ENDBRANCH   8   9
ENDBRANCH   7   8
ENDBRANCH   1   7
BRANCH   4  18
ATOM     18  C   LIG    1       25.613 -12.947   2.373  0.00  0.00    +0.059 C 
BRANCH  18  19
ATOM     19  C   LIG    1       24.281 -12.657   3.077  0.00  0.00    +0.146 C 
ATOM     20  C   LIG    1       24.392 -12.662   4.592  0.00  0.00    +0.234 C 
ATOM     21  O   LIG    1       24.834 -11.749   5.274  0.00  0.00    -0.274 OA
ATOM     22  N   LIG    1       23.951 -13.833   5.131  0.00  0.00    -0.246 N 
ATOM     23  H   LIG    1       24.001 -13.993   6.129  0.00  0.00    +0.158 HD
ATOM     24  C   LIG    1       23.300 -14.707   4.334  0.00  0.00    +0.279 C 
ATOM     25  O   LIG    1       22.867 -15.804   4.680  0.00  0.00    -0.263 OA
ATOM     26  S   LIG    1       23.138 -14.056   2.728  0.00  0.00    -0.054 S 
ENDBRANCH  18  19
ENDBRANCH   4  18
TORSDOF 7
ENDMDL
MODEL 3
REMARK VINA RESULT:      -3.2      1.669      2.340
REMARK  Name = *****
REMARK                            x       y       z     vdW  Elec       q    Type
REMARK                         _______ _______ _______ _____ _____    ______ ____
ROOT
ATOM      1  C   LIG    1       23.498 -16.380   4.276  0.00  0.00    +0.121 A 
ATOM      2  C   LIG    1       24.715 -16.871   3.798  0.00  0.00    +0.046 A 
ATOM      3  C   LIG    1       25.627 -16.019   3.157  0.00  0.00    +0.007 A 
ATOM      4  C   LIG    1       25.322 -14.664   2.976  0.00  0.00    -0.046 A 
ATOM      5  C   LIG    1       24.083 -14.190   3.425  0.00  0.00    +0.007 A 
ATOM      6  C   LIG    1       23.175 -15.042   4.059  0.00  0.00    +0.046 A 
ENDROOT
BRANCH   1   7
ATOM      7  O   LIG    1       22.693 -17.277   4.938  0.00  0.00    -0.490 OA
BRANCH   7   8
ATOM      8  C   LIG    1       22.120 -18.289   4.095  0.00  0.00    +0.248 C 
BRANCH   8   9
ATOM      9  C   LIG    1       23.100 -19.461   3.926  0.00  0.00    +0.147 C 
BRANCH   9  11
ATOM     10  C   LIG    1       22.469 -21.266   5.530  0.00  0.00    +0.131 C 
ATOM     11  N   LIG    1       23.378 -20.167   5.194  0.00  0.00    -0.315 N 
BRANCH  11  12
ATOM     12  C   LIG    1       24.709 -20.366   5.579  0.00  0.00    +0.121 A 
ATOM     13  N   LIG    1       25.701 -19.809   4.845  0.00  0.00    -0.240 NA
ATOM     14  C   LIG    1       26.988 -20.016   5.214  0.00  0.00    +0.113 A 
ATOM     15  C   LIG    1       27.366 -20.753   6.318  0.00  0.00    +0.020 A 
ATOM     16  C   LIG    1       26.362 -21.346   7.062  0.00  0.00    +0.005 A 
ATOM     17  C   LIG    1       25.033 -21.169   6.674  0.00  0.00    +0.043 A 
ENDBRANCH  11  12
ENDBRANCH   9  11
ENDBRANCH   8   9
ENDBRANCH   7   8
ENDBRANCH   1   7
BRANCH   4  18
ATOM     18  C   LIG    1       26.287 -13.708   2.315  0.00  0.00    +0.059 C 
BRANCH  18  19
ATOM     19  C   LIG    1       26.937 -12.700   3.271  0.00  0.00    +0.146 C 
ATOM     20  C   LIG    1       28.236 -13.202   3.878  0.00  0.00    +0.234 C 
ATOM     21  O   LIG    1       29.323 -13.217   3.317  0.00  0.00    -0.274 OA
ATOM     22  N   LIG    1       28.059 -13.667   5.146  0.00  0.00    -0.246 N 
ATOM     23  H   LIG    1       28.832 -14.069   5.661  0.00  0.00    +0.158 HD
ATOM     24  C   LIG    1       26.879 -13.437   5.760  0.00  0.00    +0.279 C 
ATOM     25  O   LIG    1       26.575 -13.814   6.890  0.00  0.00    -0.263 OA
ATOM     26  S   LIG    1       25.832 -12.505   4.728  0.00  0.00    -0.054 S 
ENDBRANCH  18  19
ENDBRANCH   4  18
TORSDOF 7
ENDMDL
MODEL 4
REMARK VINA RESULT:      -3.2      2.356      4.405
REMARK  Name = *****
REMARK                            x       y       z     vdW  Elec       q    Type
REMARK                         _______ _______ _______ _____ _____    ______ ____
ROOT
ATOM      1  C   LIG    1       26.616 -18.470   4.302  0.00  0.00    +0.121 A 
ATOM      2  C   LIG    1       25.612 -17.908   3.510  0.00  0.00    +0.046 A 
ATOM      3  C   LIG    1       25.758 -16.617   2.982  0.00  0.00    +0.007 A 
ATOM      4  C   LIG    1       26.910 -15.868   3.253  0.00  0.00    -0.046 A 
ATOM      5  C   LIG    1       27.893 -16.426   4.080  0.00  0.00    +0.007 A 
ATOM      6  C   LIG    1       27.743 -17.710   4.608  0.00  0.00    +0.046 A 
ENDROOT
BRANCH   1   7
ATOM      7  O   LIG    1       26.408 -19.760   4.731  0.00  0.00    -0.490 OA
BRANCH   7   8
ATOM      8  C   LIG    1       25.406 -20.474   3.989  0.00  0.00    +0.248 C 
BRANCH   8   9
ATOM      9  C   LIG    1       24.776 -21.572   4.861  0.00  0.00    +0.147 C 
BRANCH   9  11
ATOM     10  C   LIG    1       23.893 -20.792   7.061  0.00  0.00    +0.131 C 
ATOM     11  N   LIG    1       23.624 -21.089   5.651  0.00  0.00    -0.315 N 
BRANCH  11  12
ATOM     12  C   LIG    1       22.690 -20.245   5.040  0.00  0.00    +0.121 A 
ATOM     13  N   LIG    1       22.900 -18.908   5.050  0.00  0.00    -0.240 NA
ATOM     14  C   LIG    1       21.987 -18.094   4.469  0.00  0.00    +0.113 A 
ATOM     15  C   LIG    1       20.845 -18.542   3.836  0.00  0.00    +0.020 A 
ATOM     16  C   LIG    1       20.609 -19.905   3.839  0.00  0.00    +0.005 A 
ATOM     17  C   LIG    1       21.524 -20.753   4.464  0.00  0.00    +0.043 A 
ENDBRANCH  11  12
ENDBRANCH   9  11
ENDBRANCH   8   9
ENDBRANCH   7   8
ENDBRANCH   1   7
BRANCH   4  18
ATOM     18  C   LIG    1       27.117 -14.485   2.682  0.00  0.00    +0.059 C 
BRANCH  18  19
ATOM     19  C   LIG    1       26.308 -13.383   3.377  0.00  0.00    +0.146 C 
ATOM     20  C   LIG    1       26.184 -13.588   4.878  0.00  0.00    +0.234 C 
ATOM     21  O   LIG    1       27.049 -13.332   5.702  0.00  0.00    -0.274 OA
ATOM     22  N   LIG    1       24.978 -14.121   5.221  0.00  0.00    -0.246 N 
ATOM     23  H   LIG    1       24.770 -14.348   6.184  0.00  0.00    +0.158 HD
ATOM     24  C   LIG    1       24.011 -14.191   4.281  0.00  0.00    +0.279 C 
ATOM     25  O   LIG    1       22.888 -14.663   4.444  0.00  0.00    -0.263 OA
ATOM     26  S   LIG    1       24.570 -13.496   2.786  0.00  0.00    -0.054 S 
ENDBRANCH  18  19
ENDBRANCH   4  18
TORSDOF 7
ENDMDL
MODEL 5
REMARK VINA RESULT:      -1.4      2.869      6.784
REMARK  Name = *****
REMARK                            x       y       z     vdW  Elec       q    Type
REMARK                         _______ _______ _______ _____ _____    ______ ____
ROOT
ATOM      1  C   LIG    1       22.140 -16.835   4.652  0.00  0.00    +0.121 A 
ATOM      2  C   LIG    1       22.712 -17.248   5.858  0.00  0.00    +0.046 A 
ATOM      3  C   LIG    1       22.909 -18.611   6.125  0.00  0.00    +0.007 A 
ATOM      4  C   LIG    1       22.523 -19.579   5.189  0.00  0.00    -0.046 A 
ATOM      5  C   LIG    1       21.916 -19.155   4.000  0.00  0.00    +0.007 A 
ATOM      6  C   LIG    1       21.716 -17.798   3.738  0.00  0.00    +0.046 A 
ENDROOT
BRANCH   1   7
ATOM      7  O   LIG    1       22.036 -15.478   4.457  0.00  0.00    -0.490 OA
BRANCH   7   8
ATOM      8  C   LIG    1       23.291 -14.817   4.225  0.00  0.00    +0.248 C 
BRANCH   8   9
ATOM      9  C   LIG    1       23.133 -13.737   3.143  0.00  0.00    +0.147 C 
BRANCH   9  11
ATOM     10  C   LIG    1       24.351 -11.730   2.297  0.00  0.00    +0.131 C 
ATOM     11  N   LIG    1       24.419 -13.122   2.752  0.00  0.00    -0.315 N 
BRANCH  11  12
ATOM     12  C   LIG    1       25.573 -13.450   3.473  0.00  0.00    +0.121 A 
ATOM     13  N   LIG    1       25.690 -13.041   4.758  0.00  0.00    -0.240 NA
ATOM     14  C   LIG    1       26.814 -13.349   5.446  0.00  0.00    +0.113 A 
ATOM     15  C   LIG    1       27.861 -14.083   4.926  0.00  0.00    +0.020 A 
ATOM     16  C   LIG    1       27.762 -14.487   3.608  0.00  0.00    +0.005 A 
ATOM     17  C   LIG    1       26.625 -14.148   2.875  0.00  0.00    +0.043 A 
ENDBRANCH  11  12
ENDBRANCH   9  11
ENDBRANCH   8   9
ENDBRANCH   7   8
ENDBRANCH   1   7
BRANCH   4  18
ATOM     18  C   LIG    1       22.742 -21.054   5.427  0.00  0.00    +0.059 C 
BRANCH  18  19
ATOM     19  C   LIG    1       24.128 -21.565   5.012  0.00  0.00    +0.146 C 
ATOM     20  C   LIG    1       25.240 -21.095   5.935  0.00  0.00    +0.234 C 
ATOM     21  O   LIG    1       25.503 -21.572   7.029  0.00  0.00    -0.274 OA
ATOM     22  N   LIG    1       25.924 -20.040   5.411  0.00  0.00    -0.246 N 
ATOM     23  H   LIG    1       26.669 -19.597   5.933  0.00  0.00    +0.158 HD
ATOM     24  C   LIG    1       25.702 -19.701   4.123  0.00  0.00    +0.279 C 
ATOM     25  O   LIG    1       26.232 -18.765   3.528  0.00  0.00    -0.263 OA
ATOM     26  S   LIG    1       24.558 -20.795   3.398  0.00  0.00    -0.054 S 
ENDBRANCH  18  19
ENDBRANCH   4  18
TORSDOF 7
ENDMDL
MODEL 6
REMARK VINA RESULT:      -1.3      3.033      6.737
REMARK  Name = *****
REMARK                            x       y       z     vdW  Elec       q    Type
REMARK                         _______ _______ _______ _____ _____    ______ ____
ROOT
ATOM      1  C   LIG    1       27.554 -19.754   5.908  0.00  0.00    +0.121 A 
ATOM      2  C   LIG    1       27.027 -20.114   4.666  0.00  0.00    +0.046 A 
ATOM      3  C   LIG    1       25.760 -20.706   4.572  0.00  0.00    +0.007 A 
ATOM      4  C   LIG    1       25.007 -20.955   5.727  0.00  0.00    -0.046 A 
ATOM      5  C   LIG    1       25.561 -20.625   6.971  0.00  0.00    +0.007 A 
ATOM      6  C   LIG    1       26.826 -20.040   7.062  0.00  0.00    +0.046 A 
ENDROOT
BRANCH   1   7
ATOM      7  O   LIG    1       28.780 -19.131   5.897  0.00  0.00    -0.490 OA
BRANCH   7   8
ATOM      8  C   LIG    1       29.026 -18.334   4.727  0.00  0.00    +0.248 C 
BRANCH   8   9
ATOM      9  C   LIG    1       28.383 -16.947   4.881  0.00  0.00    +0.147 C 
BRANCH   9  11
ATOM     10  C   LIG    1       26.513 -17.523   3.333  0.00  0.00    +0.131 C 
ATOM     11  N   LIG    1       27.552 -16.565   3.721  0.00  0.00    -0.315 N 
BRANCH  11  12
ATOM     12  C   LIG    1       27.204 -15.219   3.552  0.00  0.00    +0.121 A 
ATOM     13  N   LIG    1       26.440 -14.861   2.494  0.00  0.00    -0.240 NA
ATOM     14  C   LIG    1       26.118 -13.556   2.328  0.00  0.00    +0.113 A 
ATOM     15  C   LIG    1       26.504 -12.549   3.189  0.00  0.00    +0.020 A 
ATOM     16  C   LIG    1       27.304 -12.901   4.260  0.00  0.00    +0.005 A 
ATOM     17  C   LIG    1       27.673 -14.236   4.426  0.00  0.00    +0.043 A 
ENDBRANCH  11  12
ENDBRANCH   9  11
ENDBRANCH   8   9
ENDBRANCH   7   8
ENDBRANCH   1   7
BRANCH   4  18
ATOM     18  C   LIG    1       23.627 -21.566   5.666  0.00  0.00    +0.059 C 
BRANCH  18  19
ATOM     19  C   LIG    1       22.762 -21.066   4.503  0.00  0.00    +0.146 C 
ATOM     20  C   LIG    1       23.560 -20.341   3.432  0.00  0.00    +0.234 C 
ATOM     21  O   LIG    1       24.236 -20.876   2.566  0.00  0.00    -0.274 OA
ATOM     22  N   LIG    1       23.457 -18.987   3.551  0.00  0.00    -0.246 N 
ATOM     23  H   LIG    1       23.968 -18.375   2.928  0.00  0.00    +0.158 HD
ATOM     24  C   LIG    1       22.542 -18.481   4.404  0.00  0.00    +0.279 C 
ATOM     25  O   LIG    1       22.354 -17.286   4.625  0.00  0.00    -0.263 OA
ATOM     26  S   LIG    1       21.635 -19.765   5.151  0.00  0.00    -0.054 S 
ENDBRANCH  18  19
ENDBRANCH   4  18
TORSDOF 7
ENDMDL
MODEL 7
REMARK VINA RESULT:      -0.8      1.517      2.109
REMARK  Name = *****
REMARK                            x       y       z     vdW  Elec       q    Type
REMARK                         _______ _______ _______ _____ _____    ______ ____
ROOT
ATOM      1  C   LIG    1       22.558 -18.418   4.370  0.00  0.00    +0.121 A 
ATOM      2  C   LIG    1       23.767 -18.327   3.678  0.00  0.00    +0.046 A 
ATOM      3  C   LIG    1       24.435 -17.099   3.564  0.00  0.00    +0.007 A 
ATOM      4  C   LIG    1       23.889 -15.942   4.134  0.00  0.00    -0.046 A 
ATOM      5  C   LIG    1       22.657 -16.036   4.793  0.00  0.00    +0.007 A 
ATOM      6  C   LIG    1       21.992 -17.260   4.900  0.00  0.00    +0.046 A 
ENDROOT
BRANCH   1   7
ATOM      7  O   LIG    1       22.004 -19.672   4.476  0.00  0.00    -0.490 OA
BRANCH   7   8
ATOM      8  C   LIG    1       22.710 -20.691   3.749  0.00  0.00    +0.248 C 
BRANCH   8   9
ATOM      9  C   LIG    1       23.586 -21.518   4.703  0.00  0.00    +0.147 C 
BRANCH   9  11
ATOM     10  C   LIG    1       23.380 -20.730   7.062  0.00  0.00    +0.131 C 
ATOM     11  N   LIG    1       24.146 -20.717   5.812  0.00  0.00    -0.315 N 
BRANCH  11  12
ATOM     12  C   LIG    1       25.535 -20.664   5.973  0.00  0.00    +0.121 A 
ATOM     13  N   LIG    1       26.258 -19.807   5.215  0.00  0.00    -0.240 NA
ATOM     14  C   LIG    1       27.603 -19.770   5.366  0.00  0.00    +0.113 A 
ATOM     15  C   LIG    1       28.301 -20.544   6.271  0.00  0.00    +0.020 A 
ATOM     16  C   LIG    1       27.575 -21.439   7.035  0.00  0.00    +0.005 A 
ATOM     17  C   LIG    1       26.192 -21.513   6.866  0.00  0.00    +0.043 A 
ENDBRANCH  11  12
ENDBRANCH   9  11
ENDBRANCH   8   9
ENDBRANCH   7   8
ENDBRANCH   1   7
BRANCH   4  18
ATOM     18  C   LIG    1       24.589 -14.605   4.056  0.00  0.00    +0.059 C 
BRANCH  18  19
ATOM     19  C   LIG    1       25.739 -14.549   3.043  0.00  0.00    +0.146 C 
ATOM     20  C   LIG    1       26.934 -15.397   3.446  0.00  0.00    +0.234 C 
ATOM     21  O   LIG    1       27.018 -16.610   3.321  0.00  0.00    -0.274 OA
ATOM     22  N   LIG    1       27.928 -14.646   3.997  0.00  0.00    -0.246 N 
ATOM     23  H   LIG    1       28.771 -15.083   4.348  0.00  0.00    +0.158 HD
ATOM     24  C   LIG    1       27.841 -13.301   3.921  0.00  0.00    +0.279 C 
ATOM     25  O   LIG    1       28.651 -12.504   4.389  0.00  0.00    -0.263 OA
ATOM     26  S   LIG    1       26.412 -12.837   3.041  0.00  0.00    -0.054 S 
ENDBRANCH  18  19
ENDBRANCH   4  18
TORSDOF 7
ENDMDL
MODEL 8
REMARK VINA RESULT:      -0.8      2.120      4.054
REMARK  Name = *****
REMARK                            x       y       z     vdW  Elec       q    Type
REMARK                         _______ _______ _______ _____ _____    ______ ____
ROOT
ATOM      1  C   LIG    1       28.129 -16.852   4.730  0.00  0.00    +0.121 A 
ATOM      2  C   LIG    1       27.173 -17.045   3.730  0.00  0.00    +0.046 A 
ATOM      3  C   LIG    1       26.648 -15.954   3.023  0.00  0.00    +0.007 A 
ATOM      4  C   LIG    1       27.068 -14.651   3.318  0.00  0.00    -0.046 A 
ATOM      5  C   LIG    1       27.999 -14.464   4.348  0.00  0.00    +0.007 A 
ATOM      6  C   LIG    1       28.516 -15.553   5.055  0.00  0.00    +0.046 A 
ENDROOT
BRANCH   1   7
ATOM      7  O   LIG    1       28.624 -17.984   5.331  0.00  0.00    -0.490 OA
BRANCH   7   8
ATOM      8  C   LIG    1       28.390 -19.195   4.594  0.00  0.00    +0.248 C 
BRANCH   8   9
ATOM      9  C   LIG    1       27.286 -20.025   5.267  0.00  0.00    +0.147 C 
BRANCH   9  11
ATOM     10  C   LIG    1       25.912 -19.839   3.191  0.00  0.00    +0.131 C 
ATOM     11  N   LIG    1       25.956 -19.818   4.656  0.00  0.00    -0.315 N 
BRANCH  11  12
ATOM     12  C   LIG    1       24.830 -20.361   5.287  0.00  0.00    +0.121 A 
ATOM     13  N   LIG    1       24.984 -21.036   6.450  0.00  0.00    -0.240 NA
ATOM     14  C   LIG    1       23.894 -21.571   7.048  0.00  0.00    +0.113 A 
ATOM     15  C   LIG    1       22.609 -21.458   6.557  0.00  0.00    +0.020 A 
ATOM     16  C   LIG    1       22.443 -20.790   5.358  0.00  0.00    +0.005 A 
ATOM     17  C   LIG    1       23.561 -20.263   4.712  0.00  0.00    +0.043 A 
ENDBRANCH  11  12
ENDBRANCH   9  11
ENDBRANCH   8   9
ENDBRANCH   7   8
ENDBRANCH   1   7
BRANCH   4  18
ATOM     18  C   LIG    1       26.548 -13.451   2.562  0.00  0.00    +0.059 C 
BRANCH  18  19
ATOM     19  C   LIG    1       25.316 -12.789   3.192  0.00  0.00    +0.146 C 
ATOM     20  C   LIG    1       25.249 -12.962   4.700  0.00  0.00    +0.234 C 
ATOM     21  O   LIG    1       25.888 -12.316   5.518  0.00  0.00    -0.274 OA
ATOM     22  N   LIG    1       24.390 -13.956   5.061  0.00  0.00    -0.246 N 
ATOM     23  H   LIG    1       24.273 -14.209   6.033  0.00  0.00    +0.158 HD
ATOM     24  C   LIG    1       23.581 -14.485   4.118  0.00  0.00    +0.279 C 
ATOM     25  O   LIG    1       22.775 -15.395   4.296  0.00  0.00    -0.263 OA
ATOM     26  S   LIG    1       23.823 -13.681   2.593  0.00  0.00    -0.054 S 
ENDBRANCH  18  19
ENDBRANCH   4  18
TORSDOF 7
ENDMDL
