MODEL 1
REMARK VINA RESULT:      -8.4      0.000      0.000
REMARK  Name = *****
REMARK                            x       y       z     vdW  Elec       q    Type
REMARK                         _______ _______ _______ _____ _____    ______ ____
ROOT
ATOM      1  C   LIG    1       24.635 -22.560   5.811  0.00  0.00    +0.065 C 
ATOM      2  C   LIG    1       25.389 -21.383   5.174  0.00  0.00    +0.096 C 
ATOM      3  C   LIG    1       24.450 -20.307   4.611  0.00  0.00    +0.065 C 
ATOM      4  C   LIG    1       23.163 -20.247   5.031  0.00  0.00    +0.016 C 
ATOM      5  C   LIG    1       22.156 -19.211   4.601  0.00  0.00    +0.061 C 
ATOM      6  N   LIG    1       22.692 -21.197   5.929  0.00  0.00    -0.321 N 
ATOM      7  H   LIG    1       21.698 -21.163   6.147  0.00  0.00    +0.152 HD
ATOM      8  C   LIG    1       23.343 -22.388   6.206  0.00  0.00    +0.016 C 
ATOM      9  C   LIG    1       22.519 -23.438   6.909  0.00  0.00    +0.061 C 
ENDROOT
BRANCH   2  10
ATOM     10  C   LIG    1       26.390 -20.791   6.184  0.00  0.00    -0.029 A 
ATOM     11  C   LIG    1       27.603 -20.235   5.738  0.00  0.00    +0.088 A 
ATOM     12  C   LIG    1       28.516 -19.701   6.662  0.00  0.00    +0.273 A 
ATOM     13  C   LIG    1       28.236 -19.722   8.034  0.00  0.00    +0.084 A 
ATOM     14  C   LIG    1       27.037 -20.274   8.481  0.00  0.00    +0.007 A 
ATOM     15  C   LIG    1       26.123 -20.802   7.566  0.00  0.00    +0.005 A 
BRANCH  12  16
ATOM     16  N   LIG    1       29.775 -19.106   6.189  0.00  0.00    +0.080 N 
ATOM     17  O   LIG    1       30.837 -19.586   6.614  0.00  0.00    -0.576 OA
ATOM     18  O   LIG    1       29.704 -18.153   5.400  0.00  0.00    +0.041 OA
ENDBRANCH  12  16
ENDBRANCH   2  10
BRANCH   1  19
ATOM     19  C   LIG    1       25.330 -23.865   5.972  0.00  0.00    +0.338 C 
ATOM     20  O   LIG    1       25.974 -24.219   6.951  0.00  0.00    -0.245 OA
BRANCH  19  21
ATOM     21  O   LIG    1       25.071 -24.640   4.881  0.00  0.00    -0.462 OA
BRANCH  21  23
ATOM     22  C   LIG    1       24.332 -26.837   5.644  0.00  0.00    +0.048 C 
ATOM     23  C   LIG    1       25.426 -26.032   4.965  0.00  0.00    +0.229 C 
ENDBRANCH  21  23
ENDBRANCH  19  21
ENDBRANCH   1  19
BRANCH   3  24
ATOM     24  C   LIG    1       25.074 -19.440   3.572  0.00  0.00    +0.337 C 
ATOM     25  O   LIG    1       25.473 -19.863   2.496  0.00  0.00    -0.245 OA
BRANCH  24  26
ATOM     26  O   LIG    1       25.053 -18.137   3.937  0.00  0.00    -0.465 OA
ATOM     27  C   LIG    1       25.982 -17.264   3.290  0.00  0.00    +0.280 C 
ENDBRANCH  24  26
ENDBRANCH   3  24
TORSDOF 7
ENDMDL
MODEL 2
REMARK VINA RESULT:      -7.5      2.292      5.214
REMARK  Name = *****
REMARK                            x       y       z     vdW  Elec       q    Type
REMARK                         _______ _______ _______ _____ _____    ______ ____
ROOT
ATOM      1  C   LIG    1       26.138 -20.649   6.737  0.00  0.00    +0.065 C 
ATOM      2  C   LIG    1       24.649 -20.870   6.432  0.00  0.00    +0.096 C 
ATOM      3  C   LIG    1       24.198 -20.188   5.132  0.00  0.00    +0.065 C 
ATOM      4  C   LIG    1       25.119 -19.826   4.206  0.00  0.00    +0.016 C 
ATOM      5  C   LIG    1       24.807 -19.201   2.870  0.00  0.00    +0.061 C 
ATOM      6  N   LIG    1       26.468 -20.027   4.468  0.00  0.00    -0.321 N 
ATOM      7  H   LIG    1       27.125 -19.660   3.780  0.00  0.00    +0.152 HD
ATOM      8  C   LIG    1       26.980 -20.294   5.727  0.00  0.00    +0.016 C 
ATOM      9  C   LIG    1       28.471 -20.120   5.880  0.00  0.00    +0.061 C 
ENDROOT
BRANCH   2  10
ATOM     10  C   LIG    1       24.332 -22.377   6.422  0.00  0.00    -0.029 A 
ATOM     11  C   LIG    1       25.264 -23.294   5.902  0.00  0.00    +0.088 A 
ATOM     12  C   LIG    1       24.970 -24.668   5.889  0.00  0.00    +0.273 A 
ATOM     13  C   LIG    1       23.746 -25.139   6.383  0.00  0.00    +0.084 A 
ATOM     14  C   LIG    1       22.819 -24.234   6.895  0.00  0.00    +0.007 A 
ATOM     15  C   LIG    1       23.109 -22.868   6.916  0.00  0.00    +0.005 A 
BRANCH  12  16
ATOM     16  N   LIG    1       25.953 -25.624   5.360  0.00  0.00    +0.080 N 
ATOM     17  O   LIG    1       25.765 -26.080   4.223  0.00  0.00    -0.576 OA
ATOM     18  O   LIG    1       26.912 -25.928   6.086  0.00  0.00    +0.041 OA
ENDBRANCH  12  16
ENDBRANCH   2  10
BRANCH   1  19
ATOM     19  C   LIG    1       26.626 -20.819   8.132  0.00  0.00    +0.338 C 
ATOM     20  O   LIG    1       26.033 -20.476   9.146  0.00  0.00    -0.245 OA
BRANCH  19  21
ATOM     21  O   LIG    1       27.811 -21.492   8.104  0.00  0.00    -0.462 OA
BRANCH  21  23
ATOM     22  C   LIG    1       30.188 -21.715   8.611  0.00  0.00    +0.048 C 
ATOM     23  C   LIG    1       28.952 -20.836   8.688  0.00  0.00    +0.229 C 
ENDBRANCH  21  23
ENDBRANCH  19  21
ENDBRANCH   1  19
BRANCH   3  24
ATOM     24  C   LIG    1       22.732 -19.938   5.055  0.00  0.00    +0.337 C 
ATOM     25  O   LIG    1       21.924 -20.788   4.706  0.00  0.00    -0.245 OA
BRANCH  24  26
ATOM     26  O   LIG    1       22.415 -18.702   5.504  0.00  0.00    -0.465 OA
ATOM     27  C   LIG    1       22.079 -17.717   4.524  0.00  0.00    +0.280 C 
ENDBRANCH  24  26
ENDBRANCH   3  24
TORSDOF 7
ENDMDL
MODEL 3
REMARK VINA RESULT:      -5.6      6.616     10.616
REMARK  Name = *****
REMARK                            x       y       z     vdW  Elec       q    Type
REMARK                         _______ _______ _______ _____ _____    ______ ____
ROOT
ATOM      1  C   LIG    1       24.826 -29.488   7.535  0.00  0.00    +0.065 C 
ATOM      2  C   LIG    1       24.307 -29.768   8.953  0.00  0.00    +0.096 C 
ATOM      3  C   LIG    1       23.584 -31.118   9.068  0.00  0.00    +0.065 C 
ATOM      4  C   LIG    1       23.788 -32.075   8.130  0.00  0.00    +0.016 C 
ATOM      5  C   LIG    1       23.186 -33.457   8.154  0.00  0.00    +0.061 C 
ATOM      6  N   LIG    1       24.608 -31.803   7.043  0.00  0.00    -0.321 N 
ATOM      7  H   LIG    1       24.661 -32.520   6.321  0.00  0.00    +0.152 HD
ATOM      8  C   LIG    1       25.003 -30.527   6.672  0.00  0.00    +0.016 C 
ATOM      9  C   LIG    1       25.575 -30.395   5.283  0.00  0.00    +0.061 C 
ENDROOT
BRANCH   2  10
ATOM     10  C   LIG    1       25.459 -29.653   9.968  0.00  0.00    -0.029 A 
ATOM     11  C   LIG    1       25.266 -28.976  11.186  0.00  0.00    +0.088 A 
ATOM     12  C   LIG    1       26.320 -28.868  12.108  0.00  0.00    +0.273 A 
ATOM     13  C   LIG    1       27.575 -29.423  11.824  0.00  0.00    +0.084 A 
ATOM     14  C   LIG    1       27.772 -30.092  10.617  0.00  0.00    +0.007 A 
ATOM     15  C   LIG    1       26.725 -30.207   9.699  0.00  0.00    +0.005 A 
BRANCH  12  16
ATOM     16  N   LIG    1       26.109 -28.173  13.387  0.00  0.00    +0.080 N 
ATOM     17  O   LIG    1       26.078 -28.858  14.420  0.00  0.00    -0.576 OA
ATOM     18  O   LIG    1       25.966 -26.942  13.358  0.00  0.00    +0.041 OA
ENDBRANCH  12  16
ENDBRANCH   2  10
BRANCH   1  19
ATOM     19  C   LIG    1       25.116 -28.086   7.132  0.00  0.00    +0.338 C 
ATOM     20  O   LIG    1       26.136 -27.462   7.389  0.00  0.00    -0.245 OA
BRANCH  19  21
ATOM     21  O   LIG    1       24.089 -27.629   6.361  0.00  0.00    -0.462 OA
BRANCH  21  23
ATOM     22  C   LIG    1       23.922 -25.195   6.282  0.00  0.00    +0.048 C 
ATOM     23  C   LIG    1       24.342 -26.462   5.556  0.00  0.00    +0.229 C 
ENDBRANCH  21  23
ENDBRANCH  19  21
ENDBRANCH   1  19
BRANCH   3  24
ATOM     24  C   LIG    1       22.650 -31.210  10.226  0.00  0.00    +0.337 C 
ATOM     25  O   LIG    1       22.963 -31.702  11.302  0.00  0.00    -0.245 OA
BRANCH  24  26
ATOM     26  O   LIG    1       21.470 -30.605   9.960  0.00  0.00    -0.465 OA
ATOM     27  C   LIG    1       20.293 -31.202  10.509  0.00  0.00    +0.280 C 
ENDBRANCH  24  26
ENDBRANCH   3  24
TORSDOF 7
ENDMDL
MODEL 4
REMARK VINA RESULT:      -5.6      7.829     11.462
REMARK  Name = *****
REMARK                            x       y       z     vdW  Elec       q    Type
REMARK                         _______ _______ _______ _____ _____    ______ ____
ROOT
ATOM      1  C   LIG    1       26.202 -31.483   8.977  0.00  0.00    +0.065 C 
ATOM      2  C   LIG    1       25.039 -30.637   8.438  0.00  0.00    +0.096 C 
ATOM      3  C   LIG    1       24.961 -30.638   6.905  0.00  0.00    +0.065 C 
ATOM      4  C   LIG    1       25.584 -31.613   6.198  0.00  0.00    +0.016 C 
ATOM      5  C   LIG    1       25.540 -31.761   4.699  0.00  0.00    +0.061 C 
ATOM      6  N   LIG    1       26.334 -32.570   6.869  0.00  0.00    -0.321 N 
ATOM      7  H   LIG    1       26.853 -33.228   6.290  0.00  0.00    +0.152 HD
ATOM      8  C   LIG    1       26.751 -32.444   8.184  0.00  0.00    +0.016 C 
ATOM      9  C   LIG    1       27.843 -33.389   8.619  0.00  0.00    +0.061 C 
ENDROOT
BRANCH   2  10
ATOM     10  C   LIG    1       23.714 -31.096   9.075  0.00  0.00    -0.029 A 
ATOM     11  C   LIG    1       23.103 -30.321  10.077  0.00  0.00    +0.088 A 
ATOM     12  C   LIG    1       21.896 -30.745  10.659  0.00  0.00    +0.273 A 
ATOM     13  C   LIG    1       21.294 -31.945  10.257  0.00  0.00    +0.084 A 
ATOM     14  C   LIG    1       21.898 -32.717   9.267  0.00  0.00    +0.007 A 
ATOM     15  C   LIG    1       23.094 -32.297   8.680  0.00  0.00    +0.005 A 
BRANCH  12  16
ATOM     16  N   LIG    1       21.253 -29.924  11.695  0.00  0.00    +0.080 N 
ATOM     17  O   LIG    1       20.134 -30.274  12.100  0.00  0.00    -0.576 OA
ATOM     18  O   LIG    1       21.861 -28.921  12.099  0.00  0.00    +0.041 OA
ENDBRANCH  12  16
ENDBRANCH   2  10
BRANCH   1  19
ATOM     19  C   LIG    1       26.708 -31.228  10.352  0.00  0.00    +0.338 C 
ATOM     20  O   LIG    1       26.295 -31.751  11.378  0.00  0.00    -0.245 OA
BRANCH  19  21
ATOM     21  O   LIG    1       27.765 -30.369  10.279  0.00  0.00    -0.462 OA
BRANCH  21  23
ATOM     22  C   LIG    1       26.773 -28.192  10.760  0.00  0.00    +0.048 C 
ATOM     23  C   LIG    1       27.769 -29.255  11.190  0.00  0.00    +0.229 C 
ENDBRANCH  21  23
ENDBRANCH  19  21
ENDBRANCH   1  19
BRANCH   3  24
ATOM     24  C   LIG    1       24.218 -29.479   6.334  0.00  0.00    +0.337 C 
ATOM     25  O   LIG    1       23.223 -29.601   5.631  0.00  0.00    -0.245 OA
BRANCH  24  26
ATOM     26  O   LIG    1       24.726 -28.303   6.767  0.00  0.00    -0.465 OA
ATOM     27  C   LIG    1       24.512 -27.156   5.940  0.00  0.00    +0.280 C 
ENDBRANCH  24  26
ENDBRANCH   3  24
TORSDOF 7
ENDMDL
MODEL 5
REMARK VINA RESULT:      -5.6      1.404      1.784
REMARK  Name = *****
REMARK                            x       y       z     vdW  Elec       q    Type
REMARK                         _______ _______ _______ _____ _____    ______ ____
ROOT
ATOM      1  C   LIG    1       24.756 -22.173   5.802  0.00  0.00    +0.065 C 
ATOM      2  C   LIG    1       25.393 -21.132   4.871  0.00  0.00    +0.096 C 
ATOM      3  C   LIG    1       24.423 -20.007   4.480  0.00  0.00    +0.065 C 
ATOM      4  C   LIG    1       23.314 -19.783   5.227  0.00  0.00    +0.016 C 
ATOM      5  C   LIG    1       22.313 -18.682   4.986  0.00  0.00    +0.061 C 
ATOM      6  N   LIG    1       23.040 -20.611   6.308  0.00  0.00    -0.321 N 
ATOM      7  H   LIG    1       22.152 -20.457   6.784  0.00  0.00    +0.152 HD
ATOM      8  C   LIG    1       23.645 -21.840   6.514  0.00  0.00    +0.016 C 
ATOM      9  C   LIG    1       22.970 -22.743   7.516  0.00  0.00    +0.061 C 
ENDROOT
BRANCH   2  10
ATOM     10  C   LIG    1       26.680 -20.574   5.506  0.00  0.00    -0.029 A 
ATOM     11  C   LIG    1       27.211 -21.165   6.668  0.00  0.00    +0.088 A 
ATOM     12  C   LIG    1       28.383 -20.651   7.249  0.00  0.00    +0.273 A 
ATOM     13  C   LIG    1       29.030 -19.543   6.686  0.00  0.00    +0.084 A 
ATOM     14  C   LIG    1       28.507 -18.953   5.538  0.00  0.00    +0.007 A 
ATOM     15  C   LIG    1       27.345 -19.464   4.953  0.00  0.00    +0.005 A 
BRANCH  12  16
ATOM     16  N   LIG    1       28.942 -21.282   8.454  0.00  0.00    +0.080 N 
ATOM     17  O   LIG    1       30.104 -20.991   8.773  0.00  0.00    -0.576 OA
ATOM     18  O   LIG    1       28.222 -22.076   9.078  0.00  0.00    +0.041 OA
ENDBRANCH  12  16
ENDBRANCH   2  10
BRANCH   1  19
ATOM     19  C   LIG    1       25.363 -23.528   5.897  0.00  0.00    +0.338 C 
ATOM     20  O   LIG    1       26.090 -23.927   6.797  0.00  0.00    -0.245 OA
BRANCH  19  21
ATOM     21  O   LIG    1       24.914 -24.285   4.855  0.00  0.00    -0.462 OA
BRANCH  21  23
ATOM     22  C   LIG    1       24.213 -26.456   5.723  0.00  0.00    +0.048 C 
ATOM     23  C   LIG    1       25.223 -25.691   4.885  0.00  0.00    +0.229 C 
ENDBRANCH  21  23
ENDBRANCH  19  21
ENDBRANCH   1  19
BRANCH   3  24
ATOM     24  C   LIG    1       24.798 -19.288   3.230  0.00  0.00    +0.337 C 
ATOM     25  O   LIG    1       25.046 -19.859   2.176  0.00  0.00    -0.245 OA
BRANCH  24  26
ATOM     26  O   LIG    1       24.736 -17.947   3.393  0.00  0.00    -0.465 OA
ATOM     27  C   LIG    1       25.946 -17.210   3.202  0.00  0.00    +0.280 C 
ENDBRANCH  24  26
ENDBRANCH   3  24
TORSDOF 7
ENDMDL
