MODEL 1
REMARK VINA RESULT:      -6.8      0.000      0.000
REMARK  Name = *****
REMARK                            x       y       z     vdW  Elec       q    Type
REMARK                         _______ _______ _______ _____ _____    ______ ____
ROOT
ATOM      1  C   LIG    1       24.407 -30.693  14.028  0.00  0.00    +0.086 C 
ATOM      2  C   LIG    1       23.667 -30.667  12.633  0.00  0.00    +0.103 C 
ATOM      3  O   LIG    1       22.554 -31.480  12.896  0.00  0.00    -0.464 OA
ATOM      4  C   LIG    1       21.963 -30.863  11.831  0.00  0.00    +0.235 C 
ATOM      5  N   LIG    1       23.059 -31.529  10.662  0.00  0.00    -0.243 N 
ATOM      6  C   LIG    1       24.811 -31.733  11.030  0.00  0.00    +0.208 C 
ATOM      7  C   LIG    1       25.861 -30.297  11.779  0.00  0.00    +0.237 C 
ATOM      8  N   LIG    1       25.212 -28.870  12.499  0.00  0.00    -0.273 N 
ATOM      9  C   LIG    1       23.554 -28.284  12.744  0.00  0.00    +0.045 A 
ATOM     10  C   LIG    1       23.440 -27.004  13.269  0.00  0.00    +0.025 A 
ATOM     11  C   LIG    1       22.159 -26.457  13.481  0.00  0.00    +0.022 A 
ATOM     12  C   LIG    1       20.944 -27.132  13.186  0.00  0.00    +0.042 A 
ATOM     13  C   LIG    1       20.884 -28.419  12.647  0.00  0.00    +0.031 A 
ATOM     14 CL   LIG    1       19.458 -26.318  13.532  0.00  0.00    -0.084 Cl
ATOM     15  C   LIG    1       26.253 -27.948  12.935  0.00  0.00    +0.138 C 
ATOM     16  O   LIG    1       27.093 -30.441  11.798  0.00  0.00    -0.274 OA
ATOM     17  C   LIG    1       23.133 -30.403   9.943  0.00  0.00    +0.246 C 
ATOM     18  O   LIG    1       23.339 -30.114   8.794  0.00  0.00    -0.270 OA
ATOM     19  C   LIG    1       22.094 -29.056  12.392  0.00  0.00    +0.042 A 
ATOM     20  C   LIG    1       23.761 -29.875  11.155  0.00  0.00    +0.108 C 
ENDROOT
BRANCH   4  21
ATOM     21  C   LIG    1       20.534 -31.321  11.580  0.00  0.00    +0.019 A 
ATOM     22  C   LIG    1       19.841 -32.077  12.543  0.00  0.00    +0.009 A 
ATOM     23  C   LIG    1       18.524 -32.484  12.323  0.00  0.00    +0.001 A 
ATOM     24  C   LIG    1       17.877 -32.141  11.140  0.00  0.00    +0.000 A 
ATOM     25  C   LIG    1       18.544 -31.388  10.177  0.00  0.00    +0.001 A 
ATOM     26  C   LIG    1       19.862 -30.977  10.396  0.00  0.00    +0.009 A 
ENDBRANCH   4  21
TORSDOF 1
ENDMDL
MODEL 2
REMARK VINA RESULT:      -6.4      0.644      1.123
REMARK  Name = *****
REMARK                            x       y       z     vdW  Elec       q    Type
REMARK                         _______ _______ _______ _____ _____    ______ ____
ROOT
ATOM      1  C   LIG    1       23.665 -30.861  14.267  0.00  0.00    +0.086 C 
ATOM      2  C   LIG    1       23.033 -30.802  12.821  0.00  0.00    +0.103 C 
ATOM      3  O   LIG    1       21.808 -31.453  13.027  0.00  0.00    -0.464 OA
ATOM      4  C   LIG    1       21.379 -30.814  11.901  0.00  0.00    +0.235 C 
ATOM      5  N   LIG    1       22.456 -31.665  10.840  0.00  0.00    -0.243 N 
ATOM      6  C   LIG    1       24.137 -32.075  11.344  0.00  0.00    +0.208 C 
ATOM      7  C   LIG    1       25.311 -30.753  12.120  0.00  0.00    +0.237 C 
ATOM      8  N   LIG    1       24.805 -29.225  12.741  0.00  0.00    -0.273 N 
ATOM      9  C   LIG    1       23.226 -28.422  12.841  0.00  0.00    +0.045 A 
ATOM     10  C   LIG    1       23.243 -27.116  13.312  0.00  0.00    +0.025 A 
ATOM     11  C   LIG    1       22.033 -26.401  13.409  0.00  0.00    +0.022 A 
ATOM     12  C   LIG    1       20.764 -26.927  13.047  0.00  0.00    +0.042 A 
ATOM     13  C   LIG    1       20.573 -28.219  12.550  0.00  0.00    +0.031 A 
ATOM     14 CL   LIG    1       19.377 -25.916  13.253  0.00  0.00    -0.084 Cl
ATOM     15  C   LIG    1       25.925 -28.425  13.222  0.00  0.00    +0.138 C 
ATOM     16  O   LIG    1       26.510 -31.052  12.236  0.00  0.00    -0.274 OA
ATOM     17  C   LIG    1       22.727 -30.590  10.091  0.00  0.00    +0.246 C 
ATOM     18  O   LIG    1       23.048 -30.379   8.951  0.00  0.00    -0.270 OA
ATOM     19  C   LIG    1       21.705 -29.016  12.408  0.00  0.00    +0.042 A 
ATOM     20  C   LIG    1       23.333 -30.094  11.327  0.00  0.00    +0.108 C 
ENDROOT
BRANCH   4  21
ATOM     21  C   LIG    1       19.923 -31.096  11.559  0.00  0.00    +0.019 A 
ATOM     22  C   LIG    1       19.465 -31.007  10.232  0.00  0.00    +0.009 A 
ATOM     23  C   LIG    1       18.134 -31.282   9.913  0.00  0.00    +0.001 A 
ATOM     24  C   LIG    1       17.240 -31.652  10.913  0.00  0.00    +0.000 A 
ATOM     25  C   LIG    1       17.676 -31.752  12.232  0.00  0.00    +0.001 A 
ATOM     26  C   LIG    1       19.008 -31.480  12.554  0.00  0.00    +0.009 A 
ENDBRANCH   4  21
TORSDOF 1
ENDMDL
MODEL 3
REMARK VINA RESULT:      -5.9      2.599      4.496
REMARK  Name = *****
REMARK                            x       y       z     vdW  Elec       q    Type
REMARK                         _______ _______ _______ _____ _____    ______ ____
ROOT
ATOM      1  C   LIG    1       26.039 -30.941  13.393  0.00  0.00    +0.086 C 
ATOM      2  C   LIG    1       26.054 -30.396  11.911  0.00  0.00    +0.103 C 
ATOM      3  O   LIG    1       26.061 -31.592  11.177  0.00  0.00    -0.464 OA
ATOM      4  C   LIG    1       25.579 -30.852  10.136  0.00  0.00    +0.235 C 
ATOM      5  N   LIG    1       27.024 -29.910   9.956  0.00  0.00    -0.243 N 
ATOM      6  C   LIG    1       27.977 -29.372  11.388  0.00  0.00    +0.208 C 
ATOM      7  C   LIG    1       27.134 -28.515  12.899  0.00  0.00    +0.237 C 
ATOM      8  N   LIG    1       25.438 -28.510  13.212  0.00  0.00    -0.273 N 
ATOM      9  C   LIG    1       24.044 -29.182  12.343  0.00  0.00    +0.045 A 
ATOM     10  C   LIG    1       22.798 -28.861  12.864  0.00  0.00    +0.025 A 
ATOM     11  C   LIG    1       21.638 -29.342  12.224  0.00  0.00    +0.022 A 
ATOM     12  C   LIG    1       21.647 -30.149  11.055  0.00  0.00    +0.042 A 
ATOM     13  C   LIG    1       22.814 -30.555  10.403  0.00  0.00    +0.031 A 
ATOM     14 CL   LIG    1       20.128 -30.671  10.417  0.00  0.00    -0.084 Cl
ATOM     15  C   LIG    1       25.098 -27.744  14.405  0.00  0.00    +0.138 C 
ATOM     16  O   LIG    1       27.876 -27.982  13.739  0.00  0.00    -0.274 OA
ATOM     17  C   LIG    1       26.369 -28.769   9.709  0.00  0.00    +0.246 C 
ATOM     18  O   LIG    1       26.584 -27.754   9.102  0.00  0.00    -0.270 OA
ATOM     19  C   LIG    1       24.023 -30.132  10.947  0.00  0.00    +0.042 A 
ATOM     20  C   LIG    1       25.905 -28.940  11.087  0.00  0.00    +0.108 C 
ENDROOT
BRANCH   4  21
ATOM     21  C   LIG    1       25.291 -31.675   8.888  0.00  0.00    +0.019 A 
ATOM     22  C   LIG    1       25.159 -31.054   7.632  0.00  0.00    +0.009 A 
ATOM     23  C   LIG    1       24.912 -31.807   6.483  0.00  0.00    +0.001 A 
ATOM     24  C   LIG    1       24.795 -33.192   6.569  0.00  0.00    +0.000 A 
ATOM     25  C   LIG    1       24.929 -33.824   7.802  0.00  0.00    +0.001 A 
ATOM     26  C   LIG    1       25.179 -33.073   8.953  0.00  0.00    +0.009 A 
ENDBRANCH   4  21
TORSDOF 1
ENDMDL
MODEL 4
REMARK VINA RESULT:      -5.7      2.097      5.296
REMARK  Name = *****
REMARK                            x       y       z     vdW  Elec       q    Type
REMARK                         _______ _______ _______ _____ _____    ______ ____
ROOT
ATOM      1  C   LIG    1       19.490 -30.856  10.286  0.00  0.00    +0.086 C 
ATOM      2  C   LIG    1       20.888 -31.303  10.870  0.00  0.00    +0.103 C 
ATOM      3  O   LIG    1       21.760 -30.867   9.862  0.00  0.00    -0.464 OA
ATOM      4  C   LIG    1       22.738 -30.905  10.814  0.00  0.00    +0.235 C 
ATOM      5  N   LIG    1       22.683 -32.630  10.999  0.00  0.00    -0.243 N 
ATOM      6  C   LIG    1       21.124 -33.530  10.933  0.00  0.00    +0.208 C 
ATOM      7  C   LIG    1       19.591 -32.975  11.967  0.00  0.00    +0.237 C 
ATOM      8  N   LIG    1       19.417 -31.437  12.728  0.00  0.00    -0.273 N 
ATOM      9  C   LIG    1       20.471 -30.013  12.836  0.00  0.00    +0.045 A 
ATOM     10  C   LIG    1       20.017 -28.989  13.654  0.00  0.00    +0.025 A 
ATOM     11  C   LIG    1       20.801 -27.828  13.807  0.00  0.00    +0.022 A 
ATOM     12  C   LIG    1       22.057 -27.624  13.175  0.00  0.00    +0.042 A 
ATOM     13  C   LIG    1       22.658 -28.558  12.327  0.00  0.00    +0.031 A 
ATOM     14 CL   LIG    1       22.875 -26.127  13.457  0.00  0.00    -0.084 Cl
ATOM     15  C   LIG    1       18.170 -31.328  13.474  0.00  0.00    +0.138 C 
ATOM     16  O   LIG    1       18.635 -33.764  12.038  0.00  0.00    -0.274 OA
ATOM     17  C   LIG    1       22.839 -32.592  12.327  0.00  0.00    +0.246 C 
ATOM     18  O   LIG    1       23.297 -33.315  13.172  0.00  0.00    -0.270 OA
ATOM     19  C   LIG    1       21.971 -29.748  12.107  0.00  0.00    +0.042 A 
ATOM     20  C   LIG    1       21.535 -31.929  12.288  0.00  0.00    +0.108 C 
ENDROOT
BRANCH   4  21
ATOM     21  C   LIG    1       24.096 -30.441  10.310  0.00  0.00    +0.019 A 
ATOM     22  C   LIG    1       24.244 -29.928   9.008  0.00  0.00    +0.009 A 
ATOM     23  C   LIG    1       25.485 -29.486   8.549  0.00  0.00    +0.001 A 
ATOM     24  C   LIG    1       26.598 -29.545   9.382  0.00  0.00    +0.000 A 
ATOM     25  C   LIG    1       26.471 -30.044  10.675  0.00  0.00    +0.001 A 
ATOM     26  C   LIG    1       25.229 -30.485  11.139  0.00  0.00    +0.009 A 
ENDBRANCH   4  21
TORSDOF 1
ENDMDL
MODEL 5
REMARK VINA RESULT:      -5.6      3.032      6.435
REMARK  Name = *****
REMARK                            x       y       z     vdW  Elec       q    Type
REMARK                         _______ _______ _______ _____ _____    ______ ____
ROOT
ATOM      1  C   LIG    1       20.890 -31.047  14.742  0.00  0.00    +0.086 C 
ATOM      2  C   LIG    1       21.053 -29.547  14.274  0.00  0.00    +0.103 C 
ATOM      3  O   LIG    1       22.208 -29.164  14.971  0.00  0.00    -0.464 OA
ATOM      4  C   LIG    1       22.337 -28.176  14.038  0.00  0.00    +0.235 C 
ATOM      5  N   LIG    1       20.905 -27.331  14.535  0.00  0.00    -0.243 N 
ATOM      6  C   LIG    1       19.426 -28.219  15.054  0.00  0.00    +0.208 C 
ATOM      7  C   LIG    1       18.688 -29.658  14.000  0.00  0.00    +0.237 C 
ATOM      8  N   LIG    1       19.513 -30.471  12.722  0.00  0.00    -0.273 N 
ATOM      9  C   LIG    1       21.122 -30.270  12.000  0.00  0.00    +0.045 A 
ATOM     10  C   LIG    1       21.383 -31.056  10.885  0.00  0.00    +0.025 A 
ATOM     11  C   LIG    1       22.633 -30.947  10.242  0.00  0.00    +0.022 A 
ATOM     12  C   LIG    1       23.669 -30.068  10.655  0.00  0.00    +0.042 A 
ATOM     13  C   LIG    1       23.564 -29.207  11.750  0.00  0.00    +0.031 A 
ATOM     14 CL   LIG    1       25.149 -30.082   9.761  0.00  0.00    -0.084 Cl
ATOM     15  C   LIG    1       18.682 -31.484  12.084  0.00  0.00    +0.138 C 
ATOM     16  O   LIG    1       17.557 -30.069  14.307  0.00  0.00    -0.274 OA
ATOM     17  C   LIG    1       20.531 -27.028  13.286  0.00  0.00    +0.246 C 
ATOM     18  O   LIG    1       19.900 -26.155  12.752  0.00  0.00    -0.270 OA
ATOM     19  C   LIG    1       22.368 -29.227  12.460  0.00  0.00    +0.042 A 
ATOM     20  C   LIG    1       20.386 -28.479  13.162  0.00  0.00    +0.108 C 
ENDROOT
BRANCH   4  21
ATOM     21  C   LIG    1       23.582 -27.321  14.226  0.00  0.00    +0.019 A 
ATOM     22  C   LIG    1       24.671 -27.792  14.982  0.00  0.00    +0.009 A 
ATOM     23  C   LIG    1       25.821 -27.017  15.141  0.00  0.00    +0.001 A 
ATOM     24  C   LIG    1       25.904 -25.762  14.546  0.00  0.00    +0.000 A 
ATOM     25  C   LIG    1       24.839 -25.282  13.788  0.00  0.00    +0.001 A 
ATOM     26  C   LIG    1       23.688 -26.056  13.625  0.00  0.00    +0.009 A 
ENDBRANCH   4  21
TORSDOF 1
ENDMDL
MODEL 6
REMARK VINA RESULT:      -5.6      3.267      5.067
REMARK  Name = *****
REMARK                            x       y       z     vdW  Elec       q    Type
REMARK                         _______ _______ _______ _____ _____    ______ ____
ROOT
ATOM      1  C   LIG    1       27.286 -26.783  12.618  0.00  0.00    +0.086 C 
ATOM      2  C   LIG    1       26.269 -27.779  13.303  0.00  0.00    +0.103 C 
ATOM      3  O   LIG    1       25.075 -27.047  13.231  0.00  0.00    -0.464 OA
ATOM      4  C   LIG    1       24.436 -28.245  13.372  0.00  0.00    +0.235 C 
ATOM      5  N   LIG    1       25.000 -28.512  14.991  0.00  0.00    -0.243 N 
ATOM      6  C   LIG    1       26.667 -28.047  15.492  0.00  0.00    +0.208 C 
ATOM      7  C   LIG    1       28.213 -28.549  14.449  0.00  0.00    +0.237 C 
ATOM      8  N   LIG    1       28.164 -29.127  12.825  0.00  0.00    -0.273 N 
ATOM      9  C   LIG    1       26.834 -29.451  11.695  0.00  0.00    +0.045 A 
ATOM     10  C   LIG    1       27.198 -30.035  10.489  0.00  0.00    +0.025 A 
ATOM     11  C   LIG    1       26.200 -30.339   9.541  0.00  0.00    +0.022 A 
ATOM     12  C   LIG    1       24.815 -30.092   9.733  0.00  0.00    +0.042 A 
ATOM     13  C   LIG    1       24.283 -29.519  10.890  0.00  0.00    +0.031 A 
ATOM     14 CL   LIG    1       23.731 -30.508   8.452  0.00  0.00    -0.084 Cl
ATOM     15  C   LIG    1       29.488 -29.466  12.318  0.00  0.00    +0.138 C 
ATOM     16  O   LIG    1       29.328 -28.384  14.968  0.00  0.00    -0.274 OA
ATOM     17  C   LIG    1       25.201 -29.823  14.811  0.00  0.00    +0.246 C 
ATOM     18  O   LIG    1       25.197 -30.809  15.500  0.00  0.00    -0.270 OA
ATOM     19  C   LIG    1       25.180 -29.181  11.899  0.00  0.00    +0.042 A 
ATOM     20  C   LIG    1       26.219 -29.361  13.866  0.00  0.00    +0.108 C 
ENDROOT
BRANCH   4  21
ATOM     21  C   LIG    1       22.919 -28.135  13.321  0.00  0.00    +0.019 A 
ATOM     22  C   LIG    1       22.293 -26.883  13.173  0.00  0.00    +0.009 A 
ATOM     23  C   LIG    1       20.903 -26.780  13.109  0.00  0.00    +0.001 A 
ATOM     24  C   LIG    1       20.115 -27.925  13.188  0.00  0.00    +0.000 A 
ATOM     25  C   LIG    1       20.716 -29.173  13.328  0.00  0.00    +0.001 A 
ATOM     26  C   LIG    1       22.108 -29.279  13.390  0.00  0.00    +0.009 A 
ENDBRANCH   4  21
TORSDOF 1
ENDMDL
MODEL 7
REMARK VINA RESULT:      -5.5      2.606      6.083
REMARK  Name = *****
REMARK                            x       y       z     vdW  Elec       q    Type
REMARK                         _______ _______ _______ _____ _____    ______ ____
ROOT
ATOM      1  C   LIG    1       25.475 -28.882   9.251  0.00  0.00    +0.086 C 
ATOM      2  C   LIG    1       26.015 -29.097  10.719  0.00  0.00    +0.103 C 
ATOM      3  O   LIG    1       26.558 -27.835  11.002  0.00  0.00    -0.464 OA
ATOM      4  C   LIG    1       26.433 -28.174  12.318  0.00  0.00    +0.235 C 
ATOM      5  N   LIG    1       27.612 -29.445  12.245  0.00  0.00    -0.243 N 
ATOM      6  C   LIG    1       27.746 -30.517  10.802  0.00  0.00    +0.208 C 
ATOM      7  C   LIG    1       26.196 -31.372  10.031  0.00  0.00    +0.237 C 
ATOM      8  N   LIG    1       24.560 -30.939  10.364  0.00  0.00    -0.273 N 
ATOM      9  C   LIG    1       23.822 -29.724  11.426  0.00  0.00    +0.045 A 
ATOM     10  C   LIG    1       22.437 -29.761  11.511  0.00  0.00    +0.025 A 
ATOM     11  C   LIG    1       21.771 -28.840  12.345  0.00  0.00    +0.022 A 
ATOM     12  C   LIG    1       22.428 -27.855  13.129  0.00  0.00    +0.042 A 
ATOM     13  C   LIG    1       23.815 -27.689  13.163  0.00  0.00    +0.031 A 
ATOM     14 CL   LIG    1       21.452 -26.789  14.079  0.00  0.00    -0.084 Cl
ATOM     15  C   LIG    1       23.609 -31.794   9.665  0.00  0.00    +0.138 C 
ATOM     16  O   LIG    1       26.396 -32.258   9.185  0.00  0.00    -0.274 OA
ATOM     17  C   LIG    1       26.921 -30.267  13.043  0.00  0.00    +0.246 C 
ATOM     18  O   LIG    1       27.177 -31.156  13.811  0.00  0.00    -0.270 OA
ATOM     19  C   LIG    1       24.575 -28.550  12.378  0.00  0.00    +0.042 A 
ATOM     20  C   LIG    1       25.957 -30.247  11.942  0.00  0.00    +0.108 C 
ENDROOT
BRANCH   4  21
ATOM     21  C   LIG    1       26.862 -27.070  13.273  0.00  0.00    +0.019 A 
ATOM     22  C   LIG    1       27.173 -27.359  14.615  0.00  0.00    +0.009 A 
ATOM     23  C   LIG    1       27.583 -26.351  15.489  0.00  0.00    +0.001 A 
ATOM     24  C   LIG    1       27.694 -25.040  15.038  0.00  0.00    +0.000 A 
ATOM     25  C   LIG    1       27.397 -24.735  13.712  0.00  0.00    +0.001 A 
ATOM     26  C   LIG    1       26.989 -25.742  12.834  0.00  0.00    +0.009 A 
ENDBRANCH   4  21
TORSDOF 1
ENDMDL
MODEL 8
REMARK VINA RESULT:      -5.5      2.824      6.400
REMARK  Name = *****
REMARK                            x       y       z     vdW  Elec       q    Type
REMARK                         _______ _______ _______ _____ _____    ______ ____
ROOT
ATOM      1  C   LIG    1       22.241 -31.473  13.627  0.00  0.00    +0.086 C 
ATOM      2  C   LIG    1       22.624 -29.941  13.600  0.00  0.00    +0.103 C 
ATOM      3  O   LIG    1       23.791 -29.934  14.379  0.00  0.00    -0.464 OA
ATOM      4  C   LIG    1       24.090 -28.754  13.761  0.00  0.00    +0.235 C 
ATOM      5  N   LIG    1       22.766 -27.887  14.472  0.00  0.00    -0.243 N 
ATOM      6  C   LIG    1       21.160 -28.666  14.718  0.00  0.00    +0.208 C 
ATOM      7  C   LIG    1       20.279 -29.636  13.301  0.00  0.00    +0.237 C 
ATOM      8  N   LIG    1       21.039 -30.170  11.848  0.00  0.00    -0.273 N 
ATOM      9  C   LIG    1       22.689 -30.006  11.214  0.00  0.00    +0.045 A 
ATOM     10  C   LIG    1       22.888 -30.480   9.924  0.00  0.00    +0.025 A 
ATOM     11  C   LIG    1       24.167 -30.374   9.340  0.00  0.00    +0.022 A 
ATOM     12  C   LIG    1       25.294 -29.800   9.986  0.00  0.00    +0.042 A 
ATOM     13  C   LIG    1       25.261 -29.271  11.278  0.00  0.00    +0.031 A 
ATOM     14 CL   LIG    1       26.795 -29.774   9.127  0.00  0.00    -0.084 Cl
ATOM     15  C   LIG    1       20.107 -30.837  10.948  0.00  0.00    +0.138 C 
ATOM     16  O   LIG    1       19.092 -29.952  13.478  0.00  0.00    -0.274 OA
ATOM     17  C   LIG    1       22.488 -27.199  13.359  0.00  0.00    +0.246 C 
ATOM     18  O   LIG    1       22.004 -26.132  13.090  0.00  0.00    -0.270 OA
ATOM     19  C   LIG    1       24.044 -29.319  11.951  0.00  0.00    +0.042 A 
ATOM     20  C   LIG    1       22.154 -28.523  12.831  0.00  0.00    +0.108 C 
ENDROOT
BRANCH   4  21
ATOM     21  C   LIG    1       25.430 -28.170  14.184  0.00  0.00    +0.019 A 
ATOM     22  C   LIG    1       26.318 -28.912  14.984  0.00  0.00    +0.009 A 
ATOM     23  C   LIG    1       27.556 -28.386  15.359  0.00  0.00    +0.001 A 
ATOM     24  C   LIG    1       27.927 -27.112  14.939  0.00  0.00    +0.000 A 
ATOM     25  C   LIG    1       27.065 -26.365  14.141  0.00  0.00    +0.001 A 
ATOM     26  C   LIG    1       25.827 -26.890  13.762  0.00  0.00    +0.009 A 
ENDBRANCH   4  21
TORSDOF 1
ENDMDL
MODEL 9
REMARK VINA RESULT:      -5.5      2.853      3.783
REMARK  Name = *****
REMARK                            x       y       z     vdW  Elec       q    Type
REMARK                         _______ _______ _______ _____ _____    ______ ____
ROOT
ATOM      1  C   LIG    1       25.092 -30.122  15.500  0.00  0.00    +0.086 C 
ATOM      2  C   LIG    1       24.118 -29.759  14.310  0.00  0.00    +0.103 C 
ATOM      3  O   LIG    1       22.984 -29.318  15.007  0.00  0.00    -0.464 OA
ATOM      4  C   LIG    1       22.639 -28.668  13.857  0.00  0.00    +0.235 C 
ATOM      5  N   LIG    1       22.383 -30.123  12.948  0.00  0.00    -0.243 N 
ATOM      6  C   LIG    1       23.444 -31.564  13.166  0.00  0.00    +0.208 C 
ATOM      7  C   LIG    1       25.369 -31.415  13.138  0.00  0.00    +0.237 C 
ATOM      8  N   LIG    1       26.248 -29.939  13.278  0.00  0.00    -0.273 N 
ATOM      9  C   LIG    1       25.749 -28.244  13.447  0.00  0.00    +0.045 A 
ATOM     10  C   LIG    1       26.774 -27.308  13.411  0.00  0.00    +0.025 A 
ATOM     11  C   LIG    1       26.462 -25.938  13.523  0.00  0.00    +0.022 A 
ATOM     12  C   LIG    1       25.144 -25.429  13.669  0.00  0.00    +0.042 A 
ATOM     13  C   LIG    1       24.003 -26.234  13.716  0.00  0.00    +0.031 A 
ATOM     14 CL   LIG    1       24.947 -23.718  13.817  0.00  0.00    -0.084 Cl
ATOM     15  C   LIG    1       27.688 -30.141  13.177  0.00  0.00    +0.138 C 
ATOM     16  O   LIG    1       26.021 -32.470  13.075  0.00  0.00    -0.274 OA
ATOM     17  C   LIG    1       22.930 -29.638  11.828  0.00  0.00    +0.246 C 
ATOM     18  O   LIG    1       22.807 -29.824  10.646  0.00  0.00    -0.270 OA
ATOM     19  C   LIG    1       24.193 -27.608  13.610  0.00  0.00    +0.042 A 
ATOM     20  C   LIG    1       24.149 -29.616  12.637  0.00  0.00    +0.108 C 
ENDROOT
BRANCH   4  21
ATOM     21  C   LIG    1       21.360 -27.854  13.979  0.00  0.00    +0.019 A 
ATOM     22  C   LIG    1       20.653 -27.802  15.195  0.00  0.00    +0.009 A 
ATOM     23  C   LIG    1       19.487 -27.043  15.314  0.00  0.00    +0.001 A 
ATOM     24  C   LIG    1       19.011 -26.321  14.224  0.00  0.00    +0.000 A 
ATOM     25  C   LIG    1       19.701 -26.354  13.015  0.00  0.00    +0.001 A 
ATOM     26  C   LIG    1       20.868 -27.112  12.893  0.00  0.00    +0.009 A 
ENDBRANCH   4  21
TORSDOF 1
ENDMDL
