MODEL 1
REMARK VINA RESULT:      -5.3      0.000      0.000
REMARK  Name = *****
REMARK                            x       y       z     vdW  Elec       q    Type
REMARK                         _______ _______ _______ _____ _____    ______ ____
ROOT
ATOM      1  C   LIG    1       26.031 -16.796   3.458  0.00  0.00    -0.045 A 
ATOM      2  C   LIG    1       24.988 -15.863   3.591  0.00  0.00    +0.016 A 
ATOM      3  C   LIG    1       25.254 -14.522   3.931  0.00  0.00    +0.055 A 
ATOM      4  C   LIG    1       26.581 -14.121   4.125  0.00  0.00    +0.012 A 
ATOM      5  C   LIG    1       27.623 -15.038   3.987  0.00  0.00    +0.001 A 
ATOM      6  C   LIG    1       27.347 -16.367   3.662  0.00  0.00    +0.003 A 
ENDROOT
BRANCH   3   7
ATOM      7  C   LIG    1       24.113 -13.547   4.088  0.00  0.00    +0.417 C 
ATOM      8  F   LIG    1       23.080 -14.065   4.811  0.00  0.00    -0.166 F 
ATOM      9  F   LIG    1       23.577 -13.167   2.895  0.00  0.00    -0.166 F 
ATOM     10  F   LIG    1       24.464 -12.392   4.723  0.00  0.00    -0.166 F 
ENDBRANCH   3   7
BRANCH   1  11
ATOM     11  C   LIG    1       25.729 -18.240   3.113  0.00  0.00    +0.053 C 
BRANCH  11  12
ATOM     12  C   LIG    1       25.035 -19.052   4.240  0.00  0.00    +0.055 C 
ATOM     13  C   LIG    1       25.985 -20.115   4.806  0.00  0.00    +0.024 C 
BRANCH  12  14
ATOM     14  N   LIG    1       23.800 -19.661   3.698  0.00  0.00    -0.314 NA
ATOM     15  H   LIG    1       23.585 -19.238   2.794  0.00  0.00    +0.122 HD
BRANCH  14  17
ATOM     16  C   LIG    1       22.144 -18.070   4.564  0.00  0.00    +0.020 C 
ATOM     17  C   LIG    1       22.642 -19.509   4.580  0.00  0.00    +0.077 C 
ENDBRANCH  14  17
ENDBRANCH  12  14
ENDBRANCH  11  12
ENDBRANCH   1  11
TORSDOF 5
ENDMDL
MODEL 2
REMARK VINA RESULT:      -5.2      2.101      2.841
REMARK  Name = *****
REMARK                            x       y       z     vdW  Elec       q    Type
REMARK                         _______ _______ _______ _____ _____    ______ ____
ROOT
ATOM      1  C   LIG    1       25.648 -16.154   3.521  0.00  0.00    -0.045 A 
ATOM      2  C   LIG    1       26.798 -15.348   3.570  0.00  0.00    +0.016 A 
ATOM      3  C   LIG    1       26.718 -13.992   3.942  0.00  0.00    +0.055 A 
ATOM      4  C   LIG    1       25.471 -13.453   4.277  0.00  0.00    +0.012 A 
ATOM      5  C   LIG    1       24.325 -14.247   4.239  0.00  0.00    +0.001 A 
ATOM      6  C   LIG    1       24.414 -15.587   3.858  0.00  0.00    +0.003 A 
ENDROOT
BRANCH   3   7
ATOM      7  C   LIG    1       27.966 -13.145   3.964  0.00  0.00    +0.417 C 
ATOM      8  F   LIG    1       29.089 -13.862   3.673  0.00  0.00    -0.166 F 
ATOM      9  F   LIG    1       28.193 -12.574   5.180  0.00  0.00    -0.166 F 
ATOM     10  F   LIG    1       27.945 -12.116   3.069  0.00  0.00    -0.166 F 
ENDBRANCH   3   7
BRANCH   1  11
ATOM     11  C   LIG    1       25.747 -17.607   3.099  0.00  0.00    +0.053 C 
BRANCH  11  12
ATOM     12  C   LIG    1       25.048 -18.614   4.052  0.00  0.00    +0.055 C 
ATOM     13  C   LIG    1       25.967 -19.806   4.351  0.00  0.00    +0.024 C 
BRANCH  12  14
ATOM     14  N   LIG    1       23.777 -19.052   3.433  0.00  0.00    -0.314 NA
ATOM     15  H   LIG    1       23.651 -18.567   2.544  0.00  0.00    +0.122 HD
BRANCH  14  17
ATOM     16  C   LIG    1       22.576 -19.779   5.447  0.00  0.00    +0.020 C 
ATOM     17  C   LIG    1       22.606 -18.806   4.277  0.00  0.00    +0.077 C 
ENDBRANCH  14  17
ENDBRANCH  12  14
ENDBRANCH  11  12
ENDBRANCH   1  11
TORSDOF 5
ENDMDL
MODEL 3
REMARK VINA RESULT:      -5.0      1.757      2.541
REMARK  Name = *****
REMARK                            x       y       z     vdW  Elec       q    Type
REMARK                         _______ _______ _______ _____ _____    ______ ____
ROOT
ATOM      1  C   LIG    1       25.131 -16.977   3.542  0.00  0.00    -0.045 A 
ATOM      2  C   LIG    1       26.088 -15.968   3.339  0.00  0.00    +0.016 A 
ATOM      3  C   LIG    1       25.781 -14.617   3.594  0.00  0.00    +0.055 A 
ATOM      4  C   LIG    1       24.506 -14.287   4.067  0.00  0.00    +0.012 A 
ATOM      5  C   LIG    1       23.552 -15.283   4.278  0.00  0.00    +0.001 A 
ATOM      6  C   LIG    1       23.863 -16.618   4.011  0.00  0.00    +0.003 A 
ENDROOT
BRANCH   3   7
ATOM      7  C   LIG    1       26.822 -13.552   3.347  0.00  0.00    +0.417 C 
ATOM      8  F   LIG    1       27.912 -14.031   2.684  0.00  0.00    -0.166 F 
ATOM      9  F   LIG    1       27.298 -13.004   4.499  0.00  0.00    -0.166 F 
ATOM     10  F   LIG    1       26.366 -12.506   2.599  0.00  0.00    -0.166 F 
ENDBRANCH   3   7
BRANCH   1  11
ATOM     11  C   LIG    1       25.468 -18.425   3.243  0.00  0.00    +0.053 C 
BRANCH  11  12
ATOM     12  C   LIG    1       25.060 -19.433   4.352  0.00  0.00    +0.055 C 
ATOM     13  C   LIG    1       26.303 -20.041   5.015  0.00  0.00    +0.024 C 
BRANCH  12  14
ATOM     14  N   LIG    1       24.200 -20.477   3.752  0.00  0.00    -0.314 NA
ATOM     15  H   LIG    1       23.808 -20.129   2.876  0.00  0.00    +0.122 HD
BRANCH  14  17
ATOM     16  C   LIG    1       22.573 -19.718   5.426  0.00  0.00    +0.020 C 
ATOM     17  C   LIG    1       23.105 -20.900   4.627  0.00  0.00    +0.077 C 
ENDBRANCH  14  17
ENDBRANCH  12  14
ENDBRANCH  11  12
ENDBRANCH   1  11
TORSDOF 5
ENDMDL
MODEL 4
REMARK VINA RESULT:      -4.8      1.840      3.599
REMARK  Name = *****
REMARK                            x       y       z     vdW  Elec       q    Type
REMARK                         _______ _______ _______ _____ _____    ______ ____
ROOT
ATOM      1  C   LIG    1       23.917 -18.548   3.824  0.00  0.00    -0.045 A 
ATOM      2  C   LIG    1       24.684 -17.384   3.647  0.00  0.00    +0.016 A 
ATOM      3  C   LIG    1       24.160 -16.116   3.965  0.00  0.00    +0.055 A 
ATOM      4  C   LIG    1       22.859 -16.027   4.474  0.00  0.00    +0.012 A 
ATOM      5  C   LIG    1       22.093 -17.177   4.660  0.00  0.00    +0.001 A 
ATOM      6  C   LIG    1       22.618 -18.429   4.331  0.00  0.00    +0.003 A 
ENDROOT
BRANCH   3   7
ATOM      7  C   LIG    1       24.998 -14.881   3.745  0.00  0.00    +0.417 C 
ATOM      8  F   LIG    1       24.323 -13.904   3.076  0.00  0.00    -0.166 F 
ATOM      9  F   LIG    1       26.118 -15.129   3.010  0.00  0.00    -0.166 F 
ATOM     10  F   LIG    1       25.434 -14.302   4.901  0.00  0.00    -0.166 F 
ENDBRANCH   3   7
BRANCH   1  11
ATOM     11  C   LIG    1       24.487 -19.905   3.458  0.00  0.00    +0.053 C 
BRANCH  11  12
ATOM     12  C   LIG    1       25.186 -20.657   4.623  0.00  0.00    +0.055 C 
ATOM     13  C   LIG    1       24.355 -20.557   5.909  0.00  0.00    +0.024 C 
BRANCH  12  14
ATOM     14  N   LIG    1       26.542 -20.093   4.808  0.00  0.00    -0.314 NA
ATOM     15  H   LIG    1       27.172 -20.496   4.113  0.00  0.00    +0.122 HD
BRANCH  14  17
ATOM     16  C   LIG    1       28.582 -20.017   6.170  0.00  0.00    +0.020 C 
ATOM     17  C   LIG    1       27.093 -20.332   6.143  0.00  0.00    +0.077 C 
ENDBRANCH  14  17
ENDBRANCH  12  14
ENDBRANCH  11  12
ENDBRANCH   1  11
TORSDOF 5
ENDMDL
MODEL 5
REMARK VINA RESULT:      -4.8      3.312      5.441
REMARK  Name = *****
REMARK                            x       y       z     vdW  Elec       q    Type
REMARK                         _______ _______ _______ _____ _____    ______ ____
ROOT
ATOM      1  C   LIG    1       24.842 -16.291   3.694  0.00  0.00    -0.045 A 
ATOM      2  C   LIG    1       23.711 -17.004   4.126  0.00  0.00    +0.016 A 
ATOM      3  C   LIG    1       23.693 -18.413   4.112  0.00  0.00    +0.055 A 
ATOM      4  C   LIG    1       24.828 -19.102   3.671  0.00  0.00    +0.012 A 
ATOM      5  C   LIG    1       25.958 -18.403   3.248  0.00  0.00    +0.001 A 
ATOM      6  C   LIG    1       25.962 -17.007   3.254  0.00  0.00    +0.003 A 
ENDROOT
BRANCH   3   7
ATOM      7  C   LIG    1       22.455 -19.151   4.560  0.00  0.00    +0.417 C 
ATOM      8  F   LIG    1       22.463 -20.461   4.182  0.00  0.00    -0.166 F 
ATOM      9  F   LIG    1       21.311 -18.622   4.045  0.00  0.00    -0.166 F 
ATOM     10  F   LIG    1       22.284 -19.160   5.914  0.00  0.00    -0.166 F 
ENDBRANCH   3   7
BRANCH   1  11
ATOM     11  C   LIG    1       24.841 -14.776   3.695  0.00  0.00    +0.053 C 
BRANCH  11  12
ATOM     12  C   LIG    1       26.225 -14.119   3.441  0.00  0.00    +0.055 C 
ATOM     13  C   LIG    1       26.867 -13.678   4.762  0.00  0.00    +0.024 C 
BRANCH  12  14
ATOM     14  N   LIG    1       26.047 -12.977   2.516  0.00  0.00    -0.314 NA
ATOM     15  H   LIG    1       26.285 -12.111   3.001  0.00  0.00    +0.122 HD
BRANCH  14  17
ATOM     16  C   LIG    1       24.161 -11.448   2.159  0.00  0.00    +0.020 C 
ATOM     17  C   LIG    1       24.687 -12.866   1.986  0.00  0.00    +0.077 C 
ENDBRANCH  14  17
ENDBRANCH  12  14
ENDBRANCH  11  12
ENDBRANCH   1  11
TORSDOF 5
ENDMDL
MODEL 6
REMARK VINA RESULT:      -4.8      2.852      5.412
REMARK  Name = *****
REMARK                            x       y       z     vdW  Elec       q    Type
REMARK                         _______ _______ _______ _____ _____    ______ ____
ROOT
ATOM      1  C   LIG    1       25.484 -16.993   3.427  0.00  0.00    -0.045 A 
ATOM      2  C   LIG    1       24.145 -17.108   3.838  0.00  0.00    +0.016 A 
ATOM      3  C   LIG    1       23.569 -18.369   4.083  0.00  0.00    +0.055 A 
ATOM      4  C   LIG    1       24.352 -19.517   3.922  0.00  0.00    +0.012 A 
ATOM      5  C   LIG    1       25.684 -19.412   3.522  0.00  0.00    +0.001 A 
ATOM      6  C   LIG    1       26.243 -18.158   3.270  0.00  0.00    +0.003 A 
ENDROOT
BRANCH   3   7
ATOM      7  C   LIG    1       22.122 -18.464   4.502  0.00  0.00    +0.417 C 
ATOM      8  F   LIG    1       21.744 -17.434   5.311  0.00  0.00    -0.166 F 
ATOM      9  F   LIG    1       21.849 -19.603   5.198  0.00  0.00    -0.166 F 
ATOM     10  F   LIG    1       21.247 -18.450   3.455  0.00  0.00    -0.166 F 
ENDBRANCH   3   7
BRANCH   1  11
ATOM     11  C   LIG    1       26.086 -15.630   3.148  0.00  0.00    +0.053 C 
BRANCH  11  12
ATOM     12  C   LIG    1       25.490 -14.466   3.986  0.00  0.00    +0.055 C 
ATOM     13  C   LIG    1       24.753 -13.469   3.082  0.00  0.00    +0.024 C 
BRANCH  12  14
ATOM     14  N   LIG    1       26.583 -13.811   4.738  0.00  0.00    -0.314 NA
ATOM     15  H   LIG    1       26.463 -12.798   4.694  0.00  0.00    +0.122 HD
BRANCH  14  17
ATOM     16  C   LIG    1       28.668 -12.896   3.821  0.00  0.00    +0.020 C 
ATOM     17  C   LIG    1       27.916 -14.152   4.238  0.00  0.00    +0.077 C 
ENDBRANCH  14  17
ENDBRANCH  12  14
ENDBRANCH  11  12
ENDBRANCH   1  11
TORSDOF 5
ENDMDL
MODEL 7
REMARK VINA RESULT:      -4.7      3.983      6.222
REMARK  Name = *****
REMARK                            x       y       z     vdW  Elec       q    Type
REMARK                         _______ _______ _______ _____ _____    ______ ____
ROOT
ATOM      1  C   LIG    1       24.483 -17.005   3.740  0.00  0.00    -0.045 A 
ATOM      2  C   LIG    1       24.709 -18.391   3.677  0.00  0.00    +0.016 A 
ATOM      3  C   LIG    1       23.716 -19.307   4.075  0.00  0.00    +0.055 A 
ATOM      4  C   LIG    1       22.485 -18.819   4.529  0.00  0.00    +0.012 A 
ATOM      5  C   LIG    1       22.248 -17.446   4.588  0.00  0.00    +0.001 A 
ATOM      6  C   LIG    1       23.244 -16.546   4.202  0.00  0.00    +0.003 A 
ENDROOT
BRANCH   3   7
ATOM      7  C   LIG    1       23.995 -20.789   4.017  0.00  0.00    +0.417 C 
ATOM      8  F   LIG    1       25.246 -21.102   4.459  0.00  0.00    -0.166 F 
ATOM      9  F   LIG    1       23.910 -21.291   2.753  0.00  0.00    -0.166 F 
ATOM     10  F   LIG    1       23.140 -21.537   4.772  0.00  0.00    -0.166 F 
ENDBRANCH   3   7
BRANCH   1  11
ATOM     11  C   LIG    1       25.568 -16.031   3.328  0.00  0.00    +0.053 C 
BRANCH  11  12
ATOM     12  C   LIG    1       25.364 -14.574   3.827  0.00  0.00    +0.055 C 
ATOM     13  C   LIG    1       25.053 -13.637   2.653  0.00  0.00    +0.024 C 
BRANCH  12  14
ATOM     14  N   LIG    1       26.580 -14.147   4.555  0.00  0.00    -0.314 NA
ATOM     15  H   LIG    1       26.453 -13.191   4.891  0.00  0.00    +0.122 HD
BRANCH  14  17
ATOM     16  C   LIG    1       28.618 -12.936   3.918  0.00  0.00    +0.020 C 
ATOM     17  C   LIG    1       27.795 -14.204   3.740  0.00  0.00    +0.077 C 
ENDBRANCH  14  17
ENDBRANCH  12  14
ENDBRANCH  11  12
ENDBRANCH   1  11
TORSDOF 5
ENDMDL
MODEL 8
REMARK VINA RESULT:      -4.7      1.627      3.081
REMARK  Name = *****
REMARK                            x       y       z     vdW  Elec       q    Type
REMARK                         _______ _______ _______ _____ _____    ______ ____
ROOT
ATOM      1  C   LIG    1       23.658 -18.148   4.075  0.00  0.00    -0.045 A 
ATOM      2  C   LIG    1       23.637 -16.744   4.136  0.00  0.00    +0.016 A 
ATOM      3  C   LIG    1       24.764 -15.986   3.762  0.00  0.00    +0.055 A 
ATOM      4  C   LIG    1       25.912 -16.651   3.314  0.00  0.00    +0.012 A 
ATOM      5  C   LIG    1       25.938 -18.044   3.244  0.00  0.00    +0.001 A 
ATOM      6  C   LIG    1       24.820 -18.786   3.628  0.00  0.00    +0.003 A 
ENDROOT
BRANCH   3   7
ATOM      7  C   LIG    1       24.721 -14.481   3.857  0.00  0.00    +0.417 C 
ATOM      8  F   LIG    1       25.305 -13.873   2.786  0.00  0.00    -0.166 F 
ATOM      9  F   LIG    1       25.371 -14.005   4.956  0.00  0.00    -0.166 F 
ATOM     10  F   LIG    1       23.457 -13.973   3.926  0.00  0.00    -0.166 F 
ENDBRANCH   3   7
BRANCH   1  11
ATOM     11  C   LIG    1       22.445 -18.952   4.500  0.00  0.00    +0.053 C 
BRANCH  11  12
ATOM     12  C   LIG    1       22.757 -20.376   5.035  0.00  0.00    +0.055 C 
ATOM     13  C   LIG    1       21.564 -21.314   4.809  0.00  0.00    +0.024 C 
BRANCH  12  14
ATOM     14  N   LIG    1       23.107 -20.280   6.469  0.00  0.00    -0.314 NA
ATOM     15  H   LIG    1       23.451 -19.339   6.670  0.00  0.00    +0.122 HD
BRANCH  14  17
ATOM     16  C   LIG    1       25.510 -20.642   6.814  0.00  0.00    +0.020 C 
ATOM     17  C   LIG    1       24.118 -21.253   6.887  0.00  0.00    +0.077 C 
ENDBRANCH  14  17
ENDBRANCH  12  14
ENDBRANCH  11  12
ENDBRANCH   1  11
TORSDOF 5
ENDMDL
MODEL 9
REMARK VINA RESULT:      -4.5      3.282      5.824
REMARK  Name = *****
REMARK                            x       y       z     vdW  Elec       q    Type
REMARK                         _______ _______ _______ _____ _____    ______ ____
ROOT
ATOM      1  C   LIG    1       25.568 -17.985   3.644  0.00  0.00    -0.045 A 
ATOM      2  C   LIG    1       24.246 -18.362   3.935  0.00  0.00    +0.016 A 
ATOM      3  C   LIG    1       23.967 -19.568   4.608  0.00  0.00    +0.055 A 
ATOM      4  C   LIG    1       25.031 -20.389   4.998  0.00  0.00    +0.012 A 
ATOM      5  C   LIG    1       26.347 -20.020   4.721  0.00  0.00    +0.001 A 
ATOM      6  C   LIG    1       26.612 -18.828   4.042  0.00  0.00    +0.003 A 
ENDROOT
BRANCH   3   7
ATOM      7  C   LIG    1       22.537 -19.958   4.887  0.00  0.00    +0.417 C 
ATOM      8  F   LIG    1       21.644 -19.052   4.398  0.00  0.00    -0.166 F 
ATOM      9  F   LIG    1       22.270 -20.061   6.219  0.00  0.00    -0.166 F 
ATOM     10  F   LIG    1       22.180 -21.157   4.344  0.00  0.00    -0.166 F 
ENDBRANCH   3   7
BRANCH   1  11
ATOM     11  C   LIG    1       25.852 -16.695   2.901  0.00  0.00    +0.053 C 
BRANCH  11  12
ATOM     12  C   LIG    1       25.979 -15.436   3.801  0.00  0.00    +0.055 C 
ATOM     13  C   LIG    1       24.661 -14.652   3.825  0.00  0.00    +0.024 C 
BRANCH  12  14
ATOM     14  N   LIG    1       27.096 -14.604   3.300  0.00  0.00    -0.314 NA
ATOM     15  H   LIG    1       27.894 -15.204   3.086  0.00  0.00    +0.122 HD
BRANCH  14  17
ATOM     16  C   LIG    1       28.833 -12.944   3.801  0.00  0.00    +0.020 C 
ATOM     17  C   LIG    1       27.520 -13.571   4.247  0.00  0.00    +0.077 C 
ENDBRANCH  14  17
ENDBRANCH  12  14
ENDBRANCH  11  12
ENDBRANCH   1  11
TORSDOF 5
ENDMDL
