MODEL 1
REMARK VINA RESULT:      -4.4      0.000      0.000
REMARK  Name = *****
REMARK                            x       y       z     vdW  Elec       q    Type
REMARK                         _______ _______ _______ _____ _____    ______ ____
ROOT
ATOM      1  C   LIG    1       25.345 -18.493   3.985  0.00  0.00    +0.186 A 
ATOM      2  C   LIG    1       25.700 -19.789   4.400  0.00  0.00    +0.151 A 
ATOM      3  N   LIG    1       24.751 -20.719   4.669  0.00  0.00    -0.213 NA
ATOM      4  C   LIG    1       23.462 -20.346   4.512  0.00  0.00    +0.155 A 
ATOM      5  C   LIG    1       23.134 -19.052   4.076  0.00  0.00    +0.170 A 
ATOM      6 CL   LIG    1       21.508 -18.537   3.856  0.00  0.00    -0.058 Cl
ATOM      7  N   LIG    1       24.050 -18.099   3.811  0.00  0.00    -0.222 NA
ENDROOT
BRANCH   2   8
ATOM      8  N   LIG    1       27.002 -20.195   4.682  0.00  0.00    -0.341 N 
ATOM      9  H   LIG    1       27.560 -19.460   5.115  0.00  0.00    +0.144 HD
ATOM     10  H   LIG    1       27.423 -20.598   3.850  0.00  0.00    +0.144 HD
ENDBRANCH   2   8
BRANCH   4  11
ATOM     11  N   LIG    1       22.513 -21.340   4.761  0.00  0.00    -0.341 N 
ATOM     12  H   LIG    1       22.056 -21.130   5.645  0.00  0.00    +0.144 HD
ATOM     13  H   LIG    1       21.856 -21.445   3.995  0.00  0.00    +0.144 HD
ENDBRANCH   4  11
BRANCH   1  14
ATOM     14  C   LIG    1       26.399 -17.491   3.640  0.00  0.00    +0.362 C 
ATOM     15  O   LIG    1       27.578 -17.718   3.924  0.00  0.00    -0.246 OA
BRANCH  14  17
ATOM     16  C   LIG    1       26.572 -15.247   3.186  0.00  0.00    +0.375 C 
ATOM     17  N   LIG    1       25.950 -16.357   3.002  0.00  0.00    +0.002 NA
BRANCH  16  18
ATOM     18  N   LIG    1       26.153 -14.118   2.571  0.00  0.00    -0.291 N 
ATOM     19  H   LIG    1       26.343 -14.162   1.575  0.00  0.00    +0.255 HD
ATOM     20  H   LIG    1       26.554 -13.283   2.980  0.00  0.00    +0.255 HD
ENDBRANCH  16  18
BRANCH  16  21
ATOM     21  N   LIG    1       27.670 -14.986   3.934  0.00  0.00    -0.291 N 
ATOM     22  H   LIG    1       28.518 -14.972   3.365  0.00  0.00    +0.255 HD
ATOM     23  H   LIG    1       27.776 -15.638   4.702  0.00  0.00    +0.255 HD
ENDBRANCH  16  21
ENDBRANCH  14  17
ENDBRANCH   1  14
TORSDOF 6
ENDMDL
MODEL 2
REMARK VINA RESULT:      -4.0      2.857      4.121
REMARK  Name = *****
REMARK                            x       y       z     vdW  Elec       q    Type
REMARK                         _______ _______ _______ _____ _____    ______ ____
ROOT
ATOM      1  C   LIG    1       25.382 -15.053   3.511  0.00  0.00    +0.186 A 
ATOM      2  C   LIG    1       24.186 -14.538   4.042  0.00  0.00    +0.151 A 
ATOM      3  N   LIG    1       23.166 -15.361   4.387  0.00  0.00    -0.213 NA
ATOM      4  C   LIG    1       23.356 -16.686   4.206  0.00  0.00    +0.155 A 
ATOM      5  C   LIG    1       24.567 -17.177   3.695  0.00  0.00    +0.170 A 
ATOM      6 CL   LIG    1       24.854 -18.855   3.455  0.00  0.00    -0.058 Cl
ATOM      7  N   LIG    1       25.598 -16.389   3.330  0.00  0.00    -0.222 NA
ENDROOT
BRANCH   2   8
ATOM      8  N   LIG    1       23.894 -13.180   4.149  0.00  0.00    -0.341 N 
ATOM      9  H   LIG    1       23.220 -12.866   3.451  0.00  0.00    +0.144 HD
ATOM     10  H   LIG    1       24.757 -12.644   4.160  0.00  0.00    +0.144 HD
ENDBRANCH   2   8
BRANCH   4  11
ATOM     11  N   LIG    1       22.298 -17.506   4.608  0.00  0.00    -0.341 N 
ATOM     12  H   LIG    1       22.232 -18.283   3.956  0.00  0.00    +0.144 HD
ATOM     13  H   LIG    1       22.392 -17.810   5.572  0.00  0.00    +0.144 HD
ENDBRANCH   4  11
BRANCH   1  14
ATOM     14  C   LIG    1       26.522 -14.143   3.183  0.00  0.00    +0.362 C 
ATOM     15  O   LIG    1       26.988 -14.131   2.041  0.00  0.00    -0.246 OA
BRANCH  14  17
ATOM     16  C   LIG    1       28.204 -13.005   4.252  0.00  0.00    +0.375 C 
ATOM     17  N   LIG    1       26.968 -13.357   4.221  0.00  0.00    +0.002 NA
BRANCH  16  18
ATOM     18  N   LIG    1       28.669 -12.233   5.261  0.00  0.00    -0.291 N 
ATOM     19  H   LIG    1       29.588 -11.866   5.035  0.00  0.00    +0.255 HD
ATOM     20  H   LIG    1       28.681 -12.721   6.148  0.00  0.00    +0.255 HD
ENDBRANCH  16  18
BRANCH  16  21
ATOM     21  N   LIG    1       29.202 -13.277   3.381  0.00  0.00    -0.291 N 
ATOM     22  H   LIG    1       29.885 -12.519   3.341  0.00  0.00    +0.255 HD
ATOM     23  H   LIG    1       28.856 -13.482   2.451  0.00  0.00    +0.255 HD
ENDBRANCH  16  21
ENDBRANCH  14  17
ENDBRANCH   1  14
TORSDOF 6
ENDMDL
MODEL 3
REMARK VINA RESULT:      -3.4      2.536      5.384
REMARK  Name = *****
REMARK                            x       y       z     vdW  Elec       q    Type
REMARK                         _______ _______ _______ _____ _____    ______ ____
ROOT
ATOM      1  C   LIG    1       24.212 -16.798   3.845  0.00  0.00    +0.186 A 
ATOM      2  C   LIG    1       25.528 -17.076   3.432  0.00  0.00    +0.151 A 
ATOM      3  N   LIG    1       26.423 -16.076   3.240  0.00  0.00    -0.213 NA
ATOM      4  C   LIG    1       25.996 -14.815   3.470  0.00  0.00    +0.155 A 
ATOM      5  C   LIG    1       24.684 -14.566   3.902  0.00  0.00    +0.170 A 
ATOM      6 CL   LIG    1       24.101 -12.978   4.214  0.00  0.00    -0.058 Cl
ATOM      7  N   LIG    1       23.764 -15.533   4.093  0.00  0.00    -0.222 NA
ENDROOT
BRANCH   2   8
ATOM      8  N   LIG    1       25.991 -18.341   3.077  0.00  0.00    -0.341 N 
ATOM      9  H   LIG    1       26.670 -18.313   2.317  0.00  0.00    +0.144 HD
ATOM     10  H   LIG    1       25.202 -18.957   2.904  0.00  0.00    +0.144 HD
ENDBRANCH   2   8
BRANCH   4  11
ATOM     11  N   LIG    1       26.956 -13.814   3.297  0.00  0.00    -0.341 N 
ATOM     12  H   LIG    1       27.626 -14.132   2.602  0.00  0.00    +0.144 HD
ATOM     13  H   LIG    1       26.540 -12.919   3.060  0.00  0.00    +0.144 HD
ENDBRANCH   4  11
BRANCH   1  14
ATOM     14  C   LIG    1       23.248 -17.910   4.107  0.00  0.00    +0.362 C 
ATOM     15  O   LIG    1       22.162 -17.668   4.637  0.00  0.00    -0.246 OA
BRANCH  14  17
ATOM     16  C   LIG    1       23.415 -20.172   4.462  0.00  0.00    +0.375 C 
ATOM     17  N   LIG    1       23.666 -19.160   3.710  0.00  0.00    +0.002 NA
BRANCH  16  18
ATOM     18  N   LIG    1       23.814 -21.411   4.096  0.00  0.00    -0.291 N 
ATOM     19  H   LIG    1       24.628 -21.697   4.632  0.00  0.00    +0.255 HD
ATOM     20  H   LIG    1       23.992 -21.483   3.102  0.00  0.00    +0.255 HD
ENDBRANCH  16  18
BRANCH  16  21
ATOM     21  N   LIG    1       22.757 -20.228   5.642  0.00  0.00    -0.291 N 
ATOM     22  H   LIG    1       21.897 -19.678   5.621  0.00  0.00    +0.255 HD
ATOM     23  H   LIG    1       23.337 -19.937   6.420  0.00  0.00    +0.255 HD
ENDBRANCH  16  21
ENDBRANCH  14  17
ENDBRANCH   1  14
TORSDOF 6
ENDMDL
MODEL 4
REMARK VINA RESULT:      -3.3      2.490      5.437
REMARK  Name = *****
REMARK                            x       y       z     vdW  Elec       q    Type
REMARK                         _______ _______ _______ _____ _____    ______ ____
ROOT
ATOM      1  C   LIG    1       23.844 -17.650   4.007  0.00  0.00    +0.186 A 
ATOM      2  C   LIG    1       25.094 -18.097   3.540  0.00  0.00    +0.151 A 
ATOM      3  N   LIG    1       26.065 -17.215   3.198  0.00  0.00    -0.213 NA
ATOM      4  C   LIG    1       25.781 -15.902   3.335  0.00  0.00    +0.155 A 
ATOM      5  C   LIG    1       24.533 -15.482   3.824  0.00  0.00    +0.170 A 
ATOM      6 CL   LIG    1       24.132 -13.822   4.021  0.00  0.00    -0.058 Cl
ATOM      7  N   LIG    1       23.540 -16.329   4.163  0.00  0.00    -0.222 NA
ENDROOT
BRANCH   2   8
ATOM      8  N   LIG    1       25.404 -19.429   3.277  0.00  0.00    -0.341 N 
ATOM      9  H   LIG    1       26.127 -19.795   3.896  0.00  0.00    +0.144 HD
ATOM     10  H   LIG    1       25.611 -19.544   2.289  0.00  0.00    +0.144 HD
ENDBRANCH   2   8
BRANCH   4  11
ATOM     11  N   LIG    1       26.818 -15.024   3.009  0.00  0.00    -0.341 N 
ATOM     12  H   LIG    1       27.566 -15.562   2.581  0.00  0.00    +0.144 HD
ATOM     13  H   LIG    1       26.503 -14.257   2.425  0.00  0.00    +0.144 HD
ENDBRANCH   4  11
BRANCH   1  14
ATOM     14  C   LIG    1       22.798 -18.630   4.432  0.00  0.00    +0.362 C 
ATOM     15  O   LIG    1       21.683 -18.602   3.907  0.00  0.00    -0.246 OA
BRANCH  14  17
ATOM     16  C   LIG    1       22.617 -20.674   5.461  0.00  0.00    +0.375 C 
ATOM     17  N   LIG    1       23.185 -19.522   5.407  0.00  0.00    +0.002 NA
BRANCH  16  18
ATOM     18  N   LIG    1       22.978 -21.569   6.408  0.00  0.00    -0.291 N 
ATOM     19  H   LIG    1       23.905 -21.938   6.217  0.00  0.00    +0.255 HD
ATOM     20  H   LIG    1       22.304 -22.318   6.509  0.00  0.00    +0.255 HD
ENDBRANCH  16  18
BRANCH  16  21
ATOM     21  N   LIG    1       21.656 -21.202   4.668  0.00  0.00    -0.291 N 
ATOM     22  H   LIG    1       21.310 -20.520   3.991  0.00  0.00    +0.255 HD
ATOM     23  H   LIG    1       20.884 -21.583   5.202  0.00  0.00    +0.255 HD
ENDBRANCH  16  21
ENDBRANCH  14  17
ENDBRANCH   1  14
TORSDOF 6
ENDMDL
MODEL 5
REMARK VINA RESULT:      -3.3      2.514      3.605
REMARK  Name = *****
REMARK                            x       y       z     vdW  Elec       q    Type
REMARK                         _______ _______ _______ _____ _____    ______ ____
ROOT
ATOM      1  C   LIG    1       25.162 -20.093   4.906  0.00  0.00    +0.186 A 
ATOM      2  C   LIG    1       24.948 -18.984   4.067  0.00  0.00    +0.151 A 
ATOM      3  N   LIG    1       23.702 -18.663   3.641  0.00  0.00    -0.213 NA
ATOM      4  C   LIG    1       22.686 -19.446   4.064  0.00  0.00    +0.155 A 
ATOM      5  C   LIG    1       22.923 -20.535   4.918  0.00  0.00    +0.170 A 
ATOM      6 CL   LIG    1       21.659 -21.553   5.486  0.00  0.00    -0.058 Cl
ATOM      7  N   LIG    1       24.149 -20.890   5.353  0.00  0.00    -0.222 NA
ENDROOT
BRANCH   2   8
ATOM      8  N   LIG    1       25.965 -18.208   3.515  0.00  0.00    -0.341 N 
ATOM      9  H   LIG    1       26.728 -18.770   3.137  0.00  0.00    +0.144 HD
ATOM     10  H   LIG    1       26.261 -17.505   4.185  0.00  0.00    +0.144 HD
ENDBRANCH   2   8
BRANCH   4  11
ATOM     11  N   LIG    1       21.412 -19.063   3.635  0.00  0.00    -0.341 N 
ATOM     12  H   LIG    1       21.500 -18.194   3.117  0.00  0.00    +0.144 HD
ATOM     13  H   LIG    1       20.951 -19.793   3.102  0.00  0.00    +0.144 HD
ENDBRANCH   4  11
BRANCH   1  14
ATOM     14  C   LIG    1       26.532 -20.407   5.415  0.00  0.00    +0.362 C 
ATOM     15  O   LIG    1       26.698 -21.362   6.177  0.00  0.00    -0.246 OA
BRANCH  14  17
ATOM     16  C   LIG    1       28.477 -19.243   5.770  0.00  0.00    +0.375 C 
ATOM     17  N   LIG    1       27.534 -19.578   4.965  0.00  0.00    +0.002 NA
BRANCH  16  18
ATOM     18  N   LIG    1       29.475 -18.430   5.354  0.00  0.00    -0.291 N 
ATOM     19  H   LIG    1       29.236 -17.996   4.467  0.00  0.00    +0.255 HD
ATOM     20  H   LIG    1       30.365 -18.908   5.295  0.00  0.00    +0.255 HD
ENDBRANCH  16  18
BRANCH  16  21
ATOM     21  N   LIG    1       28.678 -19.597   7.061  0.00  0.00    -0.291 N 
ATOM     22  H   LIG    1       28.353 -18.874   7.704  0.00  0.00    +0.255 HD
ATOM     23  H   LIG    1       29.648 -19.822   7.251  0.00  0.00    +0.255 HD
ENDBRANCH  16  21
ENDBRANCH  14  17
ENDBRANCH   1  14
TORSDOF 6
ENDMDL
MODEL 6
REMARK VINA RESULT:      -3.2      2.647      5.242
REMARK  Name = *****
REMARK                            x       y       z     vdW  Elec       q    Type
REMARK                         _______ _______ _______ _____ _____    ______ ____
ROOT
ATOM      1  C   LIG    1       24.576 -17.492   3.726  0.00  0.00    +0.186 A 
ATOM      2  C   LIG    1       23.400 -16.864   4.175  0.00  0.00    +0.151 A 
ATOM      3  N   LIG    1       23.319 -15.514   4.256  0.00  0.00    -0.213 NA
ATOM      4  C   LIG    1       24.409 -14.808   3.881  0.00  0.00    +0.155 A 
ATOM      5  C   LIG    1       25.564 -15.458   3.417  0.00  0.00    +0.170 A 
ATOM      6 CL   LIG    1       26.969 -14.600   2.923  0.00  0.00    -0.058 Cl
ATOM      7  N   LIG    1       25.684 -16.798   3.333  0.00  0.00    -0.222 NA
ENDROOT
BRANCH   2   8
ATOM      8  N   LIG    1       22.289 -17.540   4.675  0.00  0.00    -0.341 N 
ATOM      9  H   LIG    1       22.427 -17.873   5.629  0.00  0.00    +0.144 HD
ATOM     10  H   LIG    1       22.007 -18.265   4.021  0.00  0.00    +0.144 HD
ENDBRANCH   2   8
BRANCH   4  11
ATOM     11  N   LIG    1       24.276 -13.419   3.942  0.00  0.00    -0.341 N 
ATOM     12  H   LIG    1       24.664 -13.101   4.826  0.00  0.00    +0.144 HD
ATOM     13  H   LIG    1       24.695 -12.957   3.141  0.00  0.00    +0.144 HD
ENDBRANCH   4  11
BRANCH   1  14
ATOM     14  C   LIG    1       24.638 -18.980   3.590  0.00  0.00    +0.362 C 
ATOM     15  O   LIG    1       23.744 -19.578   2.986  0.00  0.00    -0.246 OA
BRANCH  14  17
ATOM     16  C   LIG    1       25.575 -20.308   5.211  0.00  0.00    +0.375 C 
ATOM     17  N   LIG    1       25.736 -19.581   4.163  0.00  0.00    +0.002 NA
BRANCH  16  18
ATOM     18  N   LIG    1       26.636 -20.910   5.794  0.00  0.00    -0.291 N 
ATOM     19  H   LIG    1       26.483 -21.911   5.868  0.00  0.00    +0.255 HD
ATOM     20  H   LIG    1       26.860 -20.510   6.697  0.00  0.00    +0.255 HD
ENDBRANCH  16  18
BRANCH  16  21
ATOM     21  N   LIG    1       24.441 -20.617   5.882  0.00  0.00    -0.291 N 
ATOM     22  H   LIG    1       23.663 -20.795   5.245  0.00  0.00    +0.255 HD
ATOM     23  H   LIG    1       24.185 -19.903   6.553  0.00  0.00    +0.255 HD
ENDBRANCH  16  21
ENDBRANCH  14  17
ENDBRANCH   1  14
TORSDOF 6
ENDMDL
MODEL 7
REMARK VINA RESULT:      -3.1      2.279      5.358
REMARK  Name = *****
REMARK                            x       y       z     vdW  Elec       q    Type
REMARK                         _______ _______ _______ _____ _____    ______ ____
ROOT
ATOM      1  C   LIG    1       26.144 -16.610   3.401  0.00  0.00    +0.186 A 
ATOM      2  C   LIG    1       27.425 -16.501   3.971  0.00  0.00    +0.151 A 
ATOM      3  N   LIG    1       28.073 -15.311   4.005  0.00  0.00    -0.213 NA
ATOM      4  C   LIG    1       27.432 -14.245   3.478  0.00  0.00    +0.155 A 
ATOM      5  C   LIG    1       26.144 -14.376   2.934  0.00  0.00    +0.170 A 
ATOM      6 CL   LIG    1       25.289 -13.046   2.260  0.00  0.00    -0.058 Cl
ATOM      7  N   LIG    1       25.474 -15.545   2.874  0.00  0.00    -0.222 NA
ENDROOT
BRANCH   2   8
ATOM      8  N   LIG    1       28.176 -17.581   4.430  0.00  0.00    -0.341 N 
ATOM      9  H   LIG    1       28.572 -17.421   5.355  0.00  0.00    +0.144 HD
ATOM     10  H   LIG    1       28.861 -17.844   3.727  0.00  0.00    +0.144 HD
ENDBRANCH   2   8
BRANCH   4  11
ATOM     11  N   LIG    1       28.114 -13.029   3.565  0.00  0.00    -0.341 N 
ATOM     12  H   LIG    1       27.504 -12.297   3.212  0.00  0.00    +0.144 HD
ATOM     13  H   LIG    1       28.449 -12.842   4.504  0.00  0.00    +0.144 HD
ENDBRANCH   4  11
BRANCH   1  14
ATOM     14  C   LIG    1       25.414 -17.915   3.416  0.00  0.00    +0.362 C 
ATOM     15  O   LIG    1       26.022 -18.960   3.172  0.00  0.00    -0.246 OA
BRANCH  14  17
ATOM     16  C   LIG    1       23.459 -18.902   4.101  0.00  0.00    +0.375 C 
ATOM     17  N   LIG    1       24.074 -17.840   3.722  0.00  0.00    +0.002 NA
BRANCH  16  18
ATOM     18  N   LIG    1       22.142 -18.856   4.408  0.00  0.00    -0.291 N 
ATOM     19  H   LIG    1       21.993 -18.338   5.268  0.00  0.00    +0.255 HD
ATOM     20  H   LIG    1       21.725 -19.777   4.463  0.00  0.00    +0.255 HD
ENDBRANCH  16  18
BRANCH  16  21
ATOM     21  N   LIG    1       23.931 -20.158   4.278  0.00  0.00    -0.291 N 
ATOM     22  H   LIG    1       24.760 -20.332   3.708  0.00  0.00    +0.255 HD
ATOM     23  H   LIG    1       23.227 -20.862   4.092  0.00  0.00    +0.255 HD
ENDBRANCH  16  21
ENDBRANCH  14  17
ENDBRANCH   1  14
TORSDOF 6
ENDMDL
MODEL 8
REMARK VINA RESULT:      -3.0      1.741      2.593
REMARK  Name = *****
REMARK                            x       y       z     vdW  Elec       q    Type
REMARK                         _______ _______ _______ _____ _____    ______ ____
ROOT
ATOM      1  C   LIG    1       26.394 -16.927   3.678  0.00  0.00    +0.186 A 
ATOM      2  C   LIG    1       27.371 -17.797   4.194  0.00  0.00    +0.151 A 
ATOM      3  N   LIG    1       27.073 -19.089   4.478  0.00  0.00    -0.213 NA
ATOM      4  C   LIG    1       25.808 -19.496   4.235  0.00  0.00    +0.155 A 
ATOM      5  C   LIG    1       24.857 -18.613   3.699  0.00  0.00    +0.170 A 
ATOM      6 CL   LIG    1       23.239 -19.092   3.369  0.00  0.00    -0.058 Cl
ATOM      7  N   LIG    1       25.114 -17.321   3.415  0.00  0.00    -0.222 NA
ENDROOT
BRANCH   2   8
ATOM      8  N   LIG    1       28.656 -17.406   4.564  0.00  0.00    -0.341 N 
ATOM      9  H   LIG    1       29.004 -17.914   5.377  0.00  0.00    +0.144 HD
ATOM     10  H   LIG    1       28.691 -16.396   4.662  0.00  0.00    +0.144 HD
ENDBRANCH   2   8
BRANCH   4  11
ATOM     11  N   LIG    1       25.548 -20.842   4.505  0.00  0.00    -0.341 N 
ATOM     12  H   LIG    1       24.557 -20.939   4.713  0.00  0.00    +0.144 HD
ATOM     13  H   LIG    1       25.851 -21.450   3.751  0.00  0.00    +0.144 HD
ENDBRANCH   4  11
BRANCH   1  14
ATOM     14  C   LIG    1       26.745 -15.519   3.318  0.00  0.00    +0.362 C 
ATOM     15  O   LIG    1       26.444 -15.077   2.206  0.00  0.00    -0.246 OA
BRANCH  14  17
ATOM     16  C   LIG    1       26.793 -13.805   4.843  0.00  0.00    +0.375 C 
ATOM     17  N   LIG    1       27.393 -14.802   4.298  0.00  0.00    +0.002 NA
BRANCH  16  18
ATOM     18  N   LIG    1       27.406 -13.083   5.809  0.00  0.00    -0.291 N 
ATOM     19  H   LIG    1       28.405 -13.268   5.814  0.00  0.00    +0.255 HD
ATOM     20  H   LIG    1       27.004 -13.242   6.725  0.00  0.00    +0.255 HD
ENDBRANCH  16  18
BRANCH  16  21
ATOM     21  N   LIG    1       25.552 -13.315   4.618  0.00  0.00    -0.291 N 
ATOM     22  H   LIG    1       24.897 -13.597   5.349  0.00  0.00    +0.255 HD
ATOM     23  H   LIG    1       25.193 -13.580   3.709  0.00  0.00    +0.255 HD
ENDBRANCH  16  21
ENDBRANCH  14  17
ENDBRANCH   1  14
TORSDOF 6
ENDMDL
MODEL 9
REMARK VINA RESULT:      -3.0      2.004      2.600
REMARK  Name = *****
REMARK                            x       y       z     vdW  Elec       q    Type
REMARK                         _______ _______ _______ _____ _____    ______ ____
ROOT
ATOM      1  C   LIG    1       25.192 -16.556   3.627  0.00  0.00    +0.186 A 
ATOM      2  C   LIG    1       26.163 -17.574   3.609  0.00  0.00    +0.151 A 
ATOM      3  N   LIG    1       25.810 -18.874   3.762  0.00  0.00    -0.213 NA
ATOM      4  C   LIG    1       24.496 -19.142   3.924  0.00  0.00    +0.155 A 
ATOM      5  C   LIG    1       23.545 -18.109   3.917  0.00  0.00    +0.170 A 
ATOM      6 CL   LIG    1       21.862 -18.404   4.112  0.00  0.00    -0.058 Cl
ATOM      7  N   LIG    1       23.859 -16.805   3.778  0.00  0.00    -0.222 NA
ENDROOT
BRANCH   2   8
ATOM      8  N   LIG    1       27.536 -17.351   3.555  0.00  0.00    -0.341 N 
ATOM      9  H   LIG    1       27.885 -17.268   2.601  0.00  0.00    +0.144 HD
ATOM     10  H   LIG    1       28.019 -18.050   4.112  0.00  0.00    +0.144 HD
ENDBRANCH   2   8
BRANCH   4  11
ATOM     11  N   LIG    1       24.167 -20.494   4.041  0.00  0.00    -0.341 N 
ATOM     12  H   LIG    1       23.157 -20.569   4.129  0.00  0.00    +0.144 HD
ATOM     13  H   LIG    1       24.537 -21.047   3.275  0.00  0.00    +0.144 HD
ENDBRANCH   4  11
BRANCH   1  14
ATOM     14  C   LIG    1       25.583 -15.131   3.404  0.00  0.00    +0.362 C 
ATOM     15  O   LIG    1       26.334 -14.840   2.470  0.00  0.00    -0.246 OA
BRANCH  14  17
ATOM     16  C   LIG    1       24.368 -13.231   3.832  0.00  0.00    +0.375 C 
ATOM     17  N   LIG    1       25.044 -14.224   4.289  0.00  0.00    +0.002 NA
BRANCH  16  18
ATOM     18  N   LIG    1       23.827 -12.326   4.679  0.00  0.00    -0.291 N 
ATOM     19  H   LIG    1       23.005 -12.710   5.135  0.00  0.00    +0.255 HD
ATOM     20  H   LIG    1       23.611 -11.449   4.222  0.00  0.00    +0.255 HD
ENDBRANCH  16  18
BRANCH  16  21
ATOM     21  N   LIG    1       24.062 -12.908   2.554  0.00  0.00    -0.291 N 
ATOM     22  H   LIG    1       23.266 -13.446   2.210  0.00  0.00    +0.255 HD
ATOM     23  H   LIG    1       24.853 -13.019   1.930  0.00  0.00    +0.255 HD
ENDBRANCH  16  21
ENDBRANCH  14  17
ENDBRANCH   1  14
TORSDOF 6
ENDMDL
