MODEL 1
REMARK VINA RESULT:      -5.4      0.000      0.000
REMARK  Name = *****
REMARK                            x       y       z     vdW  Elec       q    Type
REMARK                         _______ _______ _______ _____ _____    ______ ____
ROOT
ATOM      1  C   LIG    1       25.750 -14.263   3.350  0.00  0.00    +0.059 A 
ATOM      2  C   LIG    1       24.918 -13.969   4.435  0.00  0.00    +0.015 A 
ATOM      3  C   LIG    1       24.045 -12.882   4.364  0.00  0.00    +0.001 A 
ATOM      4  C   LIG    1       23.997 -12.101   3.210  0.00  0.00    +0.000 A 
ATOM      5  C   LIG    1       24.812 -12.406   2.118  0.00  0.00    +0.001 A 
ATOM      6  C   LIG    1       25.687 -13.492   2.183  0.00  0.00    +0.015 A 
ENDROOT
BRANCH   1   8
ATOM      7  O   LIG    1       26.343 -16.559   3.166  0.00  0.00    -0.245 OA
ATOM      8  C   LIG    1       26.666 -15.422   3.458  0.00  0.00    +0.337 C 
BRANCH   8   9
ATOM      9  O   LIG    1       27.873 -15.091   3.964  0.00  0.00    -0.477 OA
ATOM     10  H   LIG    1       27.992 -14.138   4.130  0.00  0.00    +0.295 HD
ENDBRANCH   8   9
ENDBRANCH   1   8
TORSDOF 2
ENDMDL
MODEL 2
REMARK VINA RESULT:      -5.4      6.454      7.239
REMARK  Name = *****
REMARK                            x       y       z     vdW  Elec       q    Type
REMARK                         _______ _______ _______ _____ _____    ______ ____
ROOT
ATOM      1  C   LIG    1       25.505 -20.436   5.883  0.00  0.00    +0.059 A 
ATOM      2  C   LIG    1       24.949 -20.077   4.651  0.00  0.00    +0.015 A 
ATOM      3  C   LIG    1       23.562 -20.066   4.494  0.00  0.00    +0.001 A 
ATOM      4  C   LIG    1       22.736 -20.402   5.567  0.00  0.00    +0.000 A 
ATOM      5  C   LIG    1       23.290 -20.740   6.803  0.00  0.00    +0.001 A 
ATOM      6  C   LIG    1       24.676 -20.753   6.966  0.00  0.00    +0.015 A 
ENDROOT
BRANCH   1   8
ATOM      7  O   LIG    1       27.556 -20.681   7.062  0.00  0.00    -0.245 OA
ATOM      8  C   LIG    1       26.981 -20.440   6.017  0.00  0.00    +0.337 C 
BRANCH   8   9
ATOM      9  O   LIG    1       27.611 -20.095   4.874  0.00  0.00    -0.477 OA
ATOM     10  H   LIG    1       27.086 -20.237   4.065  0.00  0.00    +0.295 HD
ENDBRANCH   8   9
ENDBRANCH   1   8
TORSDOF 2
ENDMDL
MODEL 3
REMARK VINA RESULT:      -5.4      6.480      7.087
REMARK  Name = *****
REMARK                            x       y       z     vdW  Elec       q    Type
REMARK                         _______ _______ _______ _____ _____    ______ ____
ROOT
ATOM      1  C   LIG    1       25.529 -20.433   5.865  0.00  0.00    +0.059 A 
ATOM      2  C   LIG    1       24.741 -20.782   6.966  0.00  0.00    +0.015 A 
ATOM      3  C   LIG    1       23.350 -20.779   6.851  0.00  0.00    +0.001 A 
ATOM      4  C   LIG    1       22.751 -20.440   5.638  0.00  0.00    +0.000 A 
ATOM      5  C   LIG    1       23.538 -20.111   4.532  0.00  0.00    +0.001 A 
ATOM      6  C   LIG    1       24.929 -20.112   4.641  0.00  0.00    +0.015 A 
ENDROOT
BRANCH   1   8
ATOM      7  O   LIG    1       27.562 -20.735   7.061  0.00  0.00    -0.245 OA
ATOM      8  C   LIG    1       27.003 -20.443   6.020  0.00  0.00    +0.337 C 
BRANCH   8   9
ATOM      9  O   LIG    1       27.650 -20.042   4.906  0.00  0.00    -0.477 OA
ATOM     10  H   LIG    1       27.106 -19.515   4.292  0.00  0.00    +0.295 HD
ENDBRANCH   8   9
ENDBRANCH   1   8
TORSDOF 2
ENDMDL
MODEL 4
REMARK VINA RESULT:      -5.4      0.046      1.616
REMARK  Name = *****
REMARK                            x       y       z     vdW  Elec       q    Type
REMARK                         _______ _______ _______ _____ _____    ______ ____
ROOT
ATOM      1  C   LIG    1       25.733 -14.274   3.385  0.00  0.00    +0.059 A 
ATOM      2  C   LIG    1       25.679 -13.538   2.197  0.00  0.00    +0.015 A 
ATOM      3  C   LIG    1       24.807 -12.454   2.093  0.00  0.00    +0.001 A 
ATOM      4  C   LIG    1       24.000 -12.101   3.174  0.00  0.00    +0.000 A 
ATOM      5  C   LIG    1       24.068 -12.823   4.368  0.00  0.00    +0.001 A 
ATOM      6  C   LIG    1       24.939 -13.908   4.479  0.00  0.00    +0.015 A 
ENDROOT
BRANCH   1   8
ATOM      7  O   LIG    1       26.361 -16.556   3.149  0.00  0.00    -0.245 OA
ATOM      8  C   LIG    1       26.669 -15.421   3.463  0.00  0.00    +0.337 C 
BRANCH   8   9
ATOM      9  O   LIG    1       27.873 -15.081   3.969  0.00  0.00    -0.477 OA
ATOM     10  H   LIG    1       28.014 -14.121   4.064  0.00  0.00    +0.295 HD
ENDBRANCH   8   9
ENDBRANCH   1   8
TORSDOF 2
ENDMDL
MODEL 5
REMARK VINA RESULT:      -5.3      1.099      2.268
REMARK  Name = *****
REMARK                            x       y       z     vdW  Elec       q    Type
REMARK                         _______ _______ _______ _____ _____    ______ ____
ROOT
ATOM      1  C   LIG    1       26.474 -13.599   3.600  0.00  0.00    +0.059 A 
ATOM      2  C   LIG    1       26.068 -13.282   2.299  0.00  0.00    +0.015 A 
ATOM      3  C   LIG    1       24.763 -12.845   2.068  0.00  0.00    +0.001 A 
ATOM      4  C   LIG    1       23.872 -12.716   3.132  0.00  0.00    +0.000 A 
ATOM      5  C   LIG    1       24.282 -13.013   4.434  0.00  0.00    +0.001 A 
ATOM      6  C   LIG    1       25.586 -13.450   4.672  0.00  0.00    +0.015 A 
ENDROOT
BRANCH   1   8
ATOM      7  O   LIG    1       28.833 -13.326   3.735  0.00  0.00    -0.245 OA
ATOM      8  C   LIG    1       27.865 -14.062   3.812  0.00  0.00    +0.337 C 
BRANCH   8   9
ATOM      9  O   LIG    1       27.947 -15.389   4.041  0.00  0.00    -0.477 OA
ATOM     10  H   LIG    1       28.501 -15.875   3.404  0.00  0.00    +0.295 HD
ENDBRANCH   8   9
ENDBRANCH   1   8
TORSDOF 2
ENDMDL
MODEL 6
REMARK VINA RESULT:      -5.3      1.104      1.612
REMARK  Name = *****
REMARK                            x       y       z     vdW  Elec       q    Type
REMARK                         _______ _______ _______ _____ _____    ______ ____
ROOT
ATOM      1  C   LIG    1       26.488 -13.590   3.560  0.00  0.00    +0.059 A 
ATOM      2  C   LIG    1       25.609 -13.518   4.646  0.00  0.00    +0.015 A 
ATOM      3  C   LIG    1       24.296 -13.088   4.447  0.00  0.00    +0.001 A 
ATOM      4  C   LIG    1       23.861 -12.743   3.168  0.00  0.00    +0.000 A 
ATOM      5  C   LIG    1       24.732 -12.834   2.080  0.00  0.00    +0.001 A 
ATOM      6  C   LIG    1       26.046 -13.263   2.272  0.00  0.00    +0.015 A 
ENDROOT
BRANCH   1   8
ATOM      7  O   LIG    1       28.843 -13.312   3.742  0.00  0.00    -0.245 OA
ATOM      8  C   LIG    1       27.875 -14.048   3.805  0.00  0.00    +0.337 C 
BRANCH   8   9
ATOM      9  O   LIG    1       27.954 -15.373   4.048  0.00  0.00    -0.477 OA
ATOM     10  H   LIG    1       28.862 -15.730   4.046  0.00  0.00    +0.295 HD
ENDBRANCH   8   9
ENDBRANCH   1   8
TORSDOF 2
ENDMDL
MODEL 7
REMARK VINA RESULT:      -5.0      6.693      7.634
REMARK  Name = *****
REMARK                            x       y       z     vdW  Elec       q    Type
REMARK                         _______ _______ _______ _____ _____    ______ ____
ROOT
ATOM      1  C   LIG    1       23.883 -20.377   5.311  0.00  0.00    +0.059 A 
ATOM      2  C   LIG    1       24.143 -20.828   6.610  0.00  0.00    +0.015 A 
ATOM      3  C   LIG    1       25.460 -20.918   7.062  0.00  0.00    +0.001 A 
ATOM      4  C   LIG    1       26.511 -20.549   6.224  0.00  0.00    +0.000 A 
ATOM      5  C   LIG    1       26.253 -20.079   4.934  0.00  0.00    +0.001 A 
ATOM      6  C   LIG    1       24.937 -19.987   4.476  0.00  0.00    +0.015 A 
ENDROOT
BRANCH   1   8
ATOM      7  O   LIG    1       21.943 -19.256   4.514  0.00  0.00    -0.245 OA
ATOM      8  C   LIG    1       22.474 -20.295   4.861  0.00  0.00    +0.337 C 
BRANCH   8   9
ATOM      9  O   LIG    1       21.831 -21.479   4.932  0.00  0.00    -0.477 OA
ATOM     10  H   LIG    1       22.086 -22.118   4.241  0.00  0.00    +0.295 HD
ENDBRANCH   8   9
ENDBRANCH   1   8
TORSDOF 2
ENDMDL
MODEL 8
REMARK VINA RESULT:      -5.0      2.463      3.559
REMARK  Name = *****
REMARK                            x       y       z     vdW  Elec       q    Type
REMARK                         _______ _______ _______ _____ _____    ______ ____
ROOT
ATOM      1  C   LIG    1       25.433 -13.829   3.824  0.00  0.00    +0.059 A 
ATOM      2  C   LIG    1       26.207 -13.992   2.670  0.00  0.00    +0.015 A 
ATOM      3  C   LIG    1       27.589 -13.810   2.732  0.00  0.00    +0.001 A 
ATOM      4  C   LIG    1       28.195 -13.477   3.944  0.00  0.00    +0.000 A 
ATOM      5  C   LIG    1       27.426 -13.336   5.101  0.00  0.00    +0.001 A 
ATOM      6  C   LIG    1       26.043 -13.516   5.045  0.00  0.00    +0.015 A 
ENDROOT
BRANCH   1   8
ATOM      7  O   LIG    1       23.346 -14.787   4.444  0.00  0.00    -0.245 OA
ATOM      8  C   LIG    1       23.968 -14.028   3.724  0.00  0.00    +0.337 C 
BRANCH   8   9
ATOM      9  O   LIG    1       23.411 -13.322   2.717  0.00  0.00    -0.477 OA
ATOM     10  H   LIG    1       23.446 -12.355   2.835  0.00  0.00    +0.295 HD
ENDBRANCH   8   9
ENDBRANCH   1   8
TORSDOF 2
ENDMDL
MODEL 9
REMARK VINA RESULT:      -4.9      2.455      3.212
REMARK  Name = *****
REMARK                            x       y       z     vdW  Elec       q    Type
REMARK                         _______ _______ _______ _____ _____    ______ ____
ROOT
ATOM      1  C   LIG    1       25.423 -13.870   3.790  0.00  0.00    +0.059 A 
ATOM      2  C   LIG    1       25.989 -13.529   5.023  0.00  0.00    +0.015 A 
ATOM      3  C   LIG    1       27.369 -13.352   5.127  0.00  0.00    +0.001 A 
ATOM      4  C   LIG    1       28.179 -13.505   4.002  0.00  0.00    +0.000 A 
ATOM      5  C   LIG    1       27.613 -13.826   2.766  0.00  0.00    +0.001 A 
ATOM      6  C   LIG    1       26.233 -14.004   2.656  0.00  0.00    +0.015 A 
ENDROOT
BRANCH   1   8
ATOM      7  O   LIG    1       23.341 -14.828   4.424  0.00  0.00    -0.245 OA
ATOM      8  C   LIG    1       23.955 -14.053   3.714  0.00  0.00    +0.337 C 
BRANCH   8   9
ATOM      9  O   LIG    1       23.385 -13.312   2.741  0.00  0.00    -0.477 OA
ATOM     10  H   LIG    1       23.831 -12.463   2.567  0.00  0.00    +0.295 HD
ENDBRANCH   8   9
ENDBRANCH   1   8
TORSDOF 2
ENDMDL
