MODEL 1
REMARK VINA RESULT:       9.5      0.000      0.000
REMARK  Name = *****
REMARK                            x       y       z     vdW  Elec       q    Type
REMARK                         _______ _______ _______ _____ _____    ______ ____
ROOT
ATOM      1  C   LIG    1       26.625 -18.950   4.445  0.00  0.00    +0.064 A 
ATOM      2  C   LIG    1       25.328 -19.420   4.063  0.00  0.00    +0.049 A 
ATOM      3  I   LIG    1       25.133 -21.571   3.817  0.00  0.00    -0.041 I 
ATOM      4  C   LIG    1       24.285 -18.528   3.695  0.00  0.00    +0.065 A 
ATOM      5  C   LIG    1       24.614 -17.149   3.672  0.00  0.00    +0.040 A 
ATOM      6  I   LIG    1       23.032 -15.699   4.148  0.00  0.00    -0.042 I 
ATOM      7  C   LIG    1       25.960 -16.683   3.774  0.00  0.00    +0.065 A 
ATOM      8  C   LIG    1       26.955 -17.594   4.207  0.00  0.00    +0.049 A 
ATOM      9  I   LIG    1       29.005 -16.985   4.646  0.00  0.00    -0.041 I 
ENDROOT
BRANCH   1  11
ATOM     10  C   LIG    1       28.816 -20.149   4.673  0.00  0.00    +0.138 C 
ATOM     11  N   LIG    1       27.511 -19.792   5.227  0.00  0.00    -0.271 N 
ATOM     12  C   LIG    1       26.987 -20.419   6.372  0.00  0.00    +0.245 C 
ATOM     13  O   LIG    1       25.868 -20.158   6.822  0.00  0.00    -0.273 OA
BRANCH  12  14
ATOM     14  C   LIG    1       27.866 -21.485   7.055  0.00  0.00    +0.252 C 
BRANCH  14  15
ATOM     15  O   LIG    1       29.247 -21.366   6.745  0.00  0.00    -0.386 OA
ATOM     16  H   LIG    1       29.301 -21.287   5.773  0.00  0.00    +0.210 HD
ENDBRANCH  14  15
ENDBRANCH  12  14
ENDBRANCH   1  11
BRANCH   4  17
ATOM     17  C   LIG    1       22.870 -19.038   3.445  0.00  0.00    +0.246 C 
ATOM     18  N   LIG    1       22.251 -19.786   4.450  0.00  0.00    -0.309 N 
ATOM     19  H   LIG    1       22.700 -19.976   5.333  0.00  0.00    +0.149 HD
ATOM     20  O   LIG    1       22.301 -18.810   2.408  0.00  0.00    -0.270 OA
BRANCH  18  21
ATOM     21  C   LIG    1       20.871 -20.281   4.302  0.00  0.00    +0.138 C 
BRANCH  21  22
ATOM     22  C   LIG    1       19.855 -19.170   3.982  0.00  0.00    +0.157 C 
BRANCH  22  23
ATOM     23  O   LIG    1       20.471 -17.886   4.171  0.00  0.00    -0.388 OA
ATOM     24  H   LIG    1       19.748 -17.286   4.452  0.00  0.00    +0.210 HD
ENDBRANCH  22  23
BRANCH  22  25
ATOM     25  C   LIG    1       19.350 -19.264   2.533  0.00  0.00    +0.188 C 
BRANCH  25  26
ATOM     26  O   LIG    1       19.352 -17.960   1.942  0.00  0.00    -0.392 OA
ATOM     27  H   LIG    1       19.047 -18.054   1.022  0.00  0.00    +0.209 HD
ENDBRANCH  25  26
ENDBRANCH  22  25
ENDBRANCH  21  22
ENDBRANCH  18  21
ENDBRANCH   4  17
BRANCH   7  28
ATOM     28  C   LIG    1       26.219 -15.242   3.332  0.00  0.00    +0.246 C 
ATOM     29  N   LIG    1       26.067 -14.288   4.333  0.00  0.00    -0.309 N 
ATOM     30  H   LIG    1       26.099 -14.643   5.268  0.00  0.00    +0.149 HD
ATOM     31  O   LIG    1       26.591 -14.975   2.188  0.00  0.00    -0.270 OA
BRANCH  29  32
ATOM     32  C   LIG    1       26.452 -12.884   4.192  0.00  0.00    +0.138 C 
BRANCH  32  33
ATOM     33  C   LIG    1       27.824 -12.658   4.857  0.00  0.00    +0.157 C 
BRANCH  33  34
ATOM     34  O   LIG    1       27.761 -12.910   6.274  0.00  0.00    -0.388 OA
ATOM     35  H   LIG    1       26.885 -13.278   6.473  0.00  0.00    +0.210 HD
ENDBRANCH  33  34
BRANCH  33  36
ATOM     36  C   LIG    1       28.894 -13.603   4.320  0.00  0.00    +0.188 C 
BRANCH  36  37
ATOM     37  O   LIG    1       29.011 -13.410   2.908  0.00  0.00    -0.392 OA
ATOM     38  H   LIG    1       29.802 -12.844   2.794  0.00  0.00    +0.209 HD
ENDBRANCH  36  37
ENDBRANCH  33  36
ENDBRANCH  32  33
ENDBRANCH  29  32
ENDBRANCH   7  28
TORSDOF 15
ENDMDL
MODEL 2
REMARK VINA RESULT:      10.4      1.771      2.522
REMARK  Name = *****
REMARK                            x       y       z     vdW  Elec       q    Type
REMARK                         _______ _______ _______ _____ _____    ______ ____
ROOT
ATOM      1  C   LIG    1       27.093 -18.055   4.461  0.00  0.00    +0.064 A 
ATOM      2  C   LIG    1       25.905 -18.754   4.074  0.00  0.00    +0.049 A 
ATOM      3  I   LIG    1       26.045 -20.923   4.055  0.00  0.00    -0.041 I 
ATOM      4  C   LIG    1       24.765 -18.074   3.565  0.00  0.00    +0.065 A 
ATOM      5  C   LIG    1       24.888 -16.670   3.408  0.00  0.00    +0.040 A 
ATOM      6  I   LIG    1       23.084 -15.439   3.653  0.00  0.00    -0.042 I 
ATOM      7  C   LIG    1       26.142 -15.995   3.519  0.00  0.00    +0.065 A 
ATOM      8  C   LIG    1       27.232 -16.695   4.092  0.00  0.00    +0.049 A 
ATOM      9  I   LIG    1       29.140 -15.739   4.554  0.00  0.00    -0.041 I 
ENDROOT
BRANCH   1  11
ATOM     10  C   LIG    1       29.472 -18.447   5.148  0.00  0.00    +0.138 C 
ATOM     11  N   LIG    1       28.044 -18.669   5.368  0.00  0.00    -0.271 N 
ATOM     12  C   LIG    1       27.568 -19.636   6.271  0.00  0.00    +0.245 C 
ATOM     13  O   LIG    1       26.365 -19.863   6.431  0.00  0.00    -0.273 OA
BRANCH  12  14
ATOM     14  C   LIG    1       28.619 -20.441   7.061  0.00  0.00    +0.252 C 
BRANCH  14  15
ATOM     15  O   LIG    1       29.249 -21.456   6.294  0.00  0.00    -0.386 OA
ATOM     16  H   LIG    1       29.932 -21.009   5.759  0.00  0.00    +0.210 HD
ENDBRANCH  14  15
ENDBRANCH  12  14
ENDBRANCH   1  11
BRANCH   4  17
ATOM     17  C   LIG    1       23.459 -18.817   3.310  0.00  0.00    +0.246 C 
ATOM     18  N   LIG    1       22.412 -18.643   4.218  0.00  0.00    -0.309 N 
ATOM     19  H   LIG    1       22.487 -18.028   5.014  0.00  0.00    +0.149 HD
ATOM     20  O   LIG    1       23.333 -19.542   2.356  0.00  0.00    -0.270 OA
BRANCH  18  21
ATOM     21  C   LIG    1       21.105 -19.294   4.021  0.00  0.00    +0.138 C 
BRANCH  21  22
ATOM     22  C   LIG    1       20.914 -20.554   4.884  0.00  0.00    +0.157 C 
BRANCH  22  23
ATOM     23  O   LIG    1       20.257 -21.571   4.112  0.00  0.00    -0.388 OA
ATOM     24  H   LIG    1       19.947 -22.236   4.763  0.00  0.00    +0.210 HD
ENDBRANCH  22  23
BRANCH  22  25
ATOM     25  C   LIG    1       22.259 -21.107   5.384  0.00  0.00    +0.188 C 
BRANCH  25  26
ATOM     26  O   LIG    1       23.034 -21.555   4.267  0.00  0.00    -0.392 OA
ATOM     27  H   LIG    1       22.893 -22.515   4.177  0.00  0.00    +0.209 HD
ENDBRANCH  25  26
ENDBRANCH  22  25
ENDBRANCH  21  22
ENDBRANCH  18  21
ENDBRANCH   4  17
BRANCH   7  28
ATOM     28  C   LIG    1       26.212 -14.584   2.935  0.00  0.00    +0.246 C 
ATOM     29  N   LIG    1       25.605 -13.601   3.711  0.00  0.00    -0.309 N 
ATOM     30  H   LIG    1       25.455 -13.846   4.670  0.00  0.00    +0.149 HD
ATOM     31  O   LIG    1       26.816 -14.347   1.888  0.00  0.00    -0.270 OA
BRANCH  29  32
ATOM     32  C   LIG    1       25.719 -12.166   3.452  0.00  0.00    +0.138 C 
BRANCH  32  33
ATOM     33  C   LIG    1       24.394 -11.470   3.819  0.00  0.00    +0.157 C 
BRANCH  33  34
ATOM     34  O   LIG    1       23.354 -11.807   2.881  0.00  0.00    -0.388 OA
ATOM     35  H   LIG    1       23.378 -11.154   2.162  0.00  0.00    +0.210 HD
ENDBRANCH  33  34
BRANCH  33  36
ATOM     36  C   LIG    1       23.868 -11.902   5.184  0.00  0.00    +0.188 C 
BRANCH  36  37
ATOM     37  O   LIG    1       24.971 -11.999   6.091  0.00  0.00    -0.392 OA
ATOM     38  H   LIG    1       25.729 -11.610   5.610  0.00  0.00    +0.209 HD
ENDBRANCH  36  37
ENDBRANCH  33  36
ENDBRANCH  32  33
ENDBRANCH  29  32
ENDBRANCH   7  28
TORSDOF 15
ENDMDL
MODEL 3
REMARK VINA RESULT:      12.2      1.820      5.855
REMARK  Name = *****
REMARK                            x       y       z     vdW  Elec       q    Type
REMARK                         _______ _______ _______ _____ _____    ______ ____
ROOT
ATOM      1  C   LIG    1       25.702 -15.218   3.741  0.00  0.00    +0.064 A 
ATOM      2  C   LIG    1       24.495 -15.987   3.789  0.00  0.00    +0.049 A 
ATOM      3  I   LIG    1       22.655 -14.850   4.009  0.00  0.00    -0.041 I 
ATOM      4  C   LIG    1       24.512 -17.406   3.868  0.00  0.00    +0.065 A 
ATOM      5  C   LIG    1       25.788 -18.017   3.953  0.00  0.00    +0.040 A 
ATOM      6  I   LIG    1       26.041 -20.014   3.072  0.00  0.00    -0.042 I 
ATOM      7  C   LIG    1       26.981 -17.267   4.189  0.00  0.00    +0.065 A 
ATOM      8  C   LIG    1       26.930 -15.860   4.035  0.00  0.00    +0.049 A 
ATOM      9  I   LIG    1       28.708 -14.596   4.121  0.00  0.00    -0.041 I 
ENDROOT
BRANCH   1  11
ATOM     10  C   LIG    1       25.324 -13.647   1.823  0.00  0.00    +0.138 C 
ATOM     11  N   LIG    1       25.691 -13.864   3.221  0.00  0.00    -0.271 N 
ATOM     12  C   LIG    1       26.257 -12.848   4.013  0.00  0.00    +0.245 C 
ATOM     13  O   LIG    1       26.613 -13.033   5.180  0.00  0.00    -0.273 OA
BRANCH  12  14
ATOM     14  C   LIG    1       26.446 -11.466   3.356  0.00  0.00    +0.252 C 
BRANCH  14  15
ATOM     15  O   LIG    1       26.563 -11.522   1.941  0.00  0.00    -0.386 OA
ATOM     16  H   LIG    1       26.307 -12.428   1.683  0.00  0.00    +0.210 HD
ENDBRANCH  14  15
ENDBRANCH  12  14
ENDBRANCH   1  11
BRANCH   4  17
ATOM     17  C   LIG    1       23.222 -18.212   3.758  0.00  0.00    +0.246 C 
ATOM     18  N   LIG    1       22.625 -18.667   4.936  0.00  0.00    -0.309 N 
ATOM     19  H   LIG    1       23.007 -18.459   5.847  0.00  0.00    +0.149 HD
ATOM     20  O   LIG    1       22.733 -18.458   2.685  0.00  0.00    -0.270 OA
BRANCH  18  21
ATOM     21  C   LIG    1       21.358 -19.417   4.918  0.00  0.00    +0.138 C 
BRANCH  21  22
ATOM     22  C   LIG    1       21.552 -20.944   4.941  0.00  0.00    +0.157 C 
BRANCH  22  23
ATOM     23  O   LIG    1       21.030 -21.513   3.730  0.00  0.00    -0.388 OA
ATOM     24  H   LIG    1       20.874 -20.755   3.128  0.00  0.00    +0.210 HD
ENDBRANCH  22  23
BRANCH  22  25
ATOM     25  C   LIG    1       23.037 -21.325   5.063  0.00  0.00    +0.188 C 
BRANCH  25  26
ATOM     26  O   LIG    1       23.453 -21.186   6.426  0.00  0.00    -0.392 OA
ATOM     27  H   LIG    1       22.652 -21.065   6.967  0.00  0.00    +0.209 HD
ENDBRANCH  25  26
ENDBRANCH  22  25
ENDBRANCH  21  22
ENDBRANCH  18  21
ENDBRANCH   4  17
BRANCH   7  28
ATOM     28  C   LIG    1       28.202 -18.057   4.661  0.00  0.00    +0.246 C 
ATOM     29  N   LIG    1       28.050 -19.440   4.631  0.00  0.00    -0.309 N 
ATOM     30  H   LIG    1       27.309 -19.775   4.049  0.00  0.00    +0.149 HD
ATOM     31  O   LIG    1       29.250 -17.494   4.981  0.00  0.00    -0.270 OA
BRANCH  29  32
ATOM     32  C   LIG    1       29.142 -20.388   4.847  0.00  0.00    +0.138 C 
BRANCH  32  33
ATOM     33  C   LIG    1       29.378 -20.566   6.360  0.00  0.00    +0.157 C 
BRANCH  33  34
ATOM     34  O   LIG    1       29.471 -19.290   7.023  0.00  0.00    -0.388 OA
ATOM     35  H   LIG    1       29.150 -18.610   6.408  0.00  0.00    +0.210 HD
ENDBRANCH  33  34
BRANCH  33  36
ATOM     36  C   LIG    1       28.231 -21.300   7.046  0.00  0.00    +0.188 C 
BRANCH  36  37
ATOM     37  O   LIG    1       27.066 -20.470   7.008  0.00  0.00    -0.392 OA
ATOM     38  H   LIG    1       27.403 -19.556   7.111  0.00  0.00    +0.209 HD
ENDBRANCH  36  37
ENDBRANCH  33  36
ENDBRANCH  32  33
ENDBRANCH  29  32
ENDBRANCH   7  28
TORSDOF 15
ENDMDL
