MODEL 1
REMARK VINA RESULT:      -7.7      0.000      0.000
REMARK  Name = *****
REMARK                            x       y       z     vdW  Elec       q    Type
REMARK                         _______ _______ _______ _____ _____    ______ ____
ROOT
ATOM      1  C   LIG    1       23.822 -25.326   6.091  0.00  0.00    +0.007 C 
ENDROOT
BRANCH   1   2
ATOM      2  C   LIG    1       24.889 -26.438   6.093  0.00  0.00    +0.041 C 
BRANCH   2   3
ATOM      3  C   LIG    1       24.370 -27.750   5.443  0.00  0.00    +0.232 C 
BRANCH   3   4
ATOM      4  O   LIG    1       24.033 -28.641   6.534  0.00  0.00    -0.465 OA
BRANCH   4   5
ATOM      5  C   LIG    1       25.020 -29.570   6.885  0.00  0.00    +0.312 C 
ATOM      6  O   LIG    1       25.442 -30.418   6.254  0.00  0.00    -0.251 OA
BRANCH   5   7
ATOM      7  C   LIG    1       25.330 -29.313   8.377  0.00  0.00    +0.171 C 
BRANCH   7   8
ATOM      8  C   LIG    1       25.638 -30.610   9.098  0.00  0.00    +0.145 C 
BRANCH   8   9
ATOM      9  N   LIG    1       24.476 -31.319   9.942  0.00  0.00    +0.247 N 
ATOM     10  C   LIG    1       24.850 -31.417  11.482  0.00  0.00    +0.102 C 
ATOM     11  C   LIG    1       24.547 -30.109  12.186  0.00  0.00    +0.008 A 
ATOM     12  C   LIG    1       23.307 -29.527  11.964  0.00  0.00    -0.030 A 
ATOM     13  C   LIG    1       22.958 -28.331  12.556  0.00  0.00    +0.053 A 
ATOM     14  C   LIG    1       23.904 -27.564  13.223  0.00  0.00    +0.162 A 
ATOM     15  C   LIG    1       25.226 -28.059  13.313  0.00  0.00    +0.162 A 
ATOM     16  C   LIG    1       22.355 -30.192  11.042  0.00  0.00    +0.086 C 
ATOM     17  C   LIG    1       25.491 -29.385  12.918  0.00  0.00    +0.059 A 
ATOM     18  C   LIG    1       23.108 -30.568   9.750  0.00  0.00    +0.138 C 
ATOM     19  C   LIG    1       24.463 -32.708   9.252  0.00  0.00    +0.193 C 
BRANCH  14  20
ATOM     20  O   LIG    1       23.564 -26.348  13.767  0.00  0.00    -0.491 OA
ATOM     21  C   LIG    1       22.761 -26.393  14.961  0.00  0.00    +0.277 C 
ENDBRANCH  14  20
BRANCH  15  22
ATOM     22  O   LIG    1       26.230 -27.241  13.778  0.00  0.00    -0.491 OA
ATOM     23  C   LIG    1       26.742 -26.271  12.850  0.00  0.00    +0.277 C 
ENDBRANCH  15  22
BRANCH  10  24
ATOM     24  C   LIG    1       24.319 -32.706  12.242  0.00  0.00    +0.095 C 
BRANCH  24  25
ATOM     25  C   LIG    1       22.874 -33.024  12.613  0.00  0.00    -0.038 A 
ATOM     26  C   LIG    1       22.296 -32.560  13.787  0.00  0.00    +0.053 A 
ATOM     27  C   LIG    1       20.958 -32.685  14.200  0.00  0.00    +0.162 A 
ATOM     28  C   LIG    1       20.062 -33.278  13.301  0.00  0.00    +0.162 A 
ATOM     29  C   LIG    1       20.619 -33.781  12.115  0.00  0.00    +0.050 A 
ATOM     30  C   LIG    1       21.991 -33.696  11.792  0.00  0.00    +0.007 A 
BRANCH  28  31
ATOM     31  O   LIG    1       18.719 -33.396  13.568  0.00  0.00    -0.491 OA
ATOM     32  C   LIG    1       17.832 -32.329  13.156  0.00  0.00    +0.277 C 
ENDBRANCH  28  31
BRANCH  27  33
ATOM     33  O   LIG    1       20.628 -32.225  15.465  0.00  0.00    -0.491 OA
ATOM     34  C   LIG    1       19.960 -30.940  15.498  0.00  0.00    +0.277 C 
ENDBRANCH  27  33
ENDBRANCH  24  25
ENDBRANCH  10  24
ENDBRANCH   8   9
ENDBRANCH   7   8
ENDBRANCH   5   7
ENDBRANCH   4   5
ENDBRANCH   3   4
ENDBRANCH   2   3
ENDBRANCH   1   2
BRANCH   1  35
ATOM     35  C   LIG    1       24.045 -24.053   6.911  0.00  0.00    +0.041 C 
BRANCH  35  36
ATOM     36  C   LIG    1       22.907 -23.034   6.832  0.00  0.00    +0.232 C 
BRANCH  36  37
ATOM     37  O   LIG    1       23.028 -22.181   8.045  0.00  0.00    -0.465 OA
BRANCH  37  38
ATOM     38  C   LIG    1       23.768 -21.120   7.745  0.00  0.00    +0.312 C 
ATOM     39  O   LIG    1       23.117 -20.299   6.995  0.00  0.00    -0.251 OA
BRANCH  38  40
ATOM     40  C   LIG    1       25.313 -20.988   8.546  0.00  0.00    +0.171 C 
BRANCH  40  41
ATOM     41  C   LIG    1       26.642 -20.216   8.225  0.00  0.00    +0.145 C 
BRANCH  41  43
ATOM     42  C   LIG    1       28.137 -20.197   5.722  0.00  0.00    +0.102 C 
ATOM     43  N   LIG    1       27.636 -20.927   7.109  0.00  0.00    +0.247 N 
ATOM     44  C   LIG    1       28.813 -21.423   7.891  0.00  0.00    +0.193 C 
ATOM     45  C   LIG    1       26.846 -22.194   6.594  0.00  0.00    +0.138 C 
ATOM     46  C   LIG    1       25.834 -21.947   5.453  0.00  0.00    +0.086 C 
ATOM     47  C   LIG    1       25.803 -20.565   4.855  0.00  0.00    -0.030 A 
ATOM     48  C   LIG    1       24.633 -20.079   4.246  0.00  0.00    +0.053 A 
ATOM     49  C   LIG    1       24.564 -18.770   3.732  0.00  0.00    +0.162 A 
ATOM     50  C   LIG    1       25.761 -18.020   3.625  0.00  0.00    +0.162 A 
ATOM     51  C   LIG    1       26.920 -18.545   4.212  0.00  0.00    +0.059 A 
ATOM     52  C   LIG    1       26.940 -19.752   4.908  0.00  0.00    +0.008 A 
BRANCH  50  53
ATOM     53  O   LIG    1       25.778 -16.766   3.052  0.00  0.00    -0.491 OA
ATOM     54  C   LIG    1       26.721 -15.790   3.549  0.00  0.00    +0.277 C 
ENDBRANCH  50  53
BRANCH  49  55
ATOM     55  O   LIG    1       23.359 -18.225   3.338  0.00  0.00    -0.491 OA
ATOM     56  C   LIG    1       22.244 -18.395   4.237  0.00  0.00    +0.277 C 
ENDBRANCH  49  55
BRANCH  42  57
ATOM     57  C   LIG    1       29.481 -19.285   5.773  0.00  0.00    +0.095 C 
BRANCH  57  61
ATOM     58  C   LIG    1       31.141 -18.348   9.637  0.00  0.00    +0.162 A 
ATOM     59  C   LIG    1       31.614 -19.269   8.737  0.00  0.00    +0.162 A 
ATOM     60  C   LIG    1       31.318 -18.966   7.410  0.00  0.00    +0.053 A 
ATOM     61  C   LIG    1       30.018 -18.727   7.078  0.00  0.00    -0.038 A 
ATOM     62  C   LIG    1       29.373 -17.927   8.007  0.00  0.00    +0.007 A 
ATOM     63  C   LIG    1       30.010 -17.641   9.239  0.00  0.00    +0.050 A 
BRANCH  58  65
ATOM     64  C   LIG    1       31.742 -16.887  11.353  0.00  0.00    +0.277 C 
ATOM     65  O   LIG    1       31.788 -18.210  10.835  0.00  0.00    -0.491 OA
ENDBRANCH  58  65
BRANCH  59  66
ATOM     66  O   LIG    1       32.184 -20.418   9.249  0.00  0.00    -0.491 OA
ATOM     67  C   LIG    1       31.689 -21.849   9.258  0.00  0.00    +0.277 C 
ENDBRANCH  59  66
ENDBRANCH  57  61
ENDBRANCH  42  57
ENDBRANCH  41  43
ENDBRANCH  40  41
ENDBRANCH  38  40
ENDBRANCH  37  38
ENDBRANCH  36  37
ENDBRANCH  35  36
ENDBRANCH   1  35
TORSDOF 26
ENDMDL
MODEL 2
REMARK VINA RESULT:      -7.2      2.329      5.420
REMARK  Name = *****
REMARK                            x       y       z     vdW  Elec       q    Type
REMARK                         _______ _______ _______ _____ _____    ______ ____
ROOT
ATOM      1  C   LIG    1       25.011 -29.266   7.783  0.00  0.00    +0.007 C 
ENDROOT
BRANCH   1   2
ATOM      2  C   LIG    1       26.112 -28.259   8.170  0.00  0.00    +0.041 C 
BRANCH   2   3
ATOM      3  C   LIG    1       26.525 -28.386   9.662  0.00  0.00    +0.232 C 
BRANCH   3   4
ATOM      4  O   LIG    1       27.251 -29.634   9.780  0.00  0.00    -0.465 OA
BRANCH   4   5
ATOM      5  C   LIG    1       26.604 -30.648  10.496  0.00  0.00    +0.312 C 
ATOM      6  O   LIG    1       26.613 -31.767  10.293  0.00  0.00    -0.251 OA
BRANCH   5   7
ATOM      7  C   LIG    1       25.735 -29.929  11.552  0.00  0.00    +0.171 C 
BRANCH   7   8
ATOM      8  C   LIG    1       24.906 -30.924  12.340  0.00  0.00    +0.145 C 
BRANCH   8   9
ATOM      9  N   LIG    1       23.424 -30.512  12.786  0.00  0.00    +0.247 N 
ATOM     10  C   LIG    1       23.395 -29.947  14.269  0.00  0.00    +0.102 C 
ATOM     11  C   LIG    1       23.795 -28.484  14.288  0.00  0.00    +0.008 A 
ATOM     12  C   LIG    1       23.188 -27.637  13.372  0.00  0.00    -0.030 A 
ATOM     13  C   LIG    1       23.503 -26.296  13.314  0.00  0.00    +0.053 A 
ATOM     14  C   LIG    1       24.586 -25.787  14.021  0.00  0.00    +0.162 A 
ATOM     15  C   LIG    1       25.331 -26.674  14.832  0.00  0.00    +0.162 A 
ATOM     16  C   LIG    1       22.204 -28.198  12.414  0.00  0.00    +0.086 C 
ATOM     17  C   LIG    1       24.839 -27.974  15.063  0.00  0.00    +0.059 A 
ATOM     18  C   LIG    1       22.809 -29.469  11.783  0.00  0.00    +0.138 C 
ATOM     19  C   LIG    1       22.725 -31.891  12.671  0.00  0.00    +0.193 C 
BRANCH  14  20
ATOM     20  O   LIG    1       24.929 -24.460  13.921  0.00  0.00    -0.491 OA
ATOM     21  C   LIG    1       25.504 -23.865  15.099  0.00  0.00    +0.277 C 
ENDBRANCH  14  20
BRANCH  15  22
ATOM     22  O   LIG    1       26.524 -26.259  15.378  0.00  0.00    -0.491 OA
ATOM     23  C   LIG    1       27.713 -26.868  14.850  0.00  0.00    +0.277 C 
ENDBRANCH  15  22
BRANCH  10  24
ATOM     24  C   LIG    1       22.092 -30.278  15.111  0.00  0.00    +0.095 C 
BRANCH  24  25
ATOM     25  C   LIG    1       20.709 -29.654  14.950  0.00  0.00    -0.038 A 
ATOM     26  C   LIG    1       19.672 -30.318  14.311  0.00  0.00    +0.053 A 
ATOM     27  C   LIG    1       18.331 -29.912  14.187  0.00  0.00    +0.162 A 
ATOM     28  C   LIG    1       17.955 -28.734  14.845  0.00  0.00    +0.162 A 
ATOM     29  C   LIG    1       18.986 -28.024  15.479  0.00  0.00    +0.050 A 
ATOM     30  C   LIG    1       20.334 -28.445  15.500  0.00  0.00    +0.007 A 
BRANCH  28  31
ATOM     31  O   LIG    1       16.660 -28.273  14.849  0.00  0.00    -0.491 OA
ATOM     32  C   LIG    1       16.394 -26.954  15.381  0.00  0.00    +0.277 C 
ENDBRANCH  28  31
BRANCH  27  33
ATOM     33  O   LIG    1       17.487 -30.698  13.417  0.00  0.00    -0.491 OA
ATOM     34  C   LIG    1       18.116 -31.351  12.288  0.00  0.00    +0.277 C 
ENDBRANCH  27  33
ENDBRANCH  24  25
ENDBRANCH  10  24
ENDBRANCH   8   9
ENDBRANCH   7   8
ENDBRANCH   5   7
ENDBRANCH   4   5
ENDBRANCH   3   4
ENDBRANCH   2   3
ENDBRANCH   1   2
BRANCH   1  35
ATOM     35  C   LIG    1       24.187 -29.044   6.512  0.00  0.00    +0.041 C 
BRANCH  35  36
ATOM     36  C   LIG    1       25.007 -28.678   5.274  0.00  0.00    +0.232 C 
BRANCH  36  37
ATOM     37  O   LIG    1       24.530 -27.338   4.840  0.00  0.00    -0.465 OA
BRANCH  37  38
ATOM     38  C   LIG    1       25.486 -26.448   5.083  0.00  0.00    +0.312 C 
ATOM     39  O   LIG    1       26.641 -26.908   4.747  0.00  0.00    -0.251 OA
BRANCH  38  40
ATOM     40  C   LIG    1       24.970 -24.863   5.598  0.00  0.00    +0.171 C 
BRANCH  40  41
ATOM     41  C   LIG    1       25.729 -23.579   6.090  0.00  0.00    +0.145 C 
BRANCH  41  43
ATOM     42  C   LIG    1       25.377 -20.700   5.800  0.00  0.00    +0.102 C 
ATOM     43  N   LIG    1       24.822 -22.199   6.188  0.00  0.00    +0.247 N 
ATOM     44  C   LIG    1       23.565 -22.501   5.432  0.00  0.00    +0.193 C 
ATOM     45  C   LIG    1       24.431 -22.064   7.713  0.00  0.00    +0.138 C 
ATOM     46  C   LIG    1       25.474 -21.377   8.623  0.00  0.00    +0.086 C 
ATOM     47  C   LIG    1       26.682 -20.784   7.950  0.00  0.00    -0.030 A 
ATOM     48  C   LIG    1       27.891 -20.640   8.655  0.00  0.00    +0.053 A 
ATOM     49  C   LIG    1       29.049 -20.142   8.029  0.00  0.00    +0.162 A 
ATOM     50  C   LIG    1       28.929 -19.567   6.739  0.00  0.00    +0.162 A 
ATOM     51  C   LIG    1       27.702 -19.696   6.074  0.00  0.00    +0.059 A 
ATOM     52  C   LIG    1       26.613 -20.377   6.614  0.00  0.00    +0.008 A 
BRANCH  50  53
ATOM     53  O   LIG    1       30.005 -18.983   6.106  0.00  0.00    -0.491 OA
ATOM     54  C   LIG    1       29.758 -18.102   4.988  0.00  0.00    +0.277 C 
ENDBRANCH  50  53
BRANCH  49  55
ATOM     55  O   LIG    1       30.277 -20.207   8.654  0.00  0.00    -0.491 OA
ATOM     56  C   LIG    1       30.900 -21.507   8.728  0.00  0.00    +0.277 C 
ENDBRANCH  49  55
BRANCH  42  57
ATOM     57  C   LIG    1       25.259 -20.210   4.255  0.00  0.00    +0.095 C 
BRANCH  57  61
ATOM     58  C   LIG    1       24.919 -15.971   3.560  0.00  0.00    +0.162 A 
ATOM     59  C   LIG    1       26.058 -16.731   3.481  0.00  0.00    +0.162 A 
ATOM     60  C   LIG    1       25.826 -18.063   3.147  0.00  0.00    +0.053 A 
ATOM     61  C   LIG    1       24.935 -18.771   3.897  0.00  0.00    -0.038 A 
ATOM     62  C   LIG    1       23.791 -18.045   4.185  0.00  0.00    +0.007 A 
ATOM     63  C   LIG    1       23.755 -16.659   3.889  0.00  0.00    +0.050 A 
BRANCH  58  65
ATOM     64  C   LIG    1       23.807 -13.921   3.602  0.00  0.00    +0.277 C 
ATOM     65  O   LIG    1       25.012 -14.624   3.333  0.00  0.00    -0.491 OA
ENDBRANCH  58  65
BRANCH  59  66
ATOM     66  O   LIG    1       27.242 -16.136   3.869  0.00  0.00    -0.491 OA
ATOM     67  C   LIG    1       27.666 -14.682   3.873  0.00  0.00    +0.277 C 
ENDBRANCH  59  66
ENDBRANCH  57  61
ENDBRANCH  42  57
ENDBRANCH  41  43
ENDBRANCH  40  41
ENDBRANCH  38  40
ENDBRANCH  37  38
ENDBRANCH  36  37
ENDBRANCH  35  36
ENDBRANCH   1  35
TORSDOF 26
ENDMDL
MODEL 3
REMARK VINA RESULT:      -7.0      1.229      1.916
REMARK  Name = *****
REMARK                            x       y       z     vdW  Elec       q    Type
REMARK                         _______ _______ _______ _____ _____    ______ ____
ROOT
ATOM      1  C   LIG    1       24.021 -26.235   5.865  0.00  0.00    +0.007 C 
ENDROOT
BRANCH   1   2
ATOM      2  C   LIG    1       24.868 -27.447   6.302  0.00  0.00    +0.041 C 
BRANCH   2   3
ATOM      3  C   LIG    1       24.513 -28.730   5.503  0.00  0.00    +0.232 C 
BRANCH   3   4
ATOM      4  O   LIG    1       23.824 -29.609   6.426  0.00  0.00    -0.465 OA
BRANCH   4   5
ATOM      5  C   LIG    1       24.406 -30.868   6.613  0.00  0.00    +0.312 C 
ATOM      6  O   LIG    1       24.353 -31.775   5.927  0.00  0.00    -0.251 OA
BRANCH   5   7
ATOM      7  C   LIG    1       25.024 -30.841   8.029  0.00  0.00    +0.171 C 
BRANCH   7   8
ATOM      8  C   LIG    1       24.584 -32.046   8.835  0.00  0.00    +0.145 C 
BRANCH   8   9
ATOM      9  N   LIG    1       23.319 -31.904   9.808  0.00  0.00    +0.247 N 
ATOM     10  C   LIG    1       23.666 -32.358  11.289  0.00  0.00    +0.102 C 
ATOM     11  C   LIG    1       24.355 -31.235  12.040  0.00  0.00    +0.008 A 
ATOM     12  C   LIG    1       23.785 -29.972  11.979  0.00  0.00    -0.030 A 
ATOM     13  C   LIG    1       24.354 -28.894  12.623  0.00  0.00    +0.053 A 
ATOM     14  C   LIG    1       25.624 -28.986  13.179  0.00  0.00    +0.162 A 
ATOM     15  C   LIG    1       26.301 -30.225  13.100  0.00  0.00    +0.162 A 
ATOM     16  C   LIG    1       22.556 -29.775  11.173  0.00  0.00    +0.086 C 
ATOM     17  C   LIG    1       25.600 -31.365  12.659  0.00  0.00    +0.059 A 
ATOM     18  C   LIG    1       22.766 -30.433   9.793  0.00  0.00    +0.138 C 
ATOM     19  C   LIG    1       22.342 -32.884   9.108  0.00  0.00    +0.193 C 
BRANCH  14  20
ATOM     20  O   LIG    1       26.210 -27.895  13.775  0.00  0.00    -0.491 OA
ATOM     21  C   LIG    1       26.799 -26.929  12.885  0.00  0.00    +0.277 C 
ENDBRANCH  14  20
BRANCH  15  22
ATOM     22  O   LIG    1       27.630 -30.299  13.448  0.00  0.00    -0.491 OA
ATOM     23  C   LIG    1       27.915 -30.723  14.790  0.00  0.00    +0.277 C 
ENDBRANCH  15  22
BRANCH  10  24
ATOM     24  C   LIG    1       22.489 -33.056  12.092  0.00  0.00    +0.095 C 
BRANCH  24  25
ATOM     25  C   LIG    1       21.211 -32.401  12.606  0.00  0.00    -0.038 A 
ATOM     26  C   LIG    1       20.042 -32.382  11.858  0.00  0.00    +0.053 A 
ATOM     27  C   LIG    1       18.774 -31.914  12.247  0.00  0.00    +0.162 A 
ATOM     28  C   LIG    1       18.630 -31.479  13.571  0.00  0.00    +0.162 A 
ATOM     29  C   LIG    1       19.800 -31.461  14.346  0.00  0.00    +0.050 A 
ATOM     30  C   LIG    1       21.065 -31.870  13.872  0.00  0.00    +0.007 A 
BRANCH  28  31
ATOM     31  O   LIG    1       17.424 -31.061  14.082  0.00  0.00    -0.491 OA
ATOM     32  C   LIG    1       17.108 -29.649  14.048  0.00  0.00    +0.277 C 
ENDBRANCH  28  31
BRANCH  27  33
ATOM     33  O   LIG    1       17.769 -31.906  11.293  0.00  0.00    -0.491 OA
ATOM     34  C   LIG    1       18.143 -32.444  10.001  0.00  0.00    +0.277 C 
ENDBRANCH  27  33
ENDBRANCH  24  25
ENDBRANCH  10  24
ENDBRANCH   8   9
ENDBRANCH   7   8
ENDBRANCH   5   7
ENDBRANCH   4   5
ENDBRANCH   3   4
ENDBRANCH   2   3
ENDBRANCH   1   2
BRANCH   1  35
ATOM     35  C   LIG    1       24.569 -24.817   6.043  0.00  0.00    +0.041 C 
BRANCH  35  36
ATOM     36  C   LIG    1       23.601 -23.837   6.708  0.00  0.00    +0.232 C 
BRANCH  36  37
ATOM     37  O   LIG    1       24.290 -23.332   7.925  0.00  0.00    -0.465 OA
BRANCH  37  38
ATOM     38  C   LIG    1       24.237 -22.005   7.922  0.00  0.00    +0.312 C 
ATOM     39  O   LIG    1       23.113 -21.588   7.451  0.00  0.00    -0.251 OA
BRANCH  38  40
ATOM     40  C   LIG    1       25.558 -21.165   8.694  0.00  0.00    +0.171 C 
BRANCH  40  41
ATOM     41  C   LIG    1       26.708 -20.232   8.170  0.00  0.00    +0.145 C 
BRANCH  41  43
ATOM     42  C   LIG    1       28.166 -20.106   5.649  0.00  0.00    +0.102 C 
ATOM     43  N   LIG    1       27.699 -20.888   7.019  0.00  0.00    +0.247 N 
ATOM     44  C   LIG    1       28.897 -21.385   7.769  0.00  0.00    +0.193 C 
ATOM     45  C   LIG    1       26.928 -22.155   6.476  0.00  0.00    +0.138 C 
ATOM     46  C   LIG    1       25.894 -21.893   5.358  0.00  0.00    +0.086 C 
ATOM     47  C   LIG    1       25.828 -20.495   4.803  0.00  0.00    -0.030 A 
ATOM     48  C   LIG    1       24.639 -20.014   4.226  0.00  0.00    +0.053 A 
ATOM     49  C   LIG    1       24.537 -18.692   3.753  0.00  0.00    +0.162 A 
ATOM     50  C   LIG    1       25.718 -17.914   3.653  0.00  0.00    +0.162 A 
ATOM     51  C   LIG    1       26.895 -18.433   4.207  0.00  0.00    +0.059 A 
ATOM     52  C   LIG    1       26.949 -19.661   4.865  0.00  0.00    +0.008 A 
BRANCH  50  53
ATOM     53  O   LIG    1       25.702 -16.643   3.119  0.00  0.00    -0.491 OA
ATOM     54  C   LIG    1       26.783 -15.742   3.444  0.00  0.00    +0.277 C 
ENDBRANCH  50  53
BRANCH  49  55
ATOM     55  O   LIG    1       23.317 -18.159   3.392  0.00  0.00    -0.491 OA
ATOM     56  C   LIG    1       22.275 -18.189   4.390  0.00  0.00    +0.277 C 
ENDBRANCH  49  55
BRANCH  42  57
ATOM     57  C   LIG    1       29.492 -19.169   5.709  0.00  0.00    +0.095 C 
BRANCH  57  61
ATOM     58  C   LIG    1       31.158 -18.332   9.594  0.00  0.00    +0.162 A 
ATOM     59  C   LIG    1       31.606 -19.258   8.687  0.00  0.00    +0.162 A 
ATOM     60  C   LIG    1       31.328 -18.930   7.361  0.00  0.00    +0.053 A 
ATOM     61  C   LIG    1       30.039 -18.644   7.024  0.00  0.00    -0.038 A 
ATOM     62  C   LIG    1       29.415 -17.833   7.958  0.00  0.00    +0.007 A 
ATOM     63  C   LIG    1       30.054 -17.582   9.197  0.00  0.00    +0.050 A 
BRANCH  58  65
ATOM     64  C   LIG    1       31.223 -17.264  11.667  0.00  0.00    +0.277 C 
ATOM     65  O   LIG    1       31.801 -18.229  10.798  0.00  0.00    -0.491 OA
ENDBRANCH  58  65
BRANCH  59  66
ATOM     66  O   LIG    1       32.133 -20.431   9.190  0.00  0.00    -0.491 OA
ATOM     67  C   LIG    1       31.584 -21.842   9.192  0.00  0.00    +0.277 C 
ENDBRANCH  59  66
ENDBRANCH  57  61
ENDBRANCH  42  57
ENDBRANCH  41  43
ENDBRANCH  40  41
ENDBRANCH  38  40
ENDBRANCH  37  38
ENDBRANCH  36  37
ENDBRANCH  35  36
ENDBRANCH   1  35
TORSDOF 26
ENDMDL
MODEL 4
REMARK VINA RESULT:      -6.7      1.470      4.137
REMARK  Name = *****
REMARK                            x       y       z     vdW  Elec       q    Type
REMARK                         _______ _______ _______ _____ _____    ______ ____
ROOT
ATOM      1  C   LIG    1       25.087 -25.174   5.051  0.00  0.00    +0.007 C 
ENDROOT
BRANCH   1   2
ATOM      2  C   LIG    1       24.274 -26.345   5.636  0.00  0.00    +0.041 C 
BRANCH   2   3
ATOM      3  C   LIG    1       24.901 -27.724   5.293  0.00  0.00    +0.232 C 
BRANCH   3   4
ATOM      4  O   LIG    1       25.125 -28.397   6.556  0.00  0.00    -0.465 OA
BRANCH   4   5
ATOM      5  C   LIG    1       24.931 -29.783   6.547  0.00  0.00    +0.312 C 
ATOM      6  O   LIG    1       25.123 -30.513   5.696  0.00  0.00    -0.251 OA
BRANCH   5   7
ATOM      7  C   LIG    1       24.252 -30.122   7.893  0.00  0.00    +0.171 C 
BRANCH   7   8
ATOM      8  C   LIG    1       24.852 -31.374   8.502  0.00  0.00    +0.145 C 
BRANCH   8   9
ATOM      9  N   LIG    1       25.551 -31.274   9.940  0.00  0.00    +0.247 N 
ATOM     10  C   LIG    1       24.859 -30.174  10.851  0.00  0.00    +0.102 C 
ATOM     11  C   LIG    1       23.613 -30.737  11.508  0.00  0.00    +0.008 A 
ATOM     12  C   LIG    1       23.713 -31.973  12.131  0.00  0.00    -0.030 A 
ATOM     13  C   LIG    1       22.625 -32.561  12.741  0.00  0.00    +0.053 A 
ATOM     14  C   LIG    1       21.348 -32.040  12.575  0.00  0.00    +0.162 A 
ATOM     15  C   LIG    1       21.198 -30.870  11.795  0.00  0.00    +0.162 A 
ATOM     16  C   LIG    1       25.012 -32.689  12.105  0.00  0.00    +0.086 C 
ATOM     17  C   LIG    1       22.347 -30.159  11.394  0.00  0.00    +0.059 A 
ATOM     18  C   LIG    1       25.549 -32.673  10.659  0.00  0.00    +0.138 C 
ATOM     19  C   LIG    1       26.981 -30.861   9.505  0.00  0.00    +0.193 C 
BRANCH  14  20
ATOM     20  O   LIG    1       20.259 -32.657  13.142  0.00  0.00    -0.491 OA
ATOM     21  C   LIG    1       19.781 -32.088  14.375  0.00  0.00    +0.277 C 
ENDBRANCH  14  20
BRANCH  15  22
ATOM     22  O   LIG    1       19.940 -30.446  11.437  0.00  0.00    -0.491 OA
ATOM     23  C   LIG    1       19.345 -31.102  10.305  0.00  0.00    +0.277 C 
ENDBRANCH  15  22
BRANCH  10  24
ATOM     24  C   LIG    1       25.821 -29.389  11.839  0.00  0.00    +0.095 C 
BRANCH  24  25
ATOM     25  C   LIG    1       25.530 -28.073  12.553  0.00  0.00    -0.038 A 
ATOM     26  C   LIG    1       24.425 -27.911  13.377  0.00  0.00    +0.053 A 
ATOM     27  C   LIG    1       24.096 -26.801  14.175  0.00  0.00    +0.162 A 
ATOM     28  C   LIG    1       25.020 -25.748  14.220  0.00  0.00    +0.162 A 
ATOM     29  C   LIG    1       26.136 -25.869  13.377  0.00  0.00    +0.050 A 
ATOM     30  C   LIG    1       26.370 -26.978  12.536  0.00  0.00    +0.007 A 
BRANCH  28  31
ATOM     31  O   LIG    1       24.837 -24.640  15.013  0.00  0.00    -0.491 OA
ATOM     32  C   LIG    1       25.633 -23.460  14.752  0.00  0.00    +0.277 C 
ENDBRANCH  28  31
BRANCH  27  33
ATOM     33  O   LIG    1       22.884 -26.825  14.846  0.00  0.00    -0.491 OA
ATOM     34  C   LIG    1       22.226 -28.114  14.880  0.00  0.00    +0.277 C 
ENDBRANCH  27  33
ENDBRANCH  24  25
ENDBRANCH  10  24
ENDBRANCH   8   9
ENDBRANCH   7   8
ENDBRANCH   5   7
ENDBRANCH   4   5
ENDBRANCH   3   4
ENDBRANCH   2   3
ENDBRANCH   1   2
BRANCH   1  35
ATOM     35  C   LIG    1       24.791 -23.740   5.501  0.00  0.00    +0.041 C 
BRANCH  35  36
ATOM     36  C   LIG    1       25.022 -23.478   6.990  0.00  0.00    +0.232 C 
BRANCH  36  37
ATOM     37  O   LIG    1       23.857 -22.680   7.457  0.00  0.00    -0.465 OA
BRANCH  37  38
ATOM     38  C   LIG    1       24.078 -21.401   7.174  0.00  0.00    +0.312 C 
ATOM     39  O   LIG    1       23.078 -20.887   6.545  0.00  0.00    -0.251 OA
BRANCH  38  40
ATOM     40  C   LIG    1       25.519 -20.685   7.849  0.00  0.00    +0.171 C 
BRANCH  40  41
ATOM     41  C   LIG    1       26.582 -19.663   7.308  0.00  0.00    +0.145 C 
BRANCH  41  43
ATOM     42  C   LIG    1       28.487 -19.243   5.142  0.00  0.00    +0.102 C 
ATOM     43  N   LIG    1       27.554 -20.214   6.086  0.00  0.00    +0.247 N 
ATOM     44  C   LIG    1       28.385 -21.296   6.704  0.00  0.00    +0.193 C 
ATOM     45  C   LIG    1       26.577 -20.903   5.054  0.00  0.00    +0.138 C 
ATOM     46  C   LIG    1       25.906 -19.968   4.024  0.00  0.00    +0.086 C 
ATOM     47  C   LIG    1       26.354 -18.530   4.014  0.00  0.00    -0.030 A 
ATOM     48  C   LIG    1       25.492 -17.519   3.552  0.00  0.00    +0.053 A 
ATOM     49  C   LIG    1       25.868 -16.163   3.588  0.00  0.00    +0.162 A 
ATOM     50  C   LIG    1       27.217 -15.841   3.880  0.00  0.00    +0.162 A 
ATOM     51  C   LIG    1       28.062 -16.874   4.306  0.00  0.00    +0.059 A 
ATOM     52  C   LIG    1       27.630 -18.189   4.473  0.00  0.00    +0.008 A 
BRANCH  50  53
ATOM     53  O   LIG    1       27.672 -14.540   3.848  0.00  0.00    -0.491 OA
ATOM     54  C   LIG    1       27.407 -13.685   4.982  0.00  0.00    +0.277 C 
ENDBRANCH  50  53
BRANCH  49  55
ATOM     55  O   LIG    1       24.948 -15.165   3.342  0.00  0.00    -0.491 OA
ATOM     56  C   LIG    1       23.961 -14.925   4.366  0.00  0.00    +0.277 C 
ENDBRANCH  49  55
BRANCH  42  57
ATOM     57  C   LIG    1       29.986 -18.880   5.654  0.00  0.00    +0.095 C 
BRANCH  57  61
ATOM     58  C   LIG    1       30.622 -18.475   9.897  0.00  0.00    +0.162 A 
ATOM     59  C   LIG    1       30.976 -19.539   9.107  0.00  0.00    +0.162 A 
ATOM     60  C   LIG    1       31.226 -19.200   7.779  0.00  0.00    +0.053 A 
ATOM     61  C   LIG    1       30.268 -18.509   7.099  0.00  0.00    -0.038 A 
ATOM     62  C   LIG    1       29.710 -17.492   7.855  0.00  0.00    +0.007 A 
ATOM     63  C   LIG    1       30.004 -17.415   9.240  0.00  0.00    +0.050 A 
BRANCH  58  65
ATOM     64  C   LIG    1       31.324 -17.306  11.789  0.00  0.00    +0.277 C 
ATOM     65  O   LIG    1       30.880 -18.539  11.239  0.00  0.00    -0.491 OA
ENDBRANCH  58  65
BRANCH  59  66
ATOM     66  O   LIG    1       30.905 -20.796   9.674  0.00  0.00    -0.491 OA
ATOM     67  C   LIG    1       31.421 -22.133   9.186  0.00  0.00    +0.277 C 
ENDBRANCH  59  66
ENDBRANCH  57  61
ENDBRANCH  42  57
ENDBRANCH  41  43
ENDBRANCH  40  41
ENDBRANCH  38  40
ENDBRANCH  37  38
ENDBRANCH  36  37
ENDBRANCH  35  36
ENDBRANCH   1  35
TORSDOF 26
ENDMDL
MODEL 5
REMARK VINA RESULT:      -6.6      2.299      6.035
REMARK  Name = *****
REMARK                            x       y       z     vdW  Elec       q    Type
REMARK                         _______ _______ _______ _____ _____    ______ ____
ROOT
ATOM      1  C   LIG    1       24.380 -29.787   7.164  0.00  0.00    +0.007 C 
ENDROOT
BRANCH   1   2
ATOM      2  C   LIG    1       25.722 -29.949   7.904  0.00  0.00    +0.041 C 
BRANCH   2   3
ATOM      3  C   LIG    1       25.534 -30.478   9.352  0.00  0.00    +0.232 C 
BRANCH   3   4
ATOM      4  O   LIG    1       25.355 -31.911   9.244  0.00  0.00    -0.465 OA
BRANCH   4   5
ATOM      5  C   LIG    1       24.795 -32.538  10.363  0.00  0.00    +0.312 C 
ATOM      6  O   LIG    1       24.216 -33.518  10.402  0.00  0.00    -0.251 OA
BRANCH   5   7
ATOM      7  C   LIG    1       24.989 -31.555  11.538  0.00  0.00    +0.171 C 
BRANCH   7   8
ATOM      8  C   LIG    1       24.188 -31.993  12.748  0.00  0.00    +0.145 C 
BRANCH   8   9
ATOM      9  N   LIG    1       22.866 -31.176  13.137  0.00  0.00    +0.247 N 
ATOM     10  C   LIG    1       23.002 -30.489  14.561  0.00  0.00    +0.102 C 
ATOM     11  C   LIG    1       23.763 -29.182  14.450  0.00  0.00    +0.008 A 
ATOM     12  C   LIG    1       23.383 -28.295  13.454  0.00  0.00    -0.030 A 
ATOM     13  C   LIG    1       24.032 -27.091  13.277  0.00  0.00    +0.053 A 
ATOM     14  C   LIG    1       25.217 -26.815  13.948  0.00  0.00    +0.162 A 
ATOM     15  C   LIG    1       25.719 -27.786  14.845  0.00  0.00    +0.162 A 
ATOM     16  C   LIG    1       22.277 -28.670  12.540  0.00  0.00    +0.086 C 
ATOM     17  C   LIG    1       24.912 -28.888  15.188  0.00  0.00    +0.059 A 
ATOM     18  C   LIG    1       22.528 -30.106  12.035  0.00  0.00    +0.138 C 
ATOM     19  C   LIG    1       21.835 -32.334  13.140  0.00  0.00    +0.193 C 
BRANCH  14  20
ATOM     20  O   LIG    1       25.888 -25.636  13.730  0.00  0.00    -0.491 OA
ATOM     21  C   LIG    1       25.171 -24.431  14.058  0.00  0.00    +0.277 C 
ENDBRANCH  14  20
BRANCH  15  22
ATOM     22  O   LIG    1       26.985 -27.642  15.365  0.00  0.00    -0.491 OA
ATOM     23  C   LIG    1       27.908 -28.710  15.098  0.00  0.00    +0.277 C 
ENDBRANCH  15  22
BRANCH  10  24
ATOM     24  C   LIG    1       21.667 -30.396  15.414  0.00  0.00    +0.095 C 
BRANCH  24  25
ATOM     25  C   LIG    1       20.399 -29.626  15.058  0.00  0.00    -0.038 A 
ATOM     26  C   LIG    1       19.352 -30.214  14.362  0.00  0.00    +0.053 A 
ATOM     27  C   LIG    1       18.094 -29.662  14.063  0.00  0.00    +0.162 A 
ATOM     28  C   LIG    1       17.810 -28.394  14.587  0.00  0.00    +0.162 A 
ATOM     29  C   LIG    1       18.857 -27.760  15.273  0.00  0.00    +0.050 A 
ATOM     30  C   LIG    1       20.130 -28.337  15.472  0.00  0.00    +0.007 A 
BRANCH  28  31
ATOM     31  O   LIG    1       16.591 -27.781  14.415  0.00  0.00    -0.491 OA
ATOM     32  C   LIG    1       16.527 -26.337  14.471  0.00  0.00    +0.277 C 
ENDBRANCH  28  31
BRANCH  27  33
ATOM     33  O   LIG    1       17.236 -30.404  13.267  0.00  0.00    -0.491 OA
ATOM     34  C   LIG    1       17.874 -31.424  12.460  0.00  0.00    +0.277 C 
ENDBRANCH  27  33
ENDBRANCH  24  25
ENDBRANCH  10  24
ENDBRANCH   8   9
ENDBRANCH   7   8
ENDBRANCH   5   7
ENDBRANCH   4   5
ENDBRANCH   3   4
ENDBRANCH   2   3
ENDBRANCH   1   2
BRANCH   1  35
ATOM     35  C   LIG    1       24.060 -28.475   6.442  0.00  0.00    +0.041 C 
BRANCH  35  36
ATOM     36  C   LIG    1       24.697 -28.335   5.058  0.00  0.00    +0.232 C 
BRANCH  36  37
ATOM     37  O   LIG    1       24.862 -26.877   4.822  0.00  0.00    -0.465 OA
BRANCH  37  38
ATOM     38  C   LIG    1       25.941 -26.461   5.476  0.00  0.00    +0.312 C 
ATOM     39  O   LIG    1       27.005 -27.022   5.016  0.00  0.00    -0.251 OA
BRANCH  38  40
ATOM     40  C   LIG    1       25.713 -25.169   6.627  0.00  0.00    +0.171 C 
BRANCH  40  41
ATOM     41  C   LIG    1       26.330 -23.734   6.787  0.00  0.00    +0.145 C 
BRANCH  41  43
ATOM     42  C   LIG    1       25.521 -20.986   6.247  0.00  0.00    +0.102 C 
ATOM     43  N   LIG    1       25.246 -22.487   6.862  0.00  0.00    +0.247 N 
ATOM     44  C   LIG    1       23.966 -23.046   6.320  0.00  0.00    +0.193 C 
ATOM     45  C   LIG    1       25.024 -22.218   8.403  0.00  0.00    +0.138 C 
ATOM     46  C   LIG    1       26.054 -21.290   9.085  0.00  0.00    +0.086 C 
ATOM     47  C   LIG    1       27.072 -20.628   8.195  0.00  0.00    -0.030 A 
ATOM     48  C   LIG    1       28.321 -20.237   8.710  0.00  0.00    +0.053 A 
ATOM     49  C   LIG    1       29.308 -19.669   7.883  0.00  0.00    +0.162 A 
ATOM     50  C   LIG    1       28.950 -19.279   6.569  0.00  0.00    +0.162 A 
ATOM     51  C   LIG    1       27.686 -19.653   6.094  0.00  0.00    +0.059 A 
ATOM     52  C   LIG    1       26.783 -20.403   6.846  0.00  0.00    +0.008 A 
BRANCH  50  53
ATOM     53  O   LIG    1       29.844 -18.639   5.737  0.00  0.00    -0.491 OA
ATOM     54  C   LIG    1       29.329 -17.826   4.660  0.00  0.00    +0.277 C 
ENDBRANCH  50  53
BRANCH  49  55
ATOM     55  O   LIG    1       30.599 -19.491   8.339  0.00  0.00    -0.491 OA
ATOM     56  C   LIG    1       30.806 -18.443   9.308  0.00  0.00    +0.277 C 
ENDBRANCH  49  55
BRANCH  42  57
ATOM     57  C   LIG    1       25.147 -20.711   4.689  0.00  0.00    +0.095 C 
BRANCH  57  61
ATOM     58  C   LIG    1       21.422 -18.672   3.961  0.00  0.00    +0.162 A 
ATOM     59  C   LIG    1       22.657 -18.099   4.126  0.00  0.00    +0.162 A 
ATOM     60  C   LIG    1       23.716 -18.919   3.742  0.00  0.00    +0.053 A 
ATOM     61  C   LIG    1       23.790 -20.170   4.277  0.00  0.00    -0.038 A 
ATOM     62  C   LIG    1       22.559 -20.804   4.314  0.00  0.00    +0.007 A 
ATOM     63  C   LIG    1       21.387 -20.062   4.025  0.00  0.00    +0.050 A 
BRANCH  58  65
ATOM     64  C   LIG    1       19.438 -18.337   2.782  0.00  0.00    +0.277 C 
ATOM     65  O   LIG    1       20.341 -17.855   3.768  0.00  0.00    -0.491 OA
ENDBRANCH  58  65
BRANCH  59  66
ATOM     66  O   LIG    1       22.705 -16.876   4.766  0.00  0.00    -0.491 OA
ATOM     67  C   LIG    1       22.953 -15.484   4.224  0.00  0.00    +0.277 C 
ENDBRANCH  59  66
ENDBRANCH  57  61
ENDBRANCH  42  57
ENDBRANCH  41  43
ENDBRANCH  40  41
ENDBRANCH  38  40
ENDBRANCH  37  38
ENDBRANCH  36  37
ENDBRANCH  35  36
ENDBRANCH   1  35
TORSDOF 26
ENDMDL
MODEL 6
REMARK VINA RESULT:      -6.2      2.228     13.147
REMARK  Name = *****
REMARK                            x       y       z     vdW  Elec       q    Type
REMARK                         _______ _______ _______ _____ _____    ______ ____
ROOT
ATOM      1  C   LIG    1       26.174 -28.623  10.776  0.00  0.00    +0.007 C 
ENDROOT
BRANCH   1   2
ATOM      2  C   LIG    1       26.388 -28.875   9.271  0.00  0.00    +0.041 C 
BRANCH   2   3
ATOM      3  C   LIG    1       26.609 -27.556   8.481  0.00  0.00    +0.232 C 
BRANCH   3   4
ATOM      4  O   LIG    1       25.770 -27.638   7.303  0.00  0.00    -0.465 OA
BRANCH   4   5
ATOM      5  C   LIG    1       25.999 -26.663   6.326  0.00  0.00    +0.312 C 
ATOM      6  O   LIG    1       26.877 -26.582   5.606  0.00  0.00    -0.251 OA
BRANCH   5   7
ATOM      7  C   LIG    1       24.883 -25.610   6.511  0.00  0.00    +0.171 C 
BRANCH   7   8
ATOM      8  C   LIG    1       25.470 -24.233   6.743  0.00  0.00    +0.145 C 
BRANCH   8   9
ATOM      9  N   LIG    1       24.651 -22.950   6.244  0.00  0.00    +0.247 N 
ATOM     10  C   LIG    1       24.779 -21.741   7.265  0.00  0.00    +0.102 C 
ATOM     11  C   LIG    1       26.075 -20.988   7.036  0.00  0.00    +0.008 A 
ATOM     12  C   LIG    1       26.396 -20.635   5.733  0.00  0.00    -0.030 A 
ATOM     13  C   LIG    1       27.561 -19.960   5.437  0.00  0.00    +0.053 A 
ATOM     14  C   LIG    1       28.552 -19.795   6.397  0.00  0.00    +0.162 A 
ATOM     15  C   LIG    1       28.318 -20.304   7.695  0.00  0.00    +0.162 A 
ATOM     16  C   LIG    1       25.478 -21.025   4.635  0.00  0.00    +0.086 C 
ATOM     17  C   LIG    1       27.029 -20.765   8.031  0.00  0.00    +0.059 A 
ATOM     18  C   LIG    1       25.117 -22.515   4.807  0.00  0.00    +0.138 C 
ATOM     19  C   LIG    1       23.221 -23.549   6.220  0.00  0.00    +0.193 C 
BRANCH  14  20
ATOM     20  O   LIG    1       29.734 -19.167   6.085  0.00  0.00    -0.491 OA
ATOM     21  C   LIG    1       30.093 -18.047   6.915  0.00  0.00    +0.277 C 
ENDBRANCH  14  20
BRANCH  15  22
ATOM     22  O   LIG    1       29.348 -20.347   8.606  0.00  0.00    -0.491 OA
ATOM     23  C   LIG    1       30.287 -21.423   8.456  0.00  0.00    +0.277 C 
ENDBRANCH  15  22
BRANCH  10  24
ATOM     24  C   LIG    1       23.499 -20.812   7.401  0.00  0.00    +0.095 C 
BRANCH  24  25
ATOM     25  C   LIG    1       22.677 -20.208   6.268  0.00  0.00    -0.038 A 
ATOM     26  C   LIG    1       22.740 -18.858   5.953  0.00  0.00    +0.053 A 
ATOM     27  C   LIG    1       22.126 -18.191   4.877  0.00  0.00    +0.162 A 
ATOM     28  C   LIG    1       21.424 -18.977   3.953  0.00  0.00    +0.162 A 
ATOM     29  C   LIG    1       21.319 -20.343   4.258  0.00  0.00    +0.050 A 
ATOM     30  C   LIG    1       21.892 -20.941   5.401  0.00  0.00    +0.007 A 
BRANCH  28  31
ATOM     31  O   LIG    1       20.837 -18.446   2.829  0.00  0.00    -0.491 OA
ATOM     32  C   LIG    1       19.393 -18.411   2.750  0.00  0.00    +0.277 C 
ENDBRANCH  28  31
BRANCH  27  33
ATOM     33  O   LIG    1       22.252 -16.812   4.816  0.00  0.00    -0.491 OA
ATOM     34  C   LIG    1       23.517 -16.332   4.300  0.00  0.00    +0.277 C 
ENDBRANCH  27  33
ENDBRANCH  24  25
ENDBRANCH  10  24
ENDBRANCH   8   9
ENDBRANCH   7   8
ENDBRANCH   5   7
ENDBRANCH   4   5
ENDBRANCH   3   4
ENDBRANCH   2   3
ENDBRANCH   1   2
BRANCH   1  35
ATOM     35  C   LIG    1       27.016 -27.569  11.501  0.00  0.00    +0.041 C 
BRANCH  35  36
ATOM     36  C   LIG    1       26.597 -27.302  12.948  0.00  0.00    +0.232 C 
BRANCH  36  37
ATOM     37  O   LIG    1       25.478 -26.325  12.883  0.00  0.00    -0.465 OA
BRANCH  37  38
ATOM     38  C   LIG    1       24.648 -26.564  13.891  0.00  0.00    +0.312 C 
ATOM     39  O   LIG    1       25.132 -26.127  15.002  0.00  0.00    -0.251 OA
BRANCH  38  40
ATOM     40  C   LIG    1       23.080 -27.212  13.482  0.00  0.00    +0.171 C 
BRANCH  40  41
ATOM     41  C   LIG    1       22.596 -28.550  12.816  0.00  0.00    +0.145 C 
BRANCH  41  43
ATOM     42  C   LIG    1       22.283 -31.409  13.292  0.00  0.00    +0.102 C 
ATOM     43  N   LIG    1       22.897 -29.931  13.676  0.00  0.00    +0.247 N 
ATOM     44  C   LIG    1       24.388 -30.002  13.798  0.00  0.00    +0.193 C 
ATOM     45  C   LIG    1       22.321 -29.657  15.121  0.00  0.00    +0.138 C 
ATOM     46  C   LIG    1       20.812 -29.931  15.315  0.00  0.00    +0.086 C 
ATOM     47  C   LIG    1       20.079 -30.559  14.160  0.00  0.00    -0.030 A 
ATOM     48  C   LIG    1       18.696 -30.358  14.001  0.00  0.00    +0.053 A 
ATOM     49  C   LIG    1       18.001 -30.889  12.897  0.00  0.00    +0.162 A 
ATOM     50  C   LIG    1       18.664 -31.825  12.065  0.00  0.00    +0.162 A 
ATOM     51  C   LIG    1       20.035 -32.030  12.268  0.00  0.00    +0.059 A 
ATOM     52  C   LIG    1       20.771 -31.343  13.232  0.00  0.00    +0.008 A 
BRANCH  50  53
ATOM     53  O   LIG    1       18.015 -32.447  11.019  0.00  0.00    -0.491 OA
ATOM     54  C   LIG    1       18.010 -31.803   9.726  0.00  0.00    +0.277 C 
ENDBRANCH  50  53
BRANCH  49  55
ATOM     55  O   LIG    1       16.702 -30.510  12.629  0.00  0.00    -0.491 OA
ATOM     56  C   LIG    1       15.909 -30.069  13.750  0.00  0.00    +0.277 C 
ENDBRANCH  49  55
BRANCH  42  57
ATOM     57  C   LIG    1       23.108 -32.338  12.245  0.00  0.00    +0.095 C 
BRANCH  57  61
ATOM     58  C   LIG    1       24.125 -31.562   8.130  0.00  0.00    +0.162 A 
ATOM     59  C   LIG    1       24.359 -32.716   8.834  0.00  0.00    +0.162 A 
ATOM     60  C   LIG    1       23.448 -32.945   9.863  0.00  0.00    +0.053 A 
ATOM     61  C   LIG    1       23.252 -31.958  10.782  0.00  0.00    -0.038 A 
ATOM     62  C   LIG    1       23.158 -30.704  10.202  0.00  0.00    +0.007 A 
ATOM     63  C   LIG    1       23.478 -30.548   8.830  0.00  0.00    +0.050 A 
BRANCH  58  65
ATOM     64  C   LIG    1       24.075 -30.339   6.145  0.00  0.00    +0.277 C 
ATOM     65  O   LIG    1       24.550 -31.489   6.831  0.00  0.00    -0.491 OA
ENDBRANCH  58  65
BRANCH  59  66
ATOM     66  O   LIG    1       25.514 -33.412   8.539  0.00  0.00    -0.491 OA
ATOM     67  C   LIG    1       26.965 -33.092   8.830  0.00  0.00    +0.277 C 
ENDBRANCH  59  66
ENDBRANCH  57  61
ENDBRANCH  42  57
ENDBRANCH  41  43
ENDBRANCH  40  41
ENDBRANCH  38  40
ENDBRANCH  37  38
ENDBRANCH  36  37
ENDBRANCH  35  36
ENDBRANCH   1  35
TORSDOF 26
ENDMDL
MODEL 7
REMARK VINA RESULT:      -5.7      1.769      4.347
REMARK  Name = *****
REMARK                            x       y       z     vdW  Elec       q    Type
REMARK                         _______ _______ _______ _____ _____    ______ ____
ROOT
ATOM      1  C   LIG    1       25.010 -25.911   5.341  0.00  0.00    +0.007 C 
ENDROOT
BRANCH   1   2
ATOM      2  C   LIG    1       24.334 -27.178   5.902  0.00  0.00    +0.041 C 
BRANCH   2   3
ATOM      3  C   LIG    1       25.319 -28.375   5.995  0.00  0.00    +0.232 C 
BRANCH   3   4
ATOM      4  O   LIG    1       25.251 -28.854   7.361  0.00  0.00    -0.465 OA
BRANCH   4   5
ATOM      5  C   LIG    1       24.355 -29.904   7.592  0.00  0.00    +0.312 C 
ATOM      6  O   LIG    1       23.820 -30.552   6.824  0.00  0.00    -0.251 OA
BRANCH   5   7
ATOM      7  C   LIG    1       24.110 -29.922   9.117  0.00  0.00    +0.171 C 
BRANCH   7   8
ATOM      8  C   LIG    1       23.751 -31.316   9.592  0.00  0.00    +0.145 C 
BRANCH   8   9
ATOM      9  N   LIG    1       24.240 -31.786  11.043  0.00  0.00    +0.247 N 
ATOM     10  C   LIG    1       24.328 -30.566  12.054  0.00  0.00    +0.102 C 
ATOM     11  C   LIG    1       22.959 -30.253  12.629  0.00  0.00    +0.008 A 
ATOM     12  C   LIG    1       22.207 -31.310  13.119  0.00  0.00    -0.030 A 
ATOM     13  C   LIG    1       20.948 -31.114  13.646  0.00  0.00    +0.053 A 
ATOM     14  C   LIG    1       20.305 -29.890  13.516  0.00  0.00    +0.162 A 
ATOM     15  C   LIG    1       20.989 -28.840  12.861  0.00  0.00    +0.162 A 
ATOM     16  C   LIG    1       22.759 -32.684  13.038  0.00  0.00    +0.086 C 
ATOM     17  C   LIG    1       22.356 -28.996  12.556  0.00  0.00    +0.059 A 
ATOM     18  C   LIG    1       23.299 -32.911  11.611  0.00  0.00    +0.138 C 
ATOM     19  C   LIG    1       25.639 -32.347  10.678  0.00  0.00    +0.193 C 
BRANCH  14  20
ATOM     20  O   LIG    1       19.030 -29.712  13.997  0.00  0.00    -0.491 OA
ATOM     21  C   LIG    1       18.339 -30.905  14.412  0.00  0.00    +0.277 C 
ENDBRANCH  14  20
BRANCH  15  22
ATOM     22  O   LIG    1       20.314 -27.688  12.529  0.00  0.00    -0.491 OA
ATOM     23  C   LIG    1       20.640 -26.515  13.291  0.00  0.00    +0.277 C 
ENDBRANCH  15  22
BRANCH  10  24
ATOM     24  C   LIG    1       25.487 -30.644  13.135  0.00  0.00    +0.095 C 
BRANCH  24  25
ATOM     25  C   LIG    1       26.197 -29.474  13.809  0.00  0.00    -0.038 A 
ATOM     26  C   LIG    1       27.574 -29.451  13.983  0.00  0.00    +0.053 A 
ATOM     27  C   LIG    1       28.364 -28.401  14.485  0.00  0.00    +0.162 A 
ATOM     28  C   LIG    1       27.716 -27.195  14.779  0.00  0.00    +0.162 A 
ATOM     29  C   LIG    1       26.319 -27.194  14.638  0.00  0.00    +0.050 A 
ATOM     30  C   LIG    1       25.571 -28.310  14.205  0.00  0.00    +0.007 A 
BRANCH  28  31
ATOM     31  O   LIG    1       28.393 -26.080  15.214  0.00  0.00    -0.491 OA
ATOM     32  C   LIG    1       27.987 -24.783  14.717  0.00  0.00    +0.277 C 
ENDBRANCH  28  31
BRANCH  27  33
ATOM     33  O   LIG    1       29.718 -28.641  14.660  0.00  0.00    -0.491 OA
ATOM     34  C   LIG    1       30.097 -30.038  14.689  0.00  0.00    +0.277 C 
ENDBRANCH  27  33
ENDBRANCH  24  25
ENDBRANCH  10  24
ENDBRANCH   8   9
ENDBRANCH   7   8
ENDBRANCH   5   7
ENDBRANCH   4   5
ENDBRANCH   3   4
ENDBRANCH   2   3
ENDBRANCH   1   2
BRANCH   1  35
ATOM     35  C   LIG    1       24.596 -24.532   5.861  0.00  0.00    +0.041 C 
BRANCH  35  36
ATOM     36  C   LIG    1       25.690 -23.782   6.623  0.00  0.00    +0.232 C 
BRANCH  36  37
ATOM     37  O   LIG    1       25.069 -23.317   7.891  0.00  0.00    -0.465 OA
BRANCH  37  38
ATOM     38  C   LIG    1       24.688 -22.053   7.738  0.00  0.00    +0.312 C 
ATOM     39  O   LIG    1       23.429 -21.979   7.477  0.00  0.00    -0.251 OA
BRANCH  38  40
ATOM     40  C   LIG    1       25.876 -20.825   8.094  0.00  0.00    +0.171 C 
BRANCH  40  41
ATOM     41  C   LIG    1       26.556 -19.692   7.246  0.00  0.00    +0.145 C 
BRANCH  41  43
ATOM     42  C   LIG    1       28.439 -19.204   5.074  0.00  0.00    +0.102 C 
ATOM     43  N   LIG    1       27.512 -20.203   5.995  0.00  0.00    +0.247 N 
ATOM     44  C   LIG    1       28.346 -21.309   6.566  0.00  0.00    +0.193 C 
ATOM     45  C   LIG    1       26.522 -20.854   4.951  0.00  0.00    +0.138 C 
ATOM     46  C   LIG    1       25.843 -19.880   3.962  0.00  0.00    +0.086 C 
ATOM     47  C   LIG    1       26.296 -18.445   3.997  0.00  0.00    -0.030 A 
ATOM     48  C   LIG    1       25.433 -17.416   3.579  0.00  0.00    +0.053 A 
ATOM     49  C   LIG    1       25.814 -16.063   3.658  0.00  0.00    +0.162 A 
ATOM     50  C   LIG    1       27.168 -15.756   3.946  0.00  0.00    +0.162 A 
ATOM     51  C   LIG    1       28.013 -16.806   4.326  0.00  0.00    +0.059 A 
ATOM     52  C   LIG    1       27.578 -18.125   4.452  0.00  0.00    +0.008 A 
BRANCH  50  53
ATOM     53  O   LIG    1       27.627 -14.456   3.953  0.00  0.00    -0.491 OA
ATOM     54  C   LIG    1       27.915 -13.816   2.690  0.00  0.00    +0.277 C 
ENDBRANCH  50  53
BRANCH  49  55
ATOM     55  O   LIG    1       24.895 -15.054   3.457  0.00  0.00    -0.491 OA
ATOM     56  C   LIG    1       24.283 -14.490   4.635  0.00  0.00    +0.277 C 
ENDBRANCH  49  55
BRANCH  42  57
ATOM     57  C   LIG    1       29.945 -18.864   5.582  0.00  0.00    +0.095 C 
BRANCH  57  61
ATOM     58  C   LIG    1       30.877 -18.341   9.756  0.00  0.00    +0.162 A 
ATOM     59  C   LIG    1       31.526 -19.153   8.862  0.00  0.00    +0.162 A 
ATOM     60  C   LIG    1       31.458 -18.709   7.543  0.00  0.00    +0.053 A 
ATOM     61  C   LIG    1       30.230 -18.447   7.013  0.00  0.00    -0.038 A 
ATOM     62  C   LIG    1       29.410 -17.759   7.893  0.00  0.00    +0.007 A 
ATOM     63  C   LIG    1       29.814 -17.604   9.242  0.00  0.00    +0.050 A 
BRANCH  58  65
ATOM     64  C   LIG    1       32.010 -17.149  11.410  0.00  0.00    +0.277 C 
ATOM     65  O   LIG    1       31.301 -18.329  11.057  0.00  0.00    -0.491 OA
ENDBRANCH  58  65
BRANCH  59  66
ATOM     66  O   LIG    1       32.029 -20.346   9.342  0.00  0.00    -0.491 OA
ATOM     67  C   LIG    1       31.412 -21.727   9.404  0.00  0.00    +0.277 C 
ENDBRANCH  59  66
ENDBRANCH  57  61
ENDBRANCH  42  57
ENDBRANCH  41  43
ENDBRANCH  40  41
ENDBRANCH  38  40
ENDBRANCH  37  38
ENDBRANCH  36  37
ENDBRANCH  35  36
ENDBRANCH   1  35
TORSDOF 26
ENDMDL
