MODEL 1
REMARK VINA RESULT:      -8.3      0.000      0.000
REMARK  Name = *****
REMARK                            x       y       z     vdW  Elec       q    Type
REMARK                         _______ _______ _______ _____ _____    ______ ____
ROOT
ATOM      1  C   LIG    1       26.174 -20.754   7.493  0.00  0.00    +0.090 C 
ATOM      2  N   LIG    1       26.947 -20.246   6.451  0.00  0.00    -0.344 NA
ATOM      3  C   LIG    1       26.550 -20.158   5.056  0.00  0.00    +0.149 C 
ATOM      4  C   LIG    1       28.164 -19.784   6.940  0.00  0.00    +0.030 C 
ATOM      5  C   LIG    1       28.155 -19.977   8.308  0.00  0.00    +0.024 C 
ATOM      6  C   LIG    1       26.939 -20.606   8.645  0.00  0.00    +0.031 C 
ENDROOT
BRANCH   1   7
ATOM      7  C   LIG    1       24.841 -21.362   7.390  0.00  0.00    +0.209 C 
ATOM      8  O   LIG    1       23.799 -20.721   7.563  0.00  0.00    -0.285 OA
BRANCH   7  13
ATOM      9  C   LIG    1       24.314 -26.978   5.904  0.00  0.00    +0.044 C 
ATOM     10  C   LIG    1       24.461 -25.542   6.324  0.00  0.00    -0.050 A 
ATOM     11  C   LIG    1       23.332 -24.721   6.405  0.00  0.00    +0.004 A 
ATOM     12  C   LIG    1       23.449 -23.379   6.786  0.00  0.00    +0.012 A 
ATOM     13  C   LIG    1       24.704 -22.822   7.065  0.00  0.00    +0.024 A 
ATOM     14  C   LIG    1       25.841 -23.640   6.960  0.00  0.00    +0.012 A 
ATOM     15  C   LIG    1       25.714 -24.996   6.623  0.00  0.00    +0.004 A 
ENDBRANCH   7  13
ENDBRANCH   1   7
BRANCH   4  16
ATOM     16  C   LIG    1       29.264 -19.177   6.101  0.00  0.00    +0.173 C 
BRANCH  16  17
ATOM     17  C   LIG    1       30.549 -18.917   6.869  0.00  0.00    +0.310 C 
ATOM     18  O   LIG    1       30.721 -17.912   7.546  0.00  0.00    -0.251 OA
BRANCH  17  19
ATOM     19  O   LIG    1       31.468 -19.909   6.839  0.00  0.00    -0.480 OA
ATOM     20  H   LIG    1       31.219 -20.654   6.261  0.00  0.00    +0.295 HD
ENDBRANCH  17  19
ENDBRANCH  16  17
ENDBRANCH   4  16
TORSDOF 5
ENDMDL
MODEL 2
REMARK VINA RESULT:      -8.3      2.922      3.927
REMARK  Name = *****
REMARK                            x       y       z     vdW  Elec       q    Type
REMARK                         _______ _______ _______ _____ _____    ______ ____
ROOT
ATOM      1  C   LIG    1       28.321 -20.360   6.680  0.00  0.00    +0.090 C 
ATOM      2  N   LIG    1       29.526 -20.444   7.374  0.00  0.00    -0.344 NA
ATOM      3  C   LIG    1       29.871 -21.445   8.370  0.00  0.00    +0.149 C 
ATOM      4  C   LIG    1       30.394 -19.445   6.948  0.00  0.00    +0.030 C 
ATOM      5  C   LIG    1       29.745 -18.734   5.957  0.00  0.00    +0.024 C 
ATOM      6  C   LIG    1       28.452 -19.279   5.815  0.00  0.00    +0.031 C 
ENDROOT
BRANCH   1   7
ATOM      7  C   LIG    1       27.137 -21.211   6.856  0.00  0.00    +0.209 C 
ATOM      8  O   LIG    1       27.178 -22.301   7.436  0.00  0.00    -0.285 OA
BRANCH   7  13
ATOM      9  C   LIG    1       21.936 -19.706   4.686  0.00  0.00    +0.044 C 
ATOM     10  C   LIG    1       23.275 -20.061   5.268  0.00  0.00    -0.050 A 
ATOM     11  C   LIG    1       24.417 -20.034   4.460  0.00  0.00    +0.004 A 
ATOM     12  C   LIG    1       25.671 -20.369   4.982  0.00  0.00    +0.012 A 
ATOM     13  C   LIG    1       25.806 -20.767   6.318  0.00  0.00    +0.024 A 
ATOM     14  C   LIG    1       24.657 -20.818   7.124  0.00  0.00    +0.012 A 
ATOM     15  C   LIG    1       23.409 -20.437   6.609  0.00  0.00    +0.004 A 
ENDBRANCH   7  13
ENDBRANCH   1   7
BRANCH   4  16
ATOM     16  C   LIG    1       31.788 -19.218   7.484  0.00  0.00    +0.173 C 
BRANCH  16  17
ATOM     17  C   LIG    1       31.838 -18.301   8.695  0.00  0.00    +0.310 C 
ATOM     18  O   LIG    1       31.669 -18.707   9.838  0.00  0.00    -0.251 OA
BRANCH  17  19
ATOM     19  O   LIG    1       32.173 -17.014   8.451  0.00  0.00    -0.480 OA
ATOM     20  H   LIG    1       32.115 -16.768   7.508  0.00  0.00    +0.295 HD
ENDBRANCH  17  19
ENDBRANCH  16  17
ENDBRANCH   4  16
TORSDOF 5
ENDMDL
MODEL 3
REMARK VINA RESULT:      -8.2      2.922      3.993
REMARK  Name = *****
REMARK                            x       y       z     vdW  Elec       q    Type
REMARK                         _______ _______ _______ _____ _____    ______ ____
ROOT
ATOM      1  C   LIG    1       28.042 -20.345   6.483  0.00  0.00    +0.090 C 
ATOM      2  N   LIG    1       29.162 -20.438   7.308  0.00  0.00    -0.344 NA
ATOM      3  C   LIG    1       29.401 -21.460   8.313  0.00  0.00    +0.149 C 
ATOM      4  C   LIG    1       30.063 -19.423   7.007  0.00  0.00    +0.030 C 
ATOM      5  C   LIG    1       29.523 -18.693   5.966  0.00  0.00    +0.024 C 
ATOM      6  C   LIG    1       28.260 -19.242   5.665  0.00  0.00    +0.031 C 
ENDROOT
BRANCH   1   7
ATOM      7  C   LIG    1       26.854 -21.208   6.504  0.00  0.00    +0.209 C 
ATOM      8  O   LIG    1       26.862 -22.344   6.990  0.00  0.00    -0.285 OA
BRANCH   7  13
ATOM      9  C   LIG    1       21.869 -19.110   4.320  0.00  0.00    +0.044 C 
ATOM     10  C   LIG    1       23.152 -19.680   4.856  0.00  0.00    -0.050 A 
ATOM     11  C   LIG    1       23.188 -20.229   6.142  0.00  0.00    +0.004 A 
ATOM     12  C   LIG    1       24.376 -20.756   6.661  0.00  0.00    +0.012 A 
ATOM     13  C   LIG    1       25.561 -20.721   5.915  0.00  0.00    +0.024 A 
ATOM     14  C   LIG    1       25.531 -20.148   4.633  0.00  0.00    +0.012 A 
ATOM     15  C   LIG    1       24.328 -19.662   4.098  0.00  0.00    +0.004 A 
ENDBRANCH   7  13
ENDBRANCH   1   7
BRANCH   4  16
ATOM     16  C   LIG    1       31.384 -19.199   7.703  0.00  0.00    +0.173 C 
BRANCH  16  17
ATOM     17  C   LIG    1       31.250 -18.640   9.111  0.00  0.00    +0.310 C 
ATOM     18  O   LIG    1       32.215 -18.436   9.835  0.00  0.00    -0.251 OA
BRANCH  17  19
ATOM     19  O   LIG    1       30.000 -18.290   9.491  0.00  0.00    -0.480 OA
ATOM     20  H   LIG    1       29.849 -18.367  10.452  0.00  0.00    +0.295 HD
ENDBRANCH  17  19
ENDBRANCH  16  17
ENDBRANCH   4  16
TORSDOF 5
ENDMDL
MODEL 4
REMARK VINA RESULT:      -7.9      2.719      7.729
REMARK  Name = *****
REMARK                            x       y       z     vdW  Elec       q    Type
REMARK                         _______ _______ _______ _____ _____    ______ ____
ROOT
ATOM      1  C   LIG    1       29.586 -19.605   6.913  0.00  0.00    +0.090 C 
ATOM      2  N   LIG    1       28.944 -20.704   7.481  0.00  0.00    -0.344 NA
ATOM      3  C   LIG    1       29.437 -21.504   8.589  0.00  0.00    +0.149 C 
ATOM      4  C   LIG    1       27.718 -20.916   6.859  0.00  0.00    +0.030 C 
ATOM      5  C   LIG    1       27.568 -19.928   5.905  0.00  0.00    +0.024 C 
ATOM      6  C   LIG    1       28.736 -19.138   5.916  0.00  0.00    +0.031 C 
ENDROOT
BRANCH   1   7
ATOM      7  C   LIG    1       30.909 -19.074   7.267  0.00  0.00    +0.209 C 
ATOM      8  O   LIG    1       31.915 -19.276   6.580  0.00  0.00    -0.285 OA
BRANCH   7  13
ATOM      9  C   LIG    1       31.622 -16.067  12.214  0.00  0.00    +0.044 C 
ATOM     10  C   LIG    1       31.442 -16.807  10.919  0.00  0.00    -0.050 A 
ATOM     11  C   LIG    1       30.213 -17.408  10.624  0.00  0.00    +0.004 A 
ATOM     12  C   LIG    1       30.029 -18.109   9.427  0.00  0.00    +0.012 A 
ATOM     13  C   LIG    1       31.080 -18.249   8.511  0.00  0.00    +0.024 A 
ATOM     14  C   LIG    1       32.320 -17.668   8.817  0.00  0.00    +0.012 A 
ATOM     15  C   LIG    1       32.488 -16.927   9.997  0.00  0.00    +0.004 A 
ENDBRANCH   7  13
ENDBRANCH   1   7
BRANCH   4  16
ATOM     16  C   LIG    1       26.751 -22.024   7.200  0.00  0.00    +0.173 C 
BRANCH  16  17
ATOM     17  C   LIG    1       25.650 -21.603   8.160  0.00  0.00    +0.310 C 
ATOM     18  O   LIG    1       24.486 -21.960   8.027  0.00  0.00    -0.251 OA
BRANCH  17  19
ATOM     19  O   LIG    1       26.044 -20.882   9.234  0.00  0.00    -0.480 OA
ATOM     20  H   LIG    1       25.848 -21.313  10.087  0.00  0.00    +0.295 HD
ENDBRANCH  17  19
ENDBRANCH  16  17
ENDBRANCH   4  16
TORSDOF 5
ENDMDL
MODEL 5
REMARK VINA RESULT:      -7.8      1.056      1.674
REMARK  Name = *****
REMARK                            x       y       z     vdW  Elec       q    Type
REMARK                         _______ _______ _______ _____ _____    ______ ____
ROOT
ATOM      1  C   LIG    1       26.910 -20.636   6.929  0.00  0.00    +0.090 C 
ATOM      2  N   LIG    1       28.221 -20.654   7.402  0.00  0.00    -0.344 NA
ATOM      3  C   LIG    1       28.692 -21.345   8.590  0.00  0.00    +0.149 C 
ATOM      4  C   LIG    1       29.049 -19.940   6.542  0.00  0.00    +0.030 C 
ATOM      5  C   LIG    1       28.263 -19.485   5.502  0.00  0.00    +0.024 C 
ATOM      6  C   LIG    1       26.936 -19.888   5.758  0.00  0.00    +0.031 C 
ENDROOT
BRANCH   1   7
ATOM      7  C   LIG    1       25.734 -21.247   7.562  0.00  0.00    +0.209 C 
ATOM      8  O   LIG    1       25.049 -20.660   8.405  0.00  0.00    -0.285 OA
BRANCH   7  13
ATOM      9  C   LIG    1       24.131 -26.604   5.902  0.00  0.00    +0.044 C 
ATOM     10  C   LIG    1       24.556 -25.240   6.365  0.00  0.00    -0.050 A 
ATOM     11  C   LIG    1       23.595 -24.244   6.575  0.00  0.00    +0.004 A 
ATOM     12  C   LIG    1       23.972 -22.964   6.997  0.00  0.00    +0.012 A 
ATOM     13  C   LIG    1       25.322 -22.644   7.192  0.00  0.00    +0.024 A 
ATOM     14  C   LIG    1       26.289 -23.635   6.958  0.00  0.00    +0.012 A 
ATOM     15  C   LIG    1       25.904 -24.930   6.579  0.00  0.00    +0.004 A 
ENDBRANCH   7  13
ENDBRANCH   1   7
BRANCH   4  16
ATOM     16  C   LIG    1       30.532 -19.733   6.738  0.00  0.00    +0.173 C 
BRANCH  16  17
ATOM     17  C   LIG    1       30.878 -18.864   7.937  0.00  0.00    +0.310 C 
ATOM     18  O   LIG    1       30.200 -17.902   8.271  0.00  0.00    -0.251 OA
BRANCH  17  19
ATOM     19  O   LIG    1       31.934 -19.270   8.677  0.00  0.00    -0.480 OA
ATOM     20  H   LIG    1       32.031 -18.784   9.517  0.00  0.00    +0.295 HD
ENDBRANCH  17  19
ENDBRANCH  16  17
ENDBRANCH   4  16
TORSDOF 5
ENDMDL
MODEL 6
REMARK VINA RESULT:      -7.8      5.094      8.661
REMARK  Name = *****
REMARK                            x       y       z     vdW  Elec       q    Type
REMARK                         _______ _______ _______ _____ _____    ______ ____
ROOT
ATOM      1  C   LIG    1       25.281 -27.772   6.386  0.00  0.00    +0.090 C 
ATOM      2  N   LIG    1       25.436 -28.586   7.507  0.00  0.00    -0.344 NA
ATOM      3  C   LIG    1       26.234 -28.282   8.682  0.00  0.00    +0.149 C 
ATOM      4  C   LIG    1       24.672 -29.741   7.368  0.00  0.00    +0.030 C 
ATOM      5  C   LIG    1       24.008 -29.648   6.160  0.00  0.00    +0.024 C 
ATOM      6  C   LIG    1       24.409 -28.448   5.539  0.00  0.00    +0.031 C 
ENDROOT
BRANCH   1   7
ATOM      7  C   LIG    1       25.939 -26.484   6.132  0.00  0.00    +0.209 C 
ATOM      8  O   LIG    1       27.057 -26.395   5.616  0.00  0.00    -0.285 OA
BRANCH   7  13
ATOM      9  C   LIG    1       23.309 -21.428   7.376  0.00  0.00    +0.044 C 
ATOM     10  C   LIG    1       23.968 -22.747   7.088  0.00  0.00    -0.050 A 
ATOM     11  C   LIG    1       25.356 -22.875   7.210  0.00  0.00    +0.004 A 
ATOM     12  C   LIG    1       25.989 -24.092   6.938  0.00  0.00    +0.012 A 
ATOM     13  C   LIG    1       25.251 -25.202   6.508  0.00  0.00    +0.024 A 
ATOM     14  C   LIG    1       23.861 -25.069   6.361  0.00  0.00    +0.012 A 
ATOM     15  C   LIG    1       23.224 -23.859   6.679  0.00  0.00    +0.004 A 
ENDBRANCH   7  13
ENDBRANCH   1   7
BRANCH   4  16
ATOM     16  C   LIG    1       24.599 -30.861   8.378  0.00  0.00    +0.173 C 
BRANCH  16  17
ATOM     17  C   LIG    1       25.757 -31.842   8.292  0.00  0.00    +0.310 C 
ATOM     18  O   LIG    1       25.767 -32.905   8.898  0.00  0.00    -0.251 OA
BRANCH  17  19
ATOM     19  O   LIG    1       26.745 -31.517   7.428  0.00  0.00    -0.480 OA
ATOM     20  H   LIG    1       27.439 -30.956   7.822  0.00  0.00    +0.295 HD
ENDBRANCH  17  19
ENDBRANCH  16  17
ENDBRANCH   4  16
TORSDOF 5
ENDMDL
MODEL 7
REMARK VINA RESULT:      -7.7      1.090      2.109
REMARK  Name = *****
REMARK                            x       y       z     vdW  Elec       q    Type
REMARK                         _______ _______ _______ _____ _____    ______ ____
ROOT
ATOM      1  C   LIG    1       26.206 -20.578   6.339  0.00  0.00    +0.090 C 
ATOM      2  N   LIG    1       27.017 -20.339   7.446  0.00  0.00    -0.344 NA
ATOM      3  C   LIG    1       26.710 -20.689   8.823  0.00  0.00    +0.149 C 
ATOM      4  C   LIG    1       28.208 -19.743   7.047  0.00  0.00    +0.030 C 
ATOM      5  C   LIG    1       28.165 -19.625   5.671  0.00  0.00    +0.024 C 
ATOM      6  C   LIG    1       26.914 -20.111   5.237  0.00  0.00    +0.031 C 
ENDROOT
BRANCH   1   7
ATOM      7  C   LIG    1       24.859 -21.164   6.339  0.00  0.00    +0.209 C 
ATOM      8  O   LIG    1       23.832 -20.479   6.385  0.00  0.00    -0.285 OA
BRANCH   7  13
ATOM      9  C   LIG    1       24.262 -26.966   6.357  0.00  0.00    +0.044 C 
ATOM     10  C   LIG    1       24.394 -25.470   6.319  0.00  0.00    -0.050 A 
ATOM     11  C   LIG    1       25.643 -24.885   6.085  0.00  0.00    +0.004 A 
ATOM     12  C   LIG    1       25.787 -23.494   6.054  0.00  0.00    +0.012 A 
ATOM     13  C   LIG    1       24.689 -22.656   6.286  0.00  0.00    +0.024 A 
ATOM     14  C   LIG    1       23.439 -23.241   6.545  0.00  0.00    +0.012 A 
ATOM     15  C   LIG    1       23.290 -24.637   6.530  0.00  0.00    +0.004 A 
ENDBRANCH   7  13
ENDBRANCH   1   7
BRANCH   4  16
ATOM     16  C   LIG    1       29.326 -19.328   7.974  0.00  0.00    +0.173 C 
BRANCH  16  17
ATOM     17  C   LIG    1       30.410 -20.380   8.138  0.00  0.00    +0.310 C 
ATOM     18  O   LIG    1       30.256 -21.386   8.818  0.00  0.00    -0.251 OA
BRANCH  17  19
ATOM     19  O   LIG    1       31.534 -20.191   7.410  0.00  0.00    -0.480 OA
ATOM     20  H   LIG    1       31.846 -19.267   7.407  0.00  0.00    +0.295 HD
ENDBRANCH  17  19
ENDBRANCH  16  17
ENDBRANCH   4  16
TORSDOF 5
ENDMDL
MODEL 8
REMARK VINA RESULT:      -7.7      4.677      8.682
REMARK  Name = *****
REMARK                            x       y       z     vdW  Elec       q    Type
REMARK                         _______ _______ _______ _____ _____    ______ ____
ROOT
ATOM      1  C   LIG    1       25.258 -27.770   6.408  0.00  0.00    +0.090 C 
ATOM      2  N   LIG    1       25.415 -28.562   7.544  0.00  0.00    -0.344 NA
ATOM      3  C   LIG    1       26.218 -28.236   8.710  0.00  0.00    +0.149 C 
ATOM      4  C   LIG    1       24.650 -29.718   7.430  0.00  0.00    +0.030 C 
ATOM      5  C   LIG    1       23.981 -29.648   6.223  0.00  0.00    +0.024 C 
ATOM      6  C   LIG    1       24.382 -28.460   5.578  0.00  0.00    +0.031 C 
ENDROOT
BRANCH   1   7
ATOM      7  C   LIG    1       25.917 -26.488   6.127  0.00  0.00    +0.209 C 
ATOM      8  O   LIG    1       27.027 -26.410   5.592  0.00  0.00    -0.285 OA
BRANCH   7  13
ATOM      9  C   LIG    1       23.328 -21.405   7.344  0.00  0.00    +0.044 C 
ATOM     10  C   LIG    1       23.977 -22.730   7.063  0.00  0.00    -0.050 A 
ATOM     11  C   LIG    1       25.365 -22.864   7.172  0.00  0.00    +0.004 A 
ATOM     12  C   LIG    1       25.989 -24.088   6.905  0.00  0.00    +0.012 A 
ATOM     13  C   LIG    1       25.240 -25.198   6.496  0.00  0.00    +0.024 A 
ATOM     14  C   LIG    1       23.849 -25.059   6.363  0.00  0.00    +0.012 A 
ATOM     15  C   LIG    1       23.222 -23.843   6.676  0.00  0.00    +0.004 A 
ENDBRANCH   7  13
ENDBRANCH   1   7
BRANCH   4  16
ATOM     16  C   LIG    1       24.578 -30.818   8.462  0.00  0.00    +0.173 C 
BRANCH  16  17
ATOM     17  C   LIG    1       23.534 -30.580   9.541  0.00  0.00    +0.310 C 
ATOM     18  O   LIG    1       22.355 -30.872   9.395  0.00  0.00    -0.251 OA
BRANCH  17  19
ATOM     19  O   LIG    1       23.999 -30.107  10.720  0.00  0.00    -0.480 OA
ATOM     20  H   LIG    1       23.907 -30.738  11.457  0.00  0.00    +0.295 HD
ENDBRANCH  17  19
ENDBRANCH  16  17
ENDBRANCH   4  16
TORSDOF 5
ENDMDL
MODEL 9
REMARK VINA RESULT:      -7.7      2.757      7.706
REMARK  Name = *****
REMARK                            x       y       z     vdW  Elec       q    Type
REMARK                         _______ _______ _______ _____ _____    ______ ____
ROOT
ATOM      1  C   LIG    1       29.677 -19.886   7.145  0.00  0.00    +0.090 C 
ATOM      2  N   LIG    1       28.754 -19.451   6.196  0.00  0.00    -0.344 NA
ATOM      3  C   LIG    1       28.932 -18.340   5.277  0.00  0.00    +0.149 C 
ATOM      4  C   LIG    1       27.627 -20.266   6.216  0.00  0.00    +0.030 C 
ATOM      5  C   LIG    1       27.846 -21.243   7.168  0.00  0.00    +0.024 C 
ATOM      6  C   LIG    1       29.098 -20.989   7.764  0.00  0.00    +0.031 C 
ENDROOT
BRANCH   1   7
ATOM      7  C   LIG    1       30.977 -19.279   7.458  0.00  0.00    +0.209 C 
ATOM      8  O   LIG    1       31.964 -19.398   6.724  0.00  0.00    -0.285 OA
BRANCH   7  13
ATOM      9  C   LIG    1       31.578 -15.975  12.227  0.00  0.00    +0.044 C 
ATOM     10  C   LIG    1       31.422 -16.859  11.022  0.00  0.00    -0.050 A 
ATOM     11  C   LIG    1       32.467 -16.970  10.099  0.00  0.00    +0.004 A 
ATOM     12  C   LIG    1       32.338 -17.781   8.966  0.00  0.00    +0.012 A 
ATOM     13  C   LIG    1       31.148 -18.477   8.717  0.00  0.00    +0.024 A 
ATOM     14  C   LIG    1       30.089 -18.347   9.630  0.00  0.00    +0.012 A 
ATOM     15  C   LIG    1       30.239 -17.569  10.788  0.00  0.00    +0.004 A 
ENDBRANCH   7  13
ENDBRANCH   1   7
BRANCH   4  16
ATOM     16  C   LIG    1       26.413 -20.092   5.334  0.00  0.00    +0.173 C 
BRANCH  16  17
ATOM     17  C   LIG    1       25.247 -20.991   5.712  0.00  0.00    +0.310 C 
ATOM     18  O   LIG    1       24.396 -20.660   6.526  0.00  0.00    -0.251 OA
BRANCH  17  19
ATOM     19  O   LIG    1       25.146 -22.151   5.024  0.00  0.00    -0.480 OA
ATOM     20  H   LIG    1       24.660 -22.847   5.503  0.00  0.00    +0.295 HD
ENDBRANCH  17  19
ENDBRANCH  16  17
ENDBRANCH   4  16
TORSDOF 5
ENDMDL
