MODEL 1
REMARK VINA RESULT:      -9.6      0.000      0.000
REMARK  Name = *****
REMARK                            x       y       z     vdW  Elec       q    Type
REMARK                         _______ _______ _______ _____ _____    ______ ____
ROOT
ATOM      1  C   LIG    1       24.445 -21.956   5.545  0.00  0.00    +0.080 A 
ATOM      2  C   LIG    1       25.075 -20.698   5.750  0.00  0.00    +0.009 A 
ATOM      3  C   LIG    1       24.318 -19.552   5.380  0.00  0.00    +0.032 A 
ATOM      4  C   LIG    1       23.026 -19.648   4.883  0.00  0.00    +0.060 A 
ATOM      5 CL   LIG    1       22.130 -18.242   4.484  0.00  0.00    -0.082 Cl
ATOM      6  C   LIG    1       22.496 -20.902   4.727  0.00  0.00    +0.131 A 
ATOM      7  N   LIG    1       23.172 -22.032   5.032  0.00  0.00    -0.253 NA
ENDROOT
BRANCH   1  12
ATOM      8  C   LIG    1       26.035 -27.390   6.801  0.00  0.00    +0.065 C 
ATOM      9  C   LIG    1       25.724 -25.966   6.437  0.00  0.00    +0.038 A 
ATOM     10  N   LIG    1       25.815 -25.023   7.403  0.00  0.00    -0.260 NA
ATOM     11  C   LIG    1       25.422 -23.751   7.092  0.00  0.00    +0.121 A 
ATOM     12  C   LIG    1       24.962 -23.325   5.849  0.00  0.00    +0.019 A 
ATOM     13  C   LIG    1       24.905 -24.345   4.875  0.00  0.00    +0.013 A 
ATOM     14  C   LIG    1       25.271 -25.663   5.163  0.00  0.00    +0.024 A 
ENDBRANCH   1  12
BRANCH   2  15
ATOM     15  C   LIG    1       26.434 -20.439   6.303  0.00  0.00    -0.016 A 
ATOM     16  C   LIG    1       26.669 -20.528   7.699  0.00  0.00    +0.010 A 
ATOM     17  C   LIG    1       27.918 -20.257   8.267  0.00  0.00    +0.027 A 
ATOM     18  C   LIG    1       28.983 -19.936   7.433  0.00  0.00    +0.088 A 
ATOM     19  C   LIG    1       28.786 -19.813   6.056  0.00  0.00    +0.027 A 
ATOM     20  C   LIG    1       27.515 -20.033   5.506  0.00  0.00    +0.010 A 
BRANCH  18  21
ATOM     21  S   LIG    1       30.593 -19.638   8.126  0.00  0.00    -0.006 S 
ATOM     22  O   LIG    1       31.554 -19.675   7.034  0.00  0.00    -0.170 OA
ATOM     23  O   LIG    1       30.743 -20.505   9.275  0.00  0.00    -0.170 OA
ATOM     24  C   LIG    1       30.479 -17.964   8.701  0.00  0.00    +0.200 C 
ENDBRANCH  18  21
ENDBRANCH   2  15
TORSDOF 3
ENDMDL
MODEL 2
REMARK VINA RESULT:      -9.1      2.574      4.813
REMARK  Name = *****
REMARK                            x       y       z     vdW  Elec       q    Type
REMARK                         _______ _______ _______ _____ _____    ______ ____
ROOT
ATOM      1  C   LIG    1       24.694 -22.785   6.056  0.00  0.00    +0.080 A 
ATOM      2  C   LIG    1       25.913 -22.983   6.759  0.00  0.00    +0.009 A 
ATOM      3  C   LIG    1       26.226 -24.327   7.101  0.00  0.00    +0.032 A 
ATOM      4  C   LIG    1       25.414 -25.391   6.738  0.00  0.00    +0.060 A 
ATOM      5 CL   LIG    1       25.844 -27.003   7.134  0.00  0.00    -0.082 Cl
ATOM      6  C   LIG    1       24.261 -25.107   6.053  0.00  0.00    +0.131 A 
ATOM      7  N   LIG    1       23.890 -23.849   5.723  0.00  0.00    -0.253 NA
ENDROOT
BRANCH   1  12
ATOM      8  C   LIG    1       22.043 -18.076   3.950  0.00  0.00    +0.065 C 
ATOM      9  C   LIG    1       22.803 -19.229   4.541  0.00  0.00    +0.038 A 
ATOM     10  N   LIG    1       23.695 -19.877   3.756  0.00  0.00    -0.260 NA
ATOM     11  C   LIG    1       24.299 -20.993   4.266  0.00  0.00    +0.121 A 
ATOM     12  C   LIG    1       24.103 -21.512   5.543  0.00  0.00    +0.019 A 
ATOM     13  C   LIG    1       23.177 -20.786   6.322  0.00  0.00    +0.013 A 
ATOM     14  C   LIG    1       22.518 -19.657   5.827  0.00  0.00    +0.024 A 
ENDBRANCH   1  12
BRANCH   2  15
ATOM     15  C   LIG    1       26.899 -21.948   7.184  0.00  0.00    -0.016 A 
ATOM     16  C   LIG    1       28.262 -22.064   6.813  0.00  0.00    +0.010 A 
ATOM     17  C   LIG    1       29.229 -21.138   7.220  0.00  0.00    +0.027 A 
ATOM     18  C   LIG    1       28.836 -20.038   7.972  0.00  0.00    +0.088 A 
ATOM     19  C   LIG    1       27.507 -19.903   8.379  0.00  0.00    +0.027 A 
ATOM     20  C   LIG    1       26.558 -20.868   8.011  0.00  0.00    +0.010 A 
BRANCH  18  21
ATOM     21  S   LIG    1       30.037 -18.820   8.457  0.00  0.00    -0.006 S 
ATOM     22  O   LIG    1       29.568 -18.210   9.693  0.00  0.00    -0.170 OA
ATOM     23  O   LIG    1       30.332 -18.010   7.296  0.00  0.00    -0.170 OA
ATOM     24  C   LIG    1       31.469 -19.797   8.836  0.00  0.00    +0.200 C 
ENDBRANCH  18  21
ENDBRANCH   2  15
TORSDOF 3
ENDMDL
MODEL 3
REMARK VINA RESULT:      -7.7      5.635      8.231
REMARK  Name = *****
REMARK                            x       y       z     vdW  Elec       q    Type
REMARK                         _______ _______ _______ _____ _____    ______ ____
ROOT
ATOM      1  C   LIG    1       25.588 -29.844   7.791  0.00  0.00    +0.080 A 
ATOM      2  C   LIG    1       25.466 -29.079   6.600  0.00  0.00    +0.009 A 
ATOM      3  C   LIG    1       25.481 -29.812   5.382  0.00  0.00    +0.032 A 
ATOM      4  C   LIG    1       25.571 -31.197   5.353  0.00  0.00    +0.060 A 
ATOM      5 CL   LIG    1       25.546 -32.050   3.866  0.00  0.00    -0.082 Cl
ATOM      6  C   LIG    1       25.676 -31.852   6.552  0.00  0.00    +0.131 A 
ATOM      7  N   LIG    1       25.697 -31.213   7.743  0.00  0.00    -0.253 NA
ENDROOT
BRANCH   1  12
ATOM      8  C   LIG    1       25.860 -28.351  13.389  0.00  0.00    +0.065 C 
ATOM      9  C   LIG    1       25.737 -28.643  11.921  0.00  0.00    +0.038 A 
ATOM     10  N   LIG    1       24.719 -29.434  11.509  0.00  0.00    -0.260 NA
ATOM     11  C   LIG    1       24.681 -29.786  10.188  0.00  0.00    +0.121 A 
ATOM     12  C   LIG    1       25.584 -29.377   9.211  0.00  0.00    +0.019 A 
ATOM     13  C   LIG    1       26.613 -28.540   9.694  0.00  0.00    +0.013 A 
ATOM     14  C   LIG    1       26.703 -28.181  11.042  0.00  0.00    +0.024 A 
ENDBRANCH   1  12
BRANCH   2  15
ATOM     15  C   LIG    1       25.328 -27.600   6.476  0.00  0.00    -0.016 A 
ATOM     16  C   LIG    1       24.081 -27.024   6.124  0.00  0.00    +0.010 A 
ATOM     17  C   LIG    1       23.913 -25.645   5.960  0.00  0.00    +0.027 A 
ATOM     18  C   LIG    1       24.992 -24.801   6.197  0.00  0.00    +0.088 A 
ATOM     19  C   LIG    1       26.243 -25.332   6.520  0.00  0.00    +0.027 A 
ATOM     20  C   LIG    1       26.410 -26.720   6.627  0.00  0.00    +0.010 A 
BRANCH  18  21
ATOM     21  S   LIG    1       24.791 -23.041   6.046  0.00  0.00    -0.006 S 
ATOM     22  O   LIG    1       24.643 -22.737   4.630  0.00  0.00    -0.170 OA
ATOM     23  O   LIG    1       25.827 -22.413   6.835  0.00  0.00    -0.170 OA
ATOM     24  C   LIG    1       23.230 -22.746   6.836  0.00  0.00    +0.200 C 
ENDBRANCH  18  21
ENDBRANCH   2  15
TORSDOF 3
ENDMDL
MODEL 4
REMARK VINA RESULT:      -7.2      5.999      9.238
REMARK  Name = *****
REMARK                            x       y       z     vdW  Elec       q    Type
REMARK                         _______ _______ _______ _____ _____    ______ ____
ROOT
ATOM      1  C   LIG    1       25.396 -29.137   6.539  0.00  0.00    +0.080 A 
ATOM      2  C   LIG    1       25.595 -29.914   7.712  0.00  0.00    +0.009 A 
ATOM      3  C   LIG    1       25.781 -31.310   7.513  0.00  0.00    +0.032 A 
ATOM      4  C   LIG    1       25.806 -31.879   6.248  0.00  0.00    +0.060 A 
ATOM      5 CL   LIG    1       26.073 -33.561   6.045  0.00  0.00    -0.082 Cl
ATOM      6  C   LIG    1       25.615 -31.051   5.173  0.00  0.00    +0.131 A 
ATOM      7  N   LIG    1       25.403 -29.721   5.295  0.00  0.00    -0.253 NA
ENDROOT
BRANCH   1  12
ATOM      8  C   LIG    1       24.528 -23.403   6.481  0.00  0.00    +0.065 C 
ATOM      9  C   LIG    1       24.797 -24.878   6.397  0.00  0.00    +0.038 A 
ATOM     10  N   LIG    1       23.789 -25.691   6.005  0.00  0.00    -0.260 NA
ATOM     11  C   LIG    1       24.008 -27.040   6.039  0.00  0.00    +0.121 A 
ATOM     12  C   LIG    1       25.197 -27.661   6.414  0.00  0.00    +0.019 A 
ATOM     13  C   LIG    1       26.218 -26.764   6.796  0.00  0.00    +0.013 A 
ATOM     14  C   LIG    1       26.023 -25.380   6.801  0.00  0.00    +0.024 A 
ENDBRANCH   1  12
BRANCH   2  15
ATOM     15  C   LIG    1       25.628 -29.440   9.125  0.00  0.00    -0.016 A 
ATOM     16  C   LIG    1       26.689 -28.618   9.580  0.00  0.00    +0.010 A 
ATOM     17  C   LIG    1       26.782 -28.181  10.906  0.00  0.00    +0.027 A 
ATOM     18  C   LIG    1       25.774 -28.522  11.800  0.00  0.00    +0.088 A 
ATOM     19  C   LIG    1       24.726 -29.351  11.397  0.00  0.00    +0.027 A 
ATOM     20  C   LIG    1       24.675 -29.828  10.079  0.00  0.00    +0.010 A 
BRANCH  18  21
ATOM     21  S   LIG    1       25.842 -27.935  13.478  0.00  0.00    -0.006 S 
ATOM     22  O   LIG    1       27.054 -27.141  13.616  0.00  0.00    -0.170 OA
ATOM     23  O   LIG    1       25.592 -29.064  14.347  0.00  0.00    -0.170 OA
ATOM     24  C   LIG    1       24.452 -26.837  13.575  0.00  0.00    +0.200 C 
ENDBRANCH  18  21
ENDBRANCH   2  15
TORSDOF 3
ENDMDL
MODEL 5
REMARK VINA RESULT:      -7.1      8.480     10.790
REMARK  Name = *****
REMARK                            x       y       z     vdW  Elec       q    Type
REMARK                         _______ _______ _______ _____ _____    ______ ____
ROOT
ATOM      1  C   LIG    1       25.634 -28.476  12.875  0.00  0.00    +0.080 A 
ATOM      2  C   LIG    1       26.400 -28.952  11.777  0.00  0.00    +0.009 A 
ATOM      3  C   LIG    1       27.740 -29.331  12.065  0.00  0.00    +0.032 A 
ATOM      4  C   LIG    1       28.263 -29.277  13.349  0.00  0.00    +0.060 A 
ATOM      5 CL   LIG    1       29.871 -29.779  13.666  0.00  0.00    -0.082 Cl
ATOM      6  C   LIG    1       27.449 -28.812  14.349  0.00  0.00    +0.131 A 
ATOM      7  N   LIG    1       26.176 -28.409  14.137  0.00  0.00    -0.253 NA
ENDROOT
BRANCH   1  12
ATOM      8  C   LIG    1       20.103 -26.817  13.411  0.00  0.00    +0.065 C 
ATOM      9  C   LIG    1       21.534 -27.204  13.172  0.00  0.00    +0.038 A 
ATOM     10  N   LIG    1       21.797 -28.466  12.760  0.00  0.00    -0.260 NA
ATOM     11  C   LIG    1       23.107 -28.842  12.653  0.00  0.00    +0.121 A 
ATOM     12  C   LIG    1       24.209 -28.028  12.902  0.00  0.00    +0.019 A 
ATOM     13  C   LIG    1       23.876 -26.719  13.311  0.00  0.00    +0.013 A 
ATOM     14  C   LIG    1       22.549 -26.305  13.459  0.00  0.00    +0.024 A 
ENDBRANCH   1  12
BRANCH   2  15
ATOM     15  C   LIG    1       25.965 -29.099  10.358  0.00  0.00    -0.016 A 
ATOM     16  C   LIG    1       26.484 -28.240   9.357  0.00  0.00    +0.010 A 
ATOM     17  C   LIG    1       26.078 -28.316   8.021  0.00  0.00    +0.027 A 
ATOM     18  C   LIG    1       25.170 -29.299   7.647  0.00  0.00    +0.088 A 
ATOM     19  C   LIG    1       24.615 -30.147   8.608  0.00  0.00    +0.027 A 
ATOM     20  C   LIG    1       24.990 -30.023   9.954  0.00  0.00    +0.010 A 
BRANCH  18  21
ATOM     21  S   LIG    1       24.676 -29.450   5.945  0.00  0.00    -0.006 S 
ATOM     22  O   LIG    1       23.319 -29.974   5.927  0.00  0.00    -0.170 OA
ATOM     23  O   LIG    1       25.742 -30.126   5.239  0.00  0.00    -0.170 OA
ATOM     24  C   LIG    1       24.622 -27.764   5.393  0.00  0.00    +0.200 C 
ENDBRANCH  18  21
ENDBRANCH   2  15
TORSDOF 3
ENDMDL
