MODEL 1
REMARK VINA RESULT:     -10.1      0.000      0.000
REMARK  Name = *****
REMARK                            x       y       z     vdW  Elec       q    Type
REMARK                         _______ _______ _______ _____ _____    ______ ____
ROOT
ATOM      1  C   LIG    1       29.486 -20.653   7.670  0.00  0.00    -0.032 C 
ATOM      2  C   LIG    1       29.217 -20.000   6.454  0.00  0.00    +0.030 C 
ATOM      3  C   LIG    1       27.914 -20.056   5.950  0.00  0.00    +0.048 C 
ATOM      4  N   LIG    1       27.389 -19.517   4.799  0.00  0.00    -0.354 NA
ATOM      5  H   LIG    1       27.916 -18.977   4.129  0.00  0.00    +0.166 HD
ATOM      6  C   LIG    1       26.056 -19.827   4.675  0.00  0.00    +0.048 C 
ATOM      7  C   LIG    1       25.703 -20.578   5.797  0.00  0.00    +0.009 C 
ATOM      8  C   LIG    1       24.372 -21.024   5.920  0.00  0.00    +0.030 C 
ATOM      9  C   LIG    1       23.455 -20.706   4.913  0.00  0.00    +0.042 C 
ATOM     10 CL   LIG    1       21.826 -21.250   5.054  0.00  0.00    -0.084 Cl
ATOM     11  C   LIG    1       23.835 -19.961   3.800  0.00  0.00    +0.022 C 
ATOM     12  C   LIG    1       25.148 -19.504   3.660  0.00  0.00    +0.027 C 
ATOM     13  C   LIG    1       26.879 -20.724   6.600  0.00  0.00    +0.007 C 
ATOM     14  C   LIG    1       27.159 -21.371   7.819  0.00  0.00    +0.011 C 
ATOM     15  C   LIG    1       28.459 -21.332   8.340  0.00  0.00    +0.005 C 
ENDROOT
BRANCH   1  17
ATOM     16  C   LIG    1       31.026 -19.320   9.142  0.00  0.00    +0.024 C 
ATOM     17  C   LIG    1       30.875 -20.587   8.293  0.00  0.00    +0.124 C 
BRANCH  17  18
ATOM     18  C   LIG    1       31.246 -21.824   9.113  0.00  0.00    +0.312 C 
ATOM     19  O   LIG    1       30.847 -22.024  10.254  0.00  0.00    -0.250 OA
BRANCH  18  20
ATOM     20  O   LIG    1       32.117 -22.677   8.524  0.00  0.00    -0.480 OA
ATOM     21  H   LIG    1       31.745 -23.197   7.785  0.00  0.00    +0.295 HD
ENDBRANCH  18  20
ENDBRANCH  17  18
ENDBRANCH   1  17
TORSDOF 3
ENDMDL
MODEL 2
REMARK VINA RESULT:      -9.6      1.348      2.212
REMARK  Name = *****
REMARK                            x       y       z     vdW  Elec       q    Type
REMARK                         _______ _______ _______ _____ _____    ______ ____
ROOT
ATOM      1  C   LIG    1       29.597 -20.588   7.681  0.00  0.00    -0.032 C 
ATOM      2  C   LIG    1       28.633 -21.425   8.271  0.00  0.00    +0.030 C 
ATOM      3  C   LIG    1       27.333 -21.395   7.759  0.00  0.00    +0.048 C 
ATOM      4  N   LIG    1       26.215 -22.096   8.146  0.00  0.00    -0.354 NA
ATOM      5  H   LIG    1       26.193 -22.766   8.902  0.00  0.00    +0.166 HD
ATOM      6  C   LIG    1       25.128 -21.751   7.380  0.00  0.00    +0.048 C 
ATOM      7  C   LIG    1       25.564 -20.806   6.451  0.00  0.00    +0.009 C 
ATOM      8  C   LIG    1       24.634 -20.284   5.529  0.00  0.00    +0.030 C 
ATOM      9  C   LIG    1       23.308 -20.725   5.582  0.00  0.00    +0.042 C 
ATOM     10 CL   LIG    1       22.164 -20.091   4.461  0.00  0.00    -0.084 Cl
ATOM     11  C   LIG    1       22.897 -21.665   6.524  0.00  0.00    +0.022 C 
ATOM     12  C   LIG    1       23.803 -22.199   7.444  0.00  0.00    +0.027 C 
ATOM     13  C   LIG    1       26.957 -20.580   6.694  0.00  0.00    +0.007 C 
ATOM     14  C   LIG    1       27.932 -19.749   6.108  0.00  0.00    +0.011 C 
ATOM     15  C   LIG    1       29.240 -19.759   6.608  0.00  0.00    +0.005 C 
ENDROOT
BRANCH   1  17
ATOM     16  C   LIG    1       31.397 -19.299   8.870  0.00  0.00    +0.024 C 
ATOM     17  C   LIG    1       31.042 -20.613   8.165  0.00  0.00    +0.124 C 
BRANCH  17  18
ATOM     18  C   LIG    1       31.372 -21.805   9.065  0.00  0.00    +0.312 C 
ATOM     19  O   LIG    1       31.013 -21.891  10.233  0.00  0.00    -0.250 OA
BRANCH  18  20
ATOM     20  O   LIG    1       32.163 -22.754   8.512  0.00  0.00    -0.480 OA
ATOM     21  H   LIG    1       32.744 -23.222   9.143  0.00  0.00    +0.295 HD
ENDBRANCH  18  20
ENDBRANCH  17  18
ENDBRANCH   1  17
TORSDOF 3
ENDMDL
MODEL 3
REMARK VINA RESULT:      -9.6      4.104      6.466
REMARK  Name = *****
REMARK                            x       y       z     vdW  Elec       q    Type
REMARK                         _______ _______ _______ _____ _____    ______ ____
ROOT
ATOM      1  C   LIG    1       24.557 -21.192   7.019  0.00  0.00    -0.032 C 
ATOM      2  C   LIG    1       25.425 -20.884   5.956  0.00  0.00    +0.030 C 
ATOM      3  C   LIG    1       26.710 -20.427   6.267  0.00  0.00    +0.048 C 
ATOM      4  N   LIG    1       27.740 -20.057   5.435  0.00  0.00    -0.354 NA
ATOM      5  H   LIG    1       27.693 -20.070   4.426  0.00  0.00    +0.166 HD
ATOM      6  C   LIG    1       28.835 -19.651   6.159  0.00  0.00    +0.048 C 
ATOM      7  C   LIG    1       28.506 -19.782   7.508  0.00  0.00    +0.009 C 
ATOM      8  C   LIG    1       29.470 -19.432   8.476  0.00  0.00    +0.030 C 
ATOM      9  C   LIG    1       30.716 -18.961   8.051  0.00  0.00    +0.042 C 
ATOM     10 CL   LIG    1       31.899 -18.528   9.226  0.00  0.00    -0.084 Cl
ATOM     11  C   LIG    1       31.017 -18.833   6.697  0.00  0.00    +0.022 C 
ATOM     12  C   LIG    1       30.078 -19.179   5.721  0.00  0.00    +0.027 C 
ATOM     13  C   LIG    1       27.162 -20.270   7.575  0.00  0.00    +0.007 C 
ATOM     14  C   LIG    1       26.285 -20.585   8.631  0.00  0.00    +0.011 C 
ATOM     15  C   LIG    1       24.992 -21.039   8.343  0.00  0.00    +0.005 C 
ENDROOT
BRANCH   1  17
ATOM     16  C   LIG    1       22.606 -21.164   5.436  0.00  0.00    +0.024 C 
ATOM     17  C   LIG    1       23.162 -21.739   6.743  0.00  0.00    +0.124 C 
BRANCH  17  18
ATOM     18  C   LIG    1       23.089 -23.267   6.725  0.00  0.00    +0.312 C 
ATOM     19  O   LIG    1       24.076 -23.992   6.765  0.00  0.00    -0.250 OA
BRANCH  18  20
ATOM     20  O   LIG    1       21.849 -23.792   6.587  0.00  0.00    -0.480 OA
ATOM     21  H   LIG    1       21.158 -23.356   7.123  0.00  0.00    +0.295 HD
ENDBRANCH  18  20
ENDBRANCH  17  18
ENDBRANCH   1  17
TORSDOF 3
ENDMDL
MODEL 4
REMARK VINA RESULT:      -9.2      4.417      6.762
REMARK  Name = *****
REMARK                            x       y       z     vdW  Elec       q    Type
REMARK                         _______ _______ _______ _____ _____    ______ ____
ROOT
ATOM      1  C   LIG    1       24.805 -21.316   6.450  0.00  0.00    -0.032 C 
ATOM      2  C   LIG    1       25.847 -20.986   5.565  0.00  0.00    +0.030 C 
ATOM      3  C   LIG    1       27.028 -20.465   6.102  0.00  0.00    +0.048 C 
ATOM      4  N   LIG    1       28.182 -20.062   5.471  0.00  0.00    -0.354 NA
ATOM      5  H   LIG    1       28.329 -20.094   4.473  0.00  0.00    +0.166 HD
ATOM      6  C   LIG    1       29.100 -19.594   6.380  0.00  0.00    +0.048 C 
ATOM      7  C   LIG    1       28.526 -19.717   7.644  0.00  0.00    +0.009 C 
ATOM      8  C   LIG    1       29.271 -19.306   8.769  0.00  0.00    +0.030 C 
ATOM      9  C   LIG    1       30.554 -18.785   8.576  0.00  0.00    +0.042 C 
ATOM     10 CL   LIG    1       31.472 -18.279   9.944  0.00  0.00    -0.084 Cl
ATOM     11  C   LIG    1       31.102 -18.667   7.301  0.00  0.00    +0.022 C 
ATOM     12  C   LIG    1       30.383 -19.072   6.174  0.00  0.00    +0.027 C 
ATOM     13  C   LIG    1       27.215 -20.265   7.467  0.00  0.00    +0.007 C 
ATOM     14  C   LIG    1       26.167 -20.602   8.345  0.00  0.00    +0.011 C 
ATOM     15  C   LIG    1       24.972 -21.121   7.829  0.00  0.00    +0.005 C 
ENDROOT
BRANCH   1  17
ATOM     16  C   LIG    1       22.873 -22.829   6.994  0.00  0.00    +0.024 C 
ATOM     17  C   LIG    1       23.513 -21.931   5.928  0.00  0.00    +0.124 C 
BRANCH  17  18
ATOM     18  C   LIG    1       22.499 -20.903   5.422  0.00  0.00    +0.312 C 
ATOM     19  O   LIG    1       22.579 -19.703   5.652  0.00  0.00    -0.250 OA
BRANCH  18  20
ATOM     20  O   LIG    1       21.441 -21.410   4.745  0.00  0.00    -0.480 OA
ATOM     21  H   LIG    1       21.333 -22.378   4.819  0.00  0.00    +0.295 HD
ENDBRANCH  18  20
ENDBRANCH  17  18
ENDBRANCH   1  17
TORSDOF 3
ENDMDL
MODEL 5
REMARK VINA RESULT:      -8.7      2.748      3.173
REMARK  Name = *****
REMARK                            x       y       z     vdW  Elec       q    Type
REMARK                         _______ _______ _______ _____ _____    ______ ____
ROOT
ATOM      1  C   LIG    1       28.978 -19.854   7.894  0.00  0.00    -0.032 C 
ATOM      2  C   LIG    1       27.603 -19.580   8.004  0.00  0.00    +0.030 C 
ATOM      3  C   LIG    1       26.701 -20.608   7.711  0.00  0.00    +0.048 C 
ATOM      4  N   LIG    1       25.326 -20.609   7.734  0.00  0.00    -0.354 NA
ATOM      5  H   LIG    1       24.758 -19.812   7.981  0.00  0.00    +0.166 HD
ATOM      6  C   LIG    1       24.829 -21.834   7.359  0.00  0.00    +0.048 C 
ATOM      7  C   LIG    1       25.924 -22.660   7.103  0.00  0.00    +0.009 C 
ATOM      8  C   LIG    1       25.688 -23.990   6.700  0.00  0.00    +0.030 C 
ATOM      9  C   LIG    1       24.369 -24.432   6.564  0.00  0.00    +0.042 C 
ATOM     10 CL   LIG    1       24.070 -26.056   6.069  0.00  0.00    -0.084 Cl
ATOM     11  C   LIG    1       23.293 -23.586   6.820  0.00  0.00    +0.022 C 
ATOM     12  C   LIG    1       23.504 -22.265   7.225  0.00  0.00    +0.027 C 
ATOM     13  C   LIG    1       27.106 -21.883   7.324  0.00  0.00    +0.007 C 
ATOM     14  C   LIG    1       28.486 -22.147   7.221  0.00  0.00    +0.011 C 
ATOM     15  C   LIG    1       29.407 -21.130   7.504  0.00  0.00    +0.005 C 
ENDROOT
BRANCH   1  17
ATOM     16  C   LIG    1       29.728 -18.204   9.635  0.00  0.00    +0.024 C 
ATOM     17  C   LIG    1       30.008 -18.788   8.245  0.00  0.00    +0.124 C 
BRANCH  17  18
ATOM     18  C   LIG    1       31.456 -19.273   8.155  0.00  0.00    +0.312 C 
ATOM     19  O   LIG    1       32.111 -19.636   9.125  0.00  0.00    -0.250 OA
BRANCH  18  20
ATOM     20  O   LIG    1       32.017 -19.215   6.924  0.00  0.00    -0.480 OA
ATOM     21  H   LIG    1       32.379 -20.062   6.597  0.00  0.00    +0.295 HD
ENDBRANCH  18  20
ENDBRANCH  17  18
ENDBRANCH   1  17
TORSDOF 3
ENDMDL
MODEL 6
REMARK VINA RESULT:      -8.7      6.415      7.702
REMARK  Name = *****
REMARK                            x       y       z     vdW  Elec       q    Type
REMARK                         _______ _______ _______ _____ _____    ______ ____
ROOT
ATOM      1  C   LIG    1       24.900 -27.681   5.728  0.00  0.00    -0.032 C 
ATOM      2  C   LIG    1       23.827 -26.779   5.840  0.00  0.00    +0.030 C 
ATOM      3  C   LIG    1       24.109 -25.467   6.233  0.00  0.00    +0.048 C 
ATOM      4  N   LIG    1       23.261 -24.401   6.423  0.00  0.00    -0.354 NA
ATOM      5  H   LIG    1       22.261 -24.436   6.293  0.00  0.00    +0.166 HD
ATOM      6  C   LIG    1       23.955 -23.287   6.829  0.00  0.00    +0.048 C 
ATOM      7  C   LIG    1       25.303 -23.642   6.886  0.00  0.00    +0.009 C 
ATOM      8  C   LIG    1       26.243 -22.666   7.276  0.00  0.00    +0.030 C 
ATOM      9  C   LIG    1       25.792 -21.382   7.599  0.00  0.00    +0.042 C 
ATOM     10 CL   LIG    1       26.934 -20.184   8.079  0.00  0.00    -0.084 Cl
ATOM     11  C   LIG    1       24.440 -21.056   7.540  0.00  0.00    +0.022 C 
ATOM     12  C   LIG    1       23.491 -22.006   7.151  0.00  0.00    +0.027 C 
ATOM     13  C   LIG    1       25.399 -25.020   6.512  0.00  0.00    +0.007 C 
ATOM     14  C   LIG    1       26.465 -25.931   6.392  0.00  0.00    +0.011 C 
ATOM     15  C   LIG    1       26.206 -27.253   6.005  0.00  0.00    +0.005 C 
ENDROOT
BRANCH   1  17
ATOM     16  C   LIG    1       25.986 -29.785   4.885  0.00  0.00    +0.024 C 
ATOM     17  C   LIG    1       24.661 -29.111   5.258  0.00  0.00    +0.124 C 
BRANCH  17  18
ATOM     18  C   LIG    1       23.891 -29.971   6.261  0.00  0.00    +0.312 C 
ATOM     19  O   LIG    1       23.872 -29.752   7.466  0.00  0.00    -0.250 OA
BRANCH  18  20
ATOM     20  O   LIG    1       23.270 -31.058   5.745  0.00  0.00    -0.480 OA
ATOM     21  H   LIG    1       23.089 -31.771   6.389  0.00  0.00    +0.295 HD
ENDBRANCH  18  20
ENDBRANCH  17  18
ENDBRANCH   1  17
TORSDOF 3
ENDMDL
MODEL 7
REMARK VINA RESULT:      -8.6      4.278      6.397
REMARK  Name = *****
REMARK                            x       y       z     vdW  Elec       q    Type
REMARK                         _______ _______ _______ _____ _____    ______ ____
ROOT
ATOM      1  C   LIG    1       25.864 -22.157   7.370  0.00  0.00    -0.032 C 
ATOM      2  C   LIG    1       27.131 -22.231   6.763  0.00  0.00    +0.030 C 
ATOM      3  C   LIG    1       28.098 -21.296   7.144  0.00  0.00    +0.048 C 
ATOM      4  N   LIG    1       29.395 -21.142   6.712  0.00  0.00    -0.354 NA
ATOM      5  H   LIG    1       29.839 -21.725   6.018  0.00  0.00    +0.166 HD
ATOM      6  C   LIG    1       29.999 -20.079   7.339  0.00  0.00    +0.048 C 
ATOM      7  C   LIG    1       29.064 -19.538   8.222  0.00  0.00    +0.009 C 
ATOM      8  C   LIG    1       29.437 -18.425   9.003  0.00  0.00    +0.030 C 
ATOM      9  C   LIG    1       30.724 -17.899   8.861  0.00  0.00    +0.042 C 
ATOM     10 CL   LIG    1       31.187 -16.537   9.809  0.00  0.00    -0.084 Cl
ATOM     11  C   LIG    1       31.637 -18.454   7.967  0.00  0.00    +0.022 C 
ATOM     12  C   LIG    1       31.290 -19.560   7.187  0.00  0.00    +0.027 C 
ATOM     13  C   LIG    1       27.863 -20.307   8.096  0.00  0.00    +0.007 C 
ATOM     14  C   LIG    1       26.592 -20.245   8.700  0.00  0.00    +0.011 C 
ATOM     15  C   LIG    1       25.605 -21.169   8.330  0.00  0.00    +0.005 C 
ENDROOT
BRANCH   1  17
ATOM     16  C   LIG    1       23.398 -22.524   7.052  0.00  0.00    +0.024 C 
ATOM     17  C   LIG    1       24.784 -23.178   7.031  0.00  0.00    +0.124 C 
BRANCH  17  18
ATOM     18  C   LIG    1       25.012 -23.898   5.701  0.00  0.00    +0.312 C 
ATOM     19  O   LIG    1       25.527 -25.006   5.611  0.00  0.00    -0.250 OA
BRANCH  18  20
ATOM     20  O   LIG    1       24.669 -23.202   4.592  0.00  0.00    -0.480 OA
ATOM     21  H   LIG    1       25.363 -22.602   4.254  0.00  0.00    +0.295 HD
ENDBRANCH  18  20
ENDBRANCH  17  18
ENDBRANCH   1  17
TORSDOF 3
ENDMDL
MODEL 8
REMARK VINA RESULT:      -8.4      2.188      2.919
REMARK  Name = *****
REMARK                            x       y       z     vdW  Elec       q    Type
REMARK                         _______ _______ _______ _____ _____    ______ ____
ROOT
ATOM      1  C   LIG    1       29.514 -19.320   8.045  0.00  0.00    -0.032 C 
ATOM      2  C   LIG    1       28.340 -19.800   8.652  0.00  0.00    +0.030 C 
ATOM      3  C   LIG    1       27.266 -20.147   7.826  0.00  0.00    +0.048 C 
ATOM      4  N   LIG    1       26.021 -20.631   8.154  0.00  0.00    -0.354 NA
ATOM      5  H   LIG    1       25.706 -20.807   9.097  0.00  0.00    +0.166 HD
ATOM      6  C   LIG    1       25.258 -20.826   7.028  0.00  0.00    +0.048 C 
ATOM      7  C   LIG    1       26.045 -20.473   5.932  0.00  0.00    +0.009 C 
ATOM      8  C   LIG    1       25.495 -20.587   4.639  0.00  0.00    +0.030 C 
ATOM      9  C   LIG    1       24.180 -21.042   4.501  0.00  0.00    +0.042 C 
ATOM     10 CL   LIG    1       23.497 -21.181   2.925  0.00  0.00    -0.084 Cl
ATOM     11  C   LIG    1       23.412 -21.381   5.612  0.00  0.00    +0.022 C 
ATOM     12  C   LIG    1       23.940 -21.281   6.903  0.00  0.00    +0.027 C 
ATOM     13  C   LIG    1       27.313 -20.042   6.438  0.00  0.00    +0.007 C 
ATOM     14  C   LIG    1       28.495 -19.564   5.841  0.00  0.00    +0.011 C 
ATOM     15  C   LIG    1       29.582 -19.205   6.649  0.00  0.00    +0.005 C 
ENDROOT
BRANCH   1  17
ATOM     16  C   LIG    1       31.889 -18.498   8.000  0.00  0.00    +0.024 C 
ATOM     17  C   LIG    1       30.733 -18.970   8.889  0.00  0.00    +0.124 C 
BRANCH  17  18
ATOM     18  C   LIG    1       30.451 -17.941   9.985  0.00  0.00    +0.312 C 
ATOM     19  O   LIG    1       30.120 -16.784   9.759  0.00  0.00    -0.250 OA
BRANCH  18  20
ATOM     20  O   LIG    1       30.660 -18.366  11.254  0.00  0.00    -0.480 OA
ATOM     21  H   LIG    1       31.546 -18.743  11.419  0.00  0.00    +0.295 HD
ENDBRANCH  18  20
ENDBRANCH  17  18
ENDBRANCH   1  17
TORSDOF 3
ENDMDL
MODEL 9
REMARK VINA RESULT:      -8.1      4.393      6.900
REMARK  Name = *****
REMARK                            x       y       z     vdW  Elec       q    Type
REMARK                         _______ _______ _______ _____ _____    ______ ____
ROOT
ATOM      1  C   LIG    1       24.796 -20.729   5.338  0.00  0.00    -0.032 C 
ATOM      2  C   LIG    1       25.845 -19.887   4.927  0.00  0.00    +0.030 C 
ATOM      3  C   LIG    1       27.065 -19.977   5.603  0.00  0.00    +0.048 C 
ATOM      4  N   LIG    1       28.234 -19.278   5.410  0.00  0.00    -0.354 NA
ATOM      5  H   LIG    1       28.365 -18.565   4.708  0.00  0.00    +0.166 HD
ATOM      6  C   LIG    1       29.195 -19.669   6.312  0.00  0.00    +0.048 C 
ATOM      7  C   LIG    1       28.631 -20.670   7.103  0.00  0.00    +0.009 C 
ATOM      8  C   LIG    1       29.418 -21.254   8.117  0.00  0.00    +0.030 C 
ATOM      9  C   LIG    1       30.730 -20.806   8.298  0.00  0.00    +0.042 C 
ATOM     10 CL   LIG    1       31.699 -21.511   9.536  0.00  0.00    -0.084 Cl
ATOM     11  C   LIG    1       31.267 -19.800   7.498  0.00  0.00    +0.022 C 
ATOM     12  C   LIG    1       30.506 -19.211   6.484  0.00  0.00    +0.027 C 
ATOM     13  C   LIG    1       27.285 -20.861   6.656  0.00  0.00    +0.007 C 
ATOM     14  C   LIG    1       26.229 -21.703   7.057  0.00  0.00    +0.011 C 
ATOM     15  C   LIG    1       24.996 -21.626   6.397  0.00  0.00    +0.005 C 
ENDROOT
BRANCH   1  17
ATOM     16  C   LIG    1       22.383 -21.425   5.435  0.00  0.00    +0.024 C 
ATOM     17  C   LIG    1       23.459 -20.710   4.609  0.00  0.00    +0.124 C 
BRANCH  17  18
ATOM     18  C   LIG    1       22.986 -19.308   4.220  0.00  0.00    +0.312 C 
ATOM     19  O   LIG    1       23.319 -18.744   3.185  0.00  0.00    -0.250 OA
BRANCH  18  20
ATOM     20  O   LIG    1       22.215 -18.676   5.137  0.00  0.00    -0.480 OA
ATOM     21  H   LIG    1       21.440 -19.186   5.442  0.00  0.00    +0.295 HD
ENDBRANCH  18  20
ENDBRANCH  17  18
ENDBRANCH   1  17
TORSDOF 3
ENDMDL
