MODEL 1
REMARK VINA RESULT:      -8.2      0.000      0.000
REMARK  Name = *****
REMARK                            x       y       z     vdW  Elec       q    Type
REMARK                         _______ _______ _______ _____ _____    ______ ____
ROOT
ATOM      1  C   LIG    1       24.245 -22.644   7.078  0.00  0.00    +0.144 C 
ENDROOT
BRANCH   1   2
ATOM      2  C   LIG    1       23.655 -21.773   5.916  0.00  0.00    +0.072 C 
ATOM      3  N   LIG    1       24.635 -21.665   4.804  0.00  0.00    -0.312 NA
ATOM      4  H   LIG    1       25.474 -21.197   5.154  0.00  0.00    +0.122 HD
ATOM      5  C   LIG    1       24.108 -20.899   3.670  0.00  0.00    +0.081 C 
ATOM      6  C   LIG    1       23.688 -19.490   4.072  0.00  0.00    +0.015 C 
ATOM      7  C   LIG    1       22.652 -19.542   5.181  0.00  0.00    +0.003 C 
ATOM      8  C   LIG    1       23.176 -20.372   6.344  0.00  0.00    +0.020 C 
ENDBRANCH   1   2
BRANCH   1   9
ATOM      9  C   LIG    1       24.681 -24.059   6.706  0.00  0.00    -0.032 A 
ATOM     10  C   LIG    1       26.013 -24.485   6.835  0.00  0.00    +0.004 A 
ATOM     11  C   LIG    1       26.384 -25.788   6.510  0.00  0.00    +0.000 A 
ATOM     12  C   LIG    1       25.424 -26.700   6.082  0.00  0.00    +0.000 A 
ATOM     13  C   LIG    1       24.095 -26.301   5.962  0.00  0.00    +0.000 A 
ATOM     14  C   LIG    1       23.726 -24.988   6.264  0.00  0.00    +0.004 A 
ENDBRANCH   1   9
BRANCH   1  15
ATOM     15  C   LIG    1       25.374 -21.921   7.828  0.00  0.00    +0.316 C 
ATOM     16  O   LIG    1       25.421 -21.718   9.030  0.00  0.00    -0.250 OA
BRANCH  15  18
ATOM     17  C   LIG    1       27.137 -20.422   7.476  0.00  0.00    +0.280 C 
ATOM     18  O   LIG    1       26.304 -21.451   6.932  0.00  0.00    -0.468 OA
ENDBRANCH  15  18
ENDBRANCH   1  15
TORSDOF 4
ENDMDL
MODEL 2
REMARK VINA RESULT:      -8.2      1.191      1.642
REMARK  Name = *****
REMARK                            x       y       z     vdW  Elec       q    Type
REMARK                         _______ _______ _______ _____ _____    ______ ____
ROOT
ATOM      1  C   LIG    1       24.515 -21.343   7.382  0.00  0.00    +0.144 C 
ENDROOT
BRANCH   1   2
ATOM      2  C   LIG    1       24.313 -20.338   6.196  0.00  0.00    +0.072 C 
ATOM      3  N   LIG    1       22.864 -20.127   5.940  0.00  0.00    -0.312 NA
ATOM      4  H   LIG    1       22.449 -21.022   5.670  0.00  0.00    +0.122 HD
ATOM      5  C   LIG    1       22.624 -19.154   4.869  0.00  0.00    +0.081 C 
ATOM      6  C   LIG    1       23.284 -19.565   3.558  0.00  0.00    +0.015 C 
ATOM      7  C   LIG    1       24.779 -19.755   3.753  0.00  0.00    +0.003 C 
ATOM      8  C   LIG    1       25.035 -20.730   4.892  0.00  0.00    +0.020 C 
ENDBRANCH   1   2
BRANCH   1   9
ATOM      9  C   LIG    1       24.623 -22.818   7.005  0.00  0.00    -0.032 A 
ATOM     10  C   LIG    1       25.854 -23.495   6.991  0.00  0.00    +0.004 A 
ATOM     11  C   LIG    1       25.925 -24.848   6.663  0.00  0.00    +0.000 A 
ATOM     12  C   LIG    1       24.763 -25.557   6.378  0.00  0.00    +0.000 A 
ATOM     13  C   LIG    1       23.531 -24.908   6.401  0.00  0.00    +0.000 A 
ATOM     14  C   LIG    1       23.461 -23.546   6.704  0.00  0.00    +0.004 A 
ENDBRANCH   1   9
BRANCH   1  15
ATOM     15  C   LIG    1       25.688 -20.940   8.288  0.00  0.00    +0.316 C 
ATOM     16  O   LIG    1       25.805 -21.211   9.472  0.00  0.00    -0.250 OA
BRANCH  15  18
ATOM     17  C   LIG    1       27.934 -20.535   7.768  0.00  0.00    +0.280 C 
ATOM     18  O   LIG    1       26.567 -20.147   7.592  0.00  0.00    -0.468 OA
ENDBRANCH  15  18
ENDBRANCH   1  15
TORSDOF 4
ENDMDL
MODEL 3
REMARK VINA RESULT:      -8.1      1.329      4.753
REMARK  Name = *****
REMARK                            x       y       z     vdW  Elec       q    Type
REMARK                         _______ _______ _______ _____ _____    ______ ____
ROOT
ATOM      1  C   LIG    1       25.679 -21.475   6.529  0.00  0.00    +0.144 C 
ENDROOT
BRANCH   1   2
ATOM      2  C   LIG    1       25.198 -22.931   6.852  0.00  0.00    +0.072 C 
ATOM      3  N   LIG    1       26.191 -23.923   6.362  0.00  0.00    -0.312 NA
ATOM      4  H   LIG    1       26.266 -23.833   5.345  0.00  0.00    +0.122 HD
ATOM      5  C   LIG    1       25.809 -25.301   6.685  0.00  0.00    +0.081 C 
ATOM      6  C   LIG    1       24.445 -25.670   6.112  0.00  0.00    +0.015 C 
ATOM      7  C   LIG    1       23.381 -24.710   6.615  0.00  0.00    +0.003 C 
ATOM      8  C   LIG    1       23.793 -23.276   6.321  0.00  0.00    +0.020 C 
ENDBRANCH   1   2
BRANCH   1   9
ATOM      9  C   LIG    1       24.740 -20.629   5.672  0.00  0.00    -0.032 A 
ATOM     10  C   LIG    1       23.428 -20.332   6.076  0.00  0.00    +0.004 A 
ATOM     11  C   LIG    1       22.596 -19.540   5.287  0.00  0.00    +0.000 A 
ATOM     12  C   LIG    1       23.072 -19.002   4.096  0.00  0.00    +0.000 A 
ATOM     13  C   LIG    1       24.374 -19.273   3.684  0.00  0.00    +0.000 A 
ATOM     14  C   LIG    1       25.201 -20.087   4.462  0.00  0.00    +0.004 A 
ENDBRANCH   1   9
BRANCH   1  15
ATOM     15  C   LIG    1       26.080 -20.703   7.795  0.00  0.00    +0.316 C 
ATOM     16  O   LIG    1       25.413 -20.597   8.811  0.00  0.00    -0.250 OA
BRANCH  15  18
ATOM     17  C   LIG    1       28.315 -20.950   7.147  0.00  0.00    +0.280 C 
ATOM     18  O   LIG    1       27.281 -20.067   7.594  0.00  0.00    -0.468 OA
ENDBRANCH  15  18
ENDBRANCH   1  15
TORSDOF 4
ENDMDL
MODEL 4
REMARK VINA RESULT:      -7.7      1.878      4.614
REMARK  Name = *****
REMARK                            x       y       z     vdW  Elec       q    Type
REMARK                         _______ _______ _______ _____ _____    ______ ____
ROOT
ATOM      1  C   LIG    1       26.449 -21.233   6.765  0.00  0.00    +0.144 C 
ENDROOT
BRANCH   1   2
ATOM      2  C   LIG    1       25.283 -20.470   6.049  0.00  0.00    +0.072 C 
ATOM      3  N   LIG    1       23.992 -20.740   6.734  0.00  0.00    -0.312 NA
ATOM      4  H   LIG    1       23.796 -21.742   6.675  0.00  0.00    +0.122 HD
ATOM      5  C   LIG    1       22.875 -20.006   6.129  0.00  0.00    +0.081 C 
ATOM      6  C   LIG    1       22.706 -20.333   4.649  0.00  0.00    +0.015 C 
ATOM      7  C   LIG    1       23.988 -20.036   3.890  0.00  0.00    +0.003 C 
ATOM      8  C   LIG    1       25.157 -20.760   4.540  0.00  0.00    +0.020 C 
ENDBRANCH   1   2
BRANCH   1   9
ATOM      9  C   LIG    1       27.820 -20.564   6.722  0.00  0.00    -0.032 A 
ATOM     10  C   LIG    1       28.103 -19.502   5.847  0.00  0.00    +0.004 A 
ATOM     11  C   LIG    1       29.356 -18.892   5.839  0.00  0.00    +0.000 A 
ATOM     12  C   LIG    1       30.339 -19.310   6.730  0.00  0.00    +0.000 A 
ATOM     13  C   LIG    1       30.074 -20.351   7.616  0.00  0.00    +0.000 A 
ATOM     14  C   LIG    1       28.827 -20.980   7.607  0.00  0.00    +0.004 A 
ENDBRANCH   1   9
BRANCH   1  15
ATOM     15  C   LIG    1       26.090 -21.614   8.209  0.00  0.00    +0.316 C 
ATOM     16  O   LIG    1       25.979 -20.843   9.148  0.00  0.00    -0.250 OA
BRANCH  15  18
ATOM     17  C   LIG    1       25.967 -23.647   7.055  0.00  0.00    +0.280 C 
ATOM     18  O   LIG    1       25.991 -22.980   8.321  0.00  0.00    -0.468 OA
ENDBRANCH  15  18
ENDBRANCH   1  15
TORSDOF 4
ENDMDL
MODEL 5
REMARK VINA RESULT:      -7.7      1.312      4.905
REMARK  Name = *****
REMARK                            x       y       z     vdW  Elec       q    Type
REMARK                         _______ _______ _______ _____ _____    ______ ____
ROOT
ATOM      1  C   LIG    1       25.253 -21.575   6.580  0.00  0.00    +0.144 C 
ENDROOT
BRANCH   1   2
ATOM      2  C   LIG    1       25.547 -23.039   6.105  0.00  0.00    +0.072 C 
ATOM      3  N   LIG    1       24.510 -23.486   5.138  0.00  0.00    -0.312 NA
ATOM      4  H   LIG    1       23.603 -23.483   5.610  0.00  0.00    +0.122 HD
ATOM      5  C   LIG    1       24.770 -24.835   4.626  0.00  0.00    +0.081 C 
ATOM      6  C   LIG    1       24.855 -25.869   5.744  0.00  0.00    +0.015 C 
ATOM      7  C   LIG    1       25.932 -25.483   6.744  0.00  0.00    +0.003 C 
ATOM      8  C   LIG    1       25.692 -24.067   7.245  0.00  0.00    +0.020 C 
ENDBRANCH   1   2
BRANCH   1   9
ATOM      9  C   LIG    1       24.608 -20.649   5.552  0.00  0.00    -0.032 A 
ATOM     10  C   LIG    1       23.264 -20.252   5.647  0.00  0.00    +0.004 A 
ATOM     11  C   LIG    1       22.702 -19.389   4.708  0.00  0.00    +0.000 A 
ATOM     12  C   LIG    1       23.484 -18.879   3.676  0.00  0.00    +0.000 A 
ATOM     13  C   LIG    1       24.822 -19.249   3.572  0.00  0.00    +0.000 A 
ATOM     14  C   LIG    1       25.380 -20.134   4.498  0.00  0.00    +0.004 A 
ENDBRANCH   1   9
BRANCH   1  15
ATOM     15  C   LIG    1       24.460 -21.541   7.895  0.00  0.00    +0.316 C 
ATOM     16  O   LIG    1       23.267 -21.764   8.019  0.00  0.00    -0.250 OA
BRANCH  15  18
ATOM     17  C   LIG    1       26.449 -20.449   8.471  0.00  0.00    +0.280 C 
ATOM     18  O   LIG    1       25.276 -21.134   8.923  0.00  0.00    -0.468 OA
ENDBRANCH  15  18
ENDBRANCH   1  15
TORSDOF 4
ENDMDL
MODEL 6
REMARK VINA RESULT:      -7.6      1.887      5.125
REMARK  Name = *****
REMARK                            x       y       z     vdW  Elec       q    Type
REMARK                         _______ _______ _______ _____ _____    ______ ____
ROOT
ATOM      1  C   LIG    1       25.349 -21.621   6.911  0.00  0.00    +0.144 C 
ENDROOT
BRANCH   1   2
ATOM      2  C   LIG    1       26.895 -21.387   6.815  0.00  0.00    +0.072 C 
ATOM      3  N   LIG    1       27.526 -21.553   8.150  0.00  0.00    -0.312 NA
ATOM      4  H   LIG    1       27.139 -20.848   8.783  0.00  0.00    +0.122 HD
ATOM      5  C   LIG    1       28.983 -21.392   8.102  0.00  0.00    +0.081 C 
ATOM      6  C   LIG    1       29.395 -20.033   7.548  0.00  0.00    +0.015 C 
ATOM      7  C   LIG    1       28.809 -19.826   6.161  0.00  0.00    +0.003 C 
ATOM      8  C   LIG    1       27.303 -20.035   6.196  0.00  0.00    +0.020 C 
ENDBRANCH   1   2
BRANCH   1   9
ATOM      9  C   LIG    1       24.486 -20.850   5.915  0.00  0.00    -0.032 A 
ATOM     10  C   LIG    1       23.277 -20.243   6.292  0.00  0.00    +0.004 A 
ATOM     11  C   LIG    1       22.516 -19.526   5.370  0.00  0.00    +0.000 A 
ATOM     12  C   LIG    1       22.968 -19.373   4.063  0.00  0.00    +0.000 A 
ATOM     13  C   LIG    1       24.172 -19.955   3.674  0.00  0.00    +0.000 A 
ATOM     14  C   LIG    1       24.923 -20.695   4.590  0.00  0.00    +0.004 A 
ENDBRANCH   1   9
BRANCH   1  15
ATOM     15  C   LIG    1       24.986 -23.114   6.883  0.00  0.00    +0.316 C 
ATOM     16  O   LIG    1       23.859 -23.578   6.920  0.00  0.00    -0.250 OA
BRANCH  15  18
ATOM     17  C   LIG    1       25.918 -25.214   6.440  0.00  0.00    +0.280 C 
ATOM     18  O   LIG    1       26.131 -23.873   6.893  0.00  0.00    -0.468 OA
ENDBRANCH  15  18
ENDBRANCH   1  15
TORSDOF 4
ENDMDL
MODEL 7
REMARK VINA RESULT:      -7.5      1.920      5.016
REMARK  Name = *****
REMARK                            x       y       z     vdW  Elec       q    Type
REMARK                         _______ _______ _______ _____ _____    ______ ____
ROOT
ATOM      1  C   LIG    1       25.003 -20.888   6.313  0.00  0.00    +0.144 C 
ENDROOT
BRANCH   1   2
ATOM      2  C   LIG    1       24.715 -22.380   6.696  0.00  0.00    +0.072 C 
ATOM      3  N   LIG    1       25.675 -23.284   6.009  0.00  0.00    -0.312 NA
ATOM      4  H   LIG    1       25.547 -23.187   4.999  0.00  0.00    +0.122 HD
ATOM      5  C   LIG    1       25.477 -24.690   6.375  0.00  0.00    +0.081 C 
ATOM      6  C   LIG    1       24.064 -25.172   6.066  0.00  0.00    +0.015 C 
ATOM      7  C   LIG    1       23.039 -24.306   6.778  0.00  0.00    +0.003 C 
ATOM      8  C   LIG    1       23.268 -22.842   6.436  0.00  0.00    +0.020 C 
ENDBRANCH   1   2
BRANCH   1   9
ATOM      9  C   LIG    1       26.432 -20.398   6.536  0.00  0.00    -0.032 A 
ATOM     10  C   LIG    1       27.048 -20.448   7.797  0.00  0.00    +0.004 A 
ATOM     11  C   LIG    1       28.361 -20.015   7.973  0.00  0.00    +0.000 A 
ATOM     12  C   LIG    1       29.094 -19.556   6.883  0.00  0.00    +0.000 A 
ATOM     13  C   LIG    1       28.506 -19.512   5.621  0.00  0.00    +0.000 A 
ATOM     14  C   LIG    1       27.182 -19.922   5.449  0.00  0.00    +0.004 A 
ENDBRANCH   1   9
BRANCH   1  15
ATOM     15  C   LIG    1       24.546 -20.559   4.884  0.00  0.00    +0.316 C 
ATOM     16  O   LIG    1       24.780 -21.220   3.886  0.00  0.00    -0.250 OA
BRANCH  15  18
ATOM     17  C   LIG    1       22.478 -19.473   5.023  0.00  0.00    +0.280 C 
ATOM     18  O   LIG    1       23.895 -19.349   4.868  0.00  0.00    -0.468 OA
ENDBRANCH  15  18
ENDBRANCH   1  15
TORSDOF 4
ENDMDL
MODEL 8
REMARK VINA RESULT:      -7.5      5.248      8.043
REMARK  Name = *****
REMARK                            x       y       z     vdW  Elec       q    Type
REMARK                         _______ _______ _______ _____ _____    ______ ____
ROOT
ATOM      1  C   LIG    1       30.317 -19.352   8.667  0.00  0.00    +0.144 C 
ENDROOT
BRANCH   1   2
ATOM      2  C   LIG    1       30.613 -17.929   9.254  0.00  0.00    +0.072 C 
ATOM      3  N   LIG    1       31.942 -17.448   8.796  0.00  0.00    -0.312 NA
ATOM      4  H   LIG    1       32.658 -18.090   9.147  0.00  0.00    +0.122 HD
ATOM      5  C   LIG    1       32.243 -16.097   9.280  0.00  0.00    +0.081 C 
ATOM      6  C   LIG    1       32.203 -16.008  10.802  0.00  0.00    +0.015 C 
ATOM      7  C   LIG    1       30.846 -16.451  11.324  0.00  0.00    +0.003 C 
ATOM      8  C   LIG    1       30.509 -17.834  10.789  0.00  0.00    +0.020 C 
ENDBRANCH   1   2
BRANCH   1   9
ATOM      9  C   LIG    1       29.282 -19.418   7.546  0.00  0.00    -0.032 A 
ATOM     10  C   LIG    1       29.452 -18.728   6.335  0.00  0.00    +0.004 A 
ATOM     11  C   LIG    1       28.504 -18.820   5.317  0.00  0.00    +0.000 A 
ATOM     12  C   LIG    1       27.385 -19.630   5.479  0.00  0.00    +0.000 A 
ATOM     13  C   LIG    1       27.205 -20.334   6.668  0.00  0.00    +0.000 A 
ATOM     14  C   LIG    1       28.142 -20.223   7.698  0.00  0.00    +0.004 A 
ENDBRANCH   1   9
BRANCH   1  15
ATOM     15  C   LIG    1       31.601 -20.083   8.246  0.00  0.00    +0.316 C 
ATOM     16  O   LIG    1       32.155 -19.992   7.163  0.00  0.00    -0.250 OA
BRANCH  15  18
ATOM     17  C   LIG    1       31.260 -22.157   9.275  0.00  0.00    +0.280 C 
ATOM     18  O   LIG    1       32.004 -20.934   9.246  0.00  0.00    -0.468 OA
ENDBRANCH  15  18
ENDBRANCH   1  15
TORSDOF 4
ENDMDL
MODEL 9
REMARK VINA RESULT:      -7.3      1.701      5.001
REMARK  Name = *****
REMARK                            x       y       z     vdW  Elec       q    Type
REMARK                         _______ _______ _______ _____ _____    ______ ____
ROOT
ATOM      1  C   LIG    1       25.031 -22.025   7.162  0.00  0.00    +0.144 C 
ENDROOT
BRANCH   1   2
ATOM      2  C   LIG    1       25.013 -23.411   6.430  0.00  0.00    +0.072 C 
ATOM      3  N   LIG    1       23.704 -24.085   6.633  0.00  0.00    -0.312 NA
ATOM      4  H   LIG    1       23.578 -24.255   7.634  0.00  0.00    +0.122 HD
ATOM      5  C   LIG    1       23.622 -25.366   5.924  0.00  0.00    +0.081 C 
ATOM      6  C   LIG    1       24.725 -26.331   6.347  0.00  0.00    +0.015 C 
ATOM      7  C   LIG    1       26.091 -25.706   6.121  0.00  0.00    +0.003 C 
ATOM      8  C   LIG    1       26.167 -24.356   6.818  0.00  0.00    +0.020 C 
ENDBRANCH   1   2
BRANCH   1   9
ATOM      9  C   LIG    1       26.284 -21.175   6.968  0.00  0.00    -0.032 A 
ATOM     10  C   LIG    1       27.294 -21.104   7.942  0.00  0.00    +0.004 A 
ATOM     11  C   LIG    1       28.439 -20.338   7.734  0.00  0.00    +0.000 A 
ATOM     12  C   LIG    1       28.612 -19.656   6.533  0.00  0.00    +0.000 A 
ATOM     13  C   LIG    1       27.629 -19.725   5.549  0.00  0.00    +0.000 A 
ATOM     14  C   LIG    1       26.469 -20.472   5.767  0.00  0.00    +0.004 A 
ENDBRANCH   1   9
BRANCH   1  15
ATOM     15  C   LIG    1       23.774 -21.195   6.860  0.00  0.00    +0.316 C 
ATOM     16  O   LIG    1       23.222 -20.424   7.628  0.00  0.00    -0.250 OA
BRANCH  15  18
ATOM     17  C   LIG    1       22.536 -20.447   5.020  0.00  0.00    +0.280 C 
ATOM     18  O   LIG    1       23.298 -21.506   5.609  0.00  0.00    -0.468 OA
ENDBRANCH  15  18
ENDBRANCH   1  15
TORSDOF 4
ENDMDL
