MODEL 1
REMARK VINA RESULT:      -5.5      0.000      0.000
REMARK  Name = *****
REMARK                            x       y       z     vdW  Elec       q    Type
REMARK                         _______ _______ _______ _____ _____    ______ ____
ROOT
ATOM      1  C   LIG    1       26.263 -29.275  13.975  0.00  0.00    +0.132 C 
ATOM      2  C   LIG    1       25.590 -28.799  12.644  0.00  0.00    +0.014 C 
ATOM      3  C   LIG    1       25.245 -30.139  11.916  0.00  0.00    +0.002 C 
ATOM      4  C   LIG    1       26.250 -30.623  10.836  0.00  0.00    -0.003 C 
ATOM      5  C   LIG    1       26.737 -29.490   9.918  0.00  0.00    -0.000 C 
ATOM      6  C   LIG    1       27.420 -28.434  10.790  0.00  0.00    +0.005 C 
ATOM      7  C   LIG    1       25.610 -28.948   8.989  0.00  0.00    +0.019 C 
ATOM      8  C   LIG    1       24.939 -30.087   8.231  0.00  0.00    -0.063 C 
ATOM      9  C   LIG    1       24.630 -30.024   6.924  0.00  0.00    +0.045 C 
ATOM     10  C   LIG    1       24.821 -28.776   6.149  0.00  0.00    +0.156 C 
ATOM     11  O   LIG    1       24.563 -28.763   4.948  0.00  0.00    -0.293 OA
ATOM     12  C   LIG    1       25.215 -27.534   6.905  0.00  0.00    +0.079 C 
ATOM     13  C   LIG    1       24.571 -31.313   9.032  0.00  0.00    +0.031 C 
ATOM     14  C   LIG    1       26.177 -27.882   8.029  0.00  0.00    +0.016 C 
ATOM     15  C   LIG    1       25.688 -31.767   9.968  0.00  0.00    +0.008 C 
ATOM     16  C   LIG    1       25.111 -31.207  13.031  0.00  0.00    +0.008 C 
ATOM     17  C   LIG    1       26.481 -27.817  11.816  0.00  0.00    +0.011 C 
ATOM     18  C   LIG    1       25.511 -30.556  14.351  0.00  0.00    +0.049 C 
ENDROOT
BRANCH   1  20
ATOM     19  C   LIG    1       28.890 -29.787  13.817  0.00  0.00    +0.007 C 
ATOM     20  C   LIG    1       27.707 -29.580  13.869  0.00  0.00    -0.070 C 
ENDBRANCH   1  20
BRANCH   1  21
ATOM     21  O   LIG    1       26.107 -28.302  15.000  0.00  0.00    -0.376 OA
ATOM     22  H   LIG    1       25.440 -27.665  14.690  0.00  0.00    +0.211 HD
ENDBRANCH   1  21
BRANCH   2  23
ATOM     23  C   LIG    1       24.271 -27.963  12.899  0.00  0.00    +0.007 C 
ATOM     24  C   LIG    1       22.916 -28.534  12.511  0.00  0.00    +0.004 C 
ENDBRANCH   2  23
TORSDOF 3
ENDMDL
MODEL 2
REMARK VINA RESULT:      -5.4      2.675      5.873
REMARK  Name = *****
REMARK                            x       y       z     vdW  Elec       q    Type
REMARK                         _______ _______ _______ _____ _____    ______ ____
ROOT
ATOM      1  C   LIG    1       26.886 -29.677  11.916  0.00  0.00    +0.132 C 
ATOM      2  C   LIG    1       25.329 -29.566  11.810  0.00  0.00    +0.014 C 
ATOM      3  C   LIG    1       25.042 -28.094  12.253  0.00  0.00    +0.002 C 
ATOM      4  C   LIG    1       24.615 -27.884  13.731  0.00  0.00    -0.003 C 
ATOM      5  C   LIG    1       23.588 -28.921  14.214  0.00  0.00    -0.000 C 
ATOM      6  C   LIG    1       24.216 -30.309  14.074  0.00  0.00    +0.005 C 
ATOM      7  C   LIG    1       22.201 -28.754  13.524  0.00  0.00    +0.019 C 
ATOM      8  C   LIG    1       21.704 -27.319  13.647  0.00  0.00    -0.063 C 
ATOM      9  C   LIG    1       20.437 -26.999  13.958  0.00  0.00    +0.045 C 
ATOM     10  C   LIG    1       19.393 -28.041  14.094  0.00  0.00    +0.156 C 
ATOM     11  O   LIG    1       18.252 -27.718  14.416  0.00  0.00    -0.293 OA
ATOM     12  C   LIG    1       19.756 -29.451  13.708  0.00  0.00    +0.079 C 
ATOM     13  C   LIG    1       22.703 -26.227  13.344  0.00  0.00    +0.031 C 
ATOM     14  C   LIG    1       21.188 -29.758  14.113  0.00  0.00    +0.016 C 
ATOM     15  C   LIG    1       24.062 -26.469  13.996  0.00  0.00    +0.008 C 
ATOM     16  C   LIG    1       26.339 -27.301  11.958  0.00  0.00    +0.008 C 
ATOM     17  C   LIG    1       24.572 -30.657  12.636  0.00  0.00    +0.011 C 
ATOM     18  C   LIG    1       27.401 -28.295  11.501  0.00  0.00    +0.049 C 
ENDROOT
BRANCH   1  20
ATOM     19  C   LIG    1       27.852 -30.209  14.360  0.00  0.00    +0.007 C 
ATOM     20  C   LIG    1       27.398 -29.992  13.268  0.00  0.00    -0.070 C 
ENDBRANCH   1  20
BRANCH   1  21
ATOM     21  O   LIG    1       27.388 -30.669  11.028  0.00  0.00    -0.376 OA
ATOM     22  H   LIG    1       27.130 -31.533  11.391  0.00  0.00    +0.211 HD
ENDBRANCH   1  21
BRANCH   2  23
ATOM     23  C   LIG    1       24.805 -29.803  10.336  0.00  0.00    +0.007 C 
ATOM     24  C   LIG    1       23.352 -30.182  10.091  0.00  0.00    +0.004 C 
ENDBRANCH   2  23
TORSDOF 3
ENDMDL
MODEL 3
REMARK VINA RESULT:      -5.3      1.795      5.871
REMARK  Name = *****
REMARK                            x       y       z     vdW  Elec       q    Type
REMARK                         _______ _______ _______ _____ _____    ______ ____
ROOT
ATOM      1  C   LIG    1       24.932 -31.744   8.477  0.00  0.00    +0.132 C 
ATOM      2  C   LIG    1       24.615 -30.352   9.119  0.00  0.00    +0.014 C 
ATOM      3  C   LIG    1       25.885 -30.055   9.982  0.00  0.00    +0.002 C 
ATOM      4  C   LIG    1       25.792 -30.393  11.494  0.00  0.00    -0.003 C 
ATOM      5  C   LIG    1       24.459 -29.959  12.126  0.00  0.00    -0.000 C 
ATOM      6  C   LIG    1       23.329 -30.679  11.389  0.00  0.00    +0.005 C 
ATOM      7  C   LIG    1       24.312 -28.410  12.203  0.00  0.00    +0.019 C 
ATOM      8  C   LIG    1       25.526 -27.783  12.878  0.00  0.00    -0.063 C 
ATOM      9  C   LIG    1       25.439 -26.806  13.797  0.00  0.00    +0.045 C 
ATOM     10  C   LIG    1       24.138 -26.185  14.138  0.00  0.00    +0.156 C 
ATOM     11  O   LIG    1       24.089 -25.321  15.009  0.00  0.00    -0.293 OA
ATOM     12  C   LIG    1       22.941 -26.563  13.304  0.00  0.00    +0.079 C 
ATOM     13  C   LIG    1       26.881 -28.272  12.427  0.00  0.00    +0.031 C 
ATOM     14  C   LIG    1       23.002 -28.034  12.929  0.00  0.00    +0.016 C 
ATOM     15  C   LIG    1       26.954 -29.793  12.311  0.00  0.00    +0.008 C 
ATOM     16  C   LIG    1       27.039 -30.857   9.330  0.00  0.00    +0.008 C 
ATOM     17  C   LIG    1       23.267 -30.327   9.910  0.00  0.00    +0.011 C 
ATOM     18  C   LIG    1       26.443 -31.713   8.218  0.00  0.00    +0.049 C 
ENDROOT
BRANCH   1  20
ATOM     19  C   LIG    1       24.360 -33.825  10.066  0.00  0.00    +0.007 C 
ATOM     20  C   LIG    1       24.616 -32.910   9.330  0.00  0.00    -0.070 C 
ENDBRANCH   1  20
BRANCH   1  21
ATOM     21  O   LIG    1       24.233 -31.910   7.250  0.00  0.00    -0.376 OA
ATOM     22  H   LIG    1       24.717 -32.578   6.734  0.00  0.00    +0.211 HD
ENDBRANCH   1  21
BRANCH   2  23
ATOM     23  C   LIG    1       24.417 -29.217   8.034  0.00  0.00    +0.007 C 
ATOM     24  C   LIG    1       25.541 -28.235   7.740  0.00  0.00    +0.004 C 
ENDBRANCH   2  23
TORSDOF 3
ENDMDL
MODEL 4
REMARK VINA RESULT:      -5.2      3.971      7.169
REMARK  Name = *****
REMARK                            x       y       z     vdW  Elec       q    Type
REMARK                         _______ _______ _______ _____ _____    ______ ____
ROOT
ATOM      1  C   LIG    1       23.640 -31.400  12.033  0.00  0.00    +0.132 C 
ATOM      2  C   LIG    1       22.217 -30.750  12.028  0.00  0.00    +0.014 C 
ATOM      3  C   LIG    1       22.516 -29.228  12.222  0.00  0.00    +0.002 C 
ATOM      4  C   LIG    1       22.391 -28.673  13.666  0.00  0.00    -0.003 C 
ATOM      5  C   LIG    1       21.145 -29.191  14.404  0.00  0.00    -0.000 C 
ATOM      6  C   LIG    1       21.233 -30.717  14.467  0.00  0.00    +0.005 C 
ATOM      7  C   LIG    1       19.821 -28.632  13.803  0.00  0.00    +0.019 C 
ATOM      8  C   LIG    1       19.869 -27.112  13.705  0.00  0.00    -0.063 C 
ATOM      9  C   LIG    1       18.843 -26.316  14.051  0.00  0.00    +0.045 C 
ATOM     10  C   LIG    1       17.533 -26.880  14.450  0.00  0.00    +0.156 C 
ATOM     11  O   LIG    1       16.627 -26.126  14.796  0.00  0.00    -0.293 OA
ATOM     12  C   LIG    1       17.334 -28.366  14.296  0.00  0.00    +0.079 C 
ATOM     13  C   LIG    1       21.131 -26.508  13.138  0.00  0.00    +0.031 C 
ATOM     14  C   LIG    1       18.614 -29.110  14.638  0.00  0.00    +0.016 C 
ATOM     15  C   LIG    1       22.399 -27.132  13.716  0.00  0.00    +0.008 C 
ATOM     16  C   LIG    1       23.954 -29.006  11.691  0.00  0.00    +0.008 C 
ATOM     17  C   LIG    1       21.250 -31.366  13.091  0.00  0.00    +0.011 C 
ATOM     18  C   LIG    1       24.538 -30.370  11.340  0.00  0.00    +0.049 C 
ENDROOT
BRANCH   1  20
ATOM     19  C   LIG    1       24.687 -31.924  14.445  0.00  0.00    +0.007 C 
ATOM     20  C   LIG    1       24.190 -31.687  13.377  0.00  0.00    -0.070 C 
ENDBRANCH   1  20
BRANCH   1  21
ATOM     21  O   LIG    1       23.646 -32.619  11.301  0.00  0.00    -0.376 OA
ATOM     22  H   LIG    1       23.391 -33.325  11.920  0.00  0.00    +0.211 HD
ENDBRANCH   1  21
BRANCH   2  23
ATOM     23  C   LIG    1       21.450 -30.985  10.664  0.00  0.00    +0.007 C 
ATOM     24  C   LIG    1       19.932 -30.893  10.614  0.00  0.00    +0.004 C 
ENDBRANCH   2  23
TORSDOF 3
ENDMDL
MODEL 5
REMARK VINA RESULT:      -5.2      3.425      5.879
REMARK  Name = *****
REMARK                            x       y       z     vdW  Elec       q    Type
REMARK                         _______ _______ _______ _____ _____    ______ ____
ROOT
ATOM      1  C   LIG    1       22.213 -30.650  12.867  0.00  0.00    +0.132 C 
ATOM      2  C   LIG    1       22.679 -29.177  13.116  0.00  0.00    +0.014 C 
ATOM      3  C   LIG    1       23.942 -29.039  12.205  0.00  0.00    +0.002 C 
ATOM      4  C   LIG    1       25.320 -29.232  12.892  0.00  0.00    -0.003 C 
ATOM      5  C   LIG    1       25.418 -28.521  14.252  0.00  0.00    -0.000 C 
ATOM      6  C   LIG    1       24.329 -29.089  15.163  0.00  0.00    +0.005 C 
ATOM      7  C   LIG    1       25.419 -26.969  14.116  0.00  0.00    +0.019 C 
ATOM      8  C   LIG    1       26.482 -26.513  13.124  0.00  0.00    -0.063 C 
ATOM      9  C   LIG    1       27.295 -25.465  13.342  0.00  0.00    +0.045 C 
ATOM     10  C   LIG    1       27.131 -24.600  14.533  0.00  0.00    +0.156 C 
ATOM     11  O   LIG    1       27.915 -23.673  14.721  0.00  0.00    -0.293 OA
ATOM     12  C   LIG    1       25.924 -24.828  15.404  0.00  0.00    +0.079 C 
ATOM     13  C   LIG    1       26.561 -27.268  11.818  0.00  0.00    +0.031 C 
ATOM     14  C   LIG    1       25.613 -26.313  15.499  0.00  0.00    +0.016 C 
ATOM     15  C   LIG    1       26.498 -28.782  12.004  0.00  0.00    +0.008 C 
ATOM     16  C   LIG    1       23.765 -30.081  11.072  0.00  0.00    +0.008 C 
ATOM     17  C   LIG    1       22.925 -28.853  14.626  0.00  0.00    +0.011 C 
ATOM     18  C   LIG    1       22.522 -30.907  11.387  0.00  0.00    +0.049 C 
ENDROOT
BRANCH   1  20
ATOM     19  C   LIG    1       23.473 -32.531  14.303  0.00  0.00    +0.007 C 
ATOM     20  C   LIG    1       22.906 -31.671  13.684  0.00  0.00    -0.070 C 
ENDBRANCH   1  20
BRANCH   1  21
ATOM     21  O   LIG    1       20.817 -30.790  13.102  0.00  0.00    -0.376 OA
ATOM     22  H   LIG    1       20.638 -30.414  13.981  0.00  0.00    +0.211 HD
ENDBRANCH   1  21
BRANCH   2  23
ATOM     23  C   LIG    1       21.584 -28.117  12.693  0.00  0.00    +0.007 C 
ATOM     24  C   LIG    1       21.666 -26.687  13.205  0.00  0.00    +0.004 C 
ENDBRANCH   2  23
TORSDOF 3
ENDMDL
MODEL 6
REMARK VINA RESULT:      -5.2      2.675      4.576
REMARK  Name = *****
REMARK                            x       y       z     vdW  Elec       q    Type
REMARK                         _______ _______ _______ _____ _____    ______ ____
ROOT
ATOM      1  C   LIG    1       27.605 -28.873  12.222  0.00  0.00    +0.132 C 
ATOM      2  C   LIG    1       26.353 -29.262  11.367  0.00  0.00    +0.014 C 
ATOM      3  C   LIG    1       25.177 -28.540  12.101  0.00  0.00    +0.002 C 
ATOM      4  C   LIG    1       24.344 -29.397  13.091  0.00  0.00    -0.003 C 
ATOM      5  C   LIG    1       24.009 -30.794  12.543  0.00  0.00    -0.000 C 
ATOM      6  C   LIG    1       25.325 -31.516  12.251  0.00  0.00    +0.005 C 
ATOM      7  C   LIG    1       23.008 -30.742  11.350  0.00  0.00    +0.019 C 
ATOM      8  C   LIG    1       21.771 -29.930  11.715  0.00  0.00    -0.063 C 
ATOM      9  C   LIG    1       20.519 -30.312  11.411  0.00  0.00    +0.045 C 
ATOM     10  C   LIG    1       20.263 -31.515  10.585  0.00  0.00    +0.156 C 
ATOM     11  O   LIG    1       19.106 -31.858  10.356  0.00  0.00    -0.293 OA
ATOM     12  C   LIG    1       21.449 -32.200   9.957  0.00  0.00    +0.079 C 
ATOM     13  C   LIG    1       22.007 -28.609  12.407  0.00  0.00    +0.031 C 
ATOM     14  C   LIG    1       22.638 -32.172  10.903  0.00  0.00    +0.016 C 
ATOM     15  C   LIG    1       23.039 -28.703  13.529  0.00  0.00    +0.008 C 
ATOM     16  C   LIG    1       25.814 -27.339  12.845  0.00  0.00    +0.008 C 
ATOM     17  C   LIG    1       26.171 -30.807  11.204  0.00  0.00    +0.011 C 
ATOM     18  C   LIG    1       27.327 -27.438  12.681  0.00  0.00    +0.049 C 
ENDROOT
BRANCH   1  20
ATOM     19  C   LIG    1       28.029 -30.363  14.409  0.00  0.00    +0.007 C 
ATOM     20  C   LIG    1       27.837 -29.721  13.412  0.00  0.00    -0.070 C 
ENDBRANCH   1  20
BRANCH   1  21
ATOM     21  O   LIG    1       28.790 -28.909  11.435  0.00  0.00    -0.376 OA
ATOM     22  H   LIG    1       29.189 -29.786  11.561  0.00  0.00    +0.211 HD
ENDBRANCH   1  21
BRANCH   2  23
ATOM     23  C   LIG    1       26.458 -28.752   9.873  0.00  0.00    +0.007 C 
ATOM     24  C   LIG    1       25.601 -29.384   8.787  0.00  0.00    +0.004 C 
ENDBRANCH   2  23
TORSDOF 3
ENDMDL
MODEL 7
REMARK VINA RESULT:      -5.1      1.612      6.165
REMARK  Name = *****
REMARK                            x       y       z     vdW  Elec       q    Type
REMARK                         _______ _______ _______ _____ _____    ______ ____
ROOT
ATOM      1  C   LIG    1       24.208 -31.516   6.768  0.00  0.00    +0.132 C 
ATOM      2  C   LIG    1       24.448 -30.308   7.733  0.00  0.00    +0.014 C 
ATOM      3  C   LIG    1       25.886 -30.570   8.289  0.00  0.00    +0.002 C 
ATOM      4  C   LIG    1       25.980 -31.259   9.677  0.00  0.00    -0.003 C 
ATOM      5  C   LIG    1       24.981 -30.692  10.699  0.00  0.00    -0.000 C 
ATOM      6  C   LIG    1       23.570 -30.892  10.143  0.00  0.00    +0.005 C 
ATOM      7  C   LIG    1       25.322 -29.230  11.118  0.00  0.00    +0.019 C 
ATOM      8  C   LIG    1       26.772 -29.121  11.575  0.00  0.00    -0.063 C 
ATOM      9  C   LIG    1       27.155 -28.430  12.662  0.00  0.00    +0.045 C 
ATOM     10  C   LIG    1       26.187 -27.619  13.437  0.00  0.00    +0.156 C 
ATOM     11  O   LIG    1       26.562 -27.029  14.447  0.00  0.00    -0.293 OA
ATOM     12  C   LIG    1       24.798 -27.459  12.875  0.00  0.00    +0.079 C 
ATOM     13  C   LIG    1       27.809 -29.794  10.707  0.00  0.00    +0.031 C 
ATOM     14  C   LIG    1       24.344 -28.748  12.210  0.00  0.00    +0.016 C 
ATOM     15  C   LIG    1       27.400 -31.200  10.276  0.00  0.00    +0.008 C 
ATOM     16  C   LIG    1       26.604 -31.432   7.220  0.00  0.00    +0.008 C 
ATOM     17  C   LIG    1       23.342 -30.161   8.829  0.00  0.00    +0.011 C 
ATOM     18  C   LIG    1       25.582 -31.792   6.147  0.00  0.00    +0.049 C 
ENDROOT
BRANCH   1  20
ATOM     19  C   LIG    1       23.340 -33.781   7.909  0.00  0.00    +0.007 C 
ATOM     20  C   LIG    1       23.722 -32.751   7.423  0.00  0.00    -0.070 C 
ENDBRANCH   1  20
BRANCH   1  21
ATOM     21  O   LIG    1       23.275 -31.177   5.750  0.00  0.00    -0.376 OA
ATOM     22  H   LIG    1       23.111 -31.984   5.233  0.00  0.00    +0.211 HD
ENDBRANCH   1  21
BRANCH   2  23
ATOM     23  C   LIG    1       24.400 -28.916   6.983  0.00  0.00    +0.007 C 
ATOM     24  C   LIG    1       25.499 -27.888   7.206  0.00  0.00    +0.004 C 
ENDBRANCH   2  23
TORSDOF 3
ENDMDL
MODEL 8
REMARK VINA RESULT:      -5.1      2.671      3.683
REMARK  Name = *****
REMARK                            x       y       z     vdW  Elec       q    Type
REMARK                         _______ _______ _______ _____ _____    ______ ____
ROOT
ATOM      1  C   LIG    1       23.519 -32.455  11.038  0.00  0.00    +0.132 C 
ATOM      2  C   LIG    1       23.578 -31.067  10.316  0.00  0.00    +0.014 C 
ATOM      3  C   LIG    1       23.352 -31.433   8.813  0.00  0.00    +0.002 C 
ATOM      4  C   LIG    1       24.622 -31.564   7.931  0.00  0.00    -0.003 C 
ATOM      5  C   LIG    1       25.646 -30.445   8.181  0.00  0.00    -0.000 C 
ATOM      6  C   LIG    1       26.059 -30.502   9.653  0.00  0.00    +0.005 C 
ATOM      7  C   LIG    1       25.141 -29.054   7.693  0.00  0.00    +0.019 C 
ATOM      8  C   LIG    1       24.675 -29.124   6.244  0.00  0.00    -0.063 C 
ATOM      9  C   LIG    1       24.974 -28.191   5.325  0.00  0.00    +0.045 C 
ATOM     10  C   LIG    1       25.694 -26.951   5.696  0.00  0.00    +0.156 C 
ATOM     11  O   LIG    1       25.984 -26.134   4.824  0.00  0.00    -0.293 OA
ATOM     12  C   LIG    1       25.934 -26.690   7.160  0.00  0.00    +0.079 C 
ATOM     13  C   LIG    1       23.790 -30.290   5.872  0.00  0.00    +0.031 C 
ATOM     14  C   LIG    1       26.243 -27.990   7.884  0.00  0.00    +0.016 C 
ATOM     15  C   LIG    1       24.298 -31.620   6.424  0.00  0.00    +0.008 C 
ATOM     16  C   LIG    1       22.567 -32.769   8.814  0.00  0.00    +0.008 C 
ATOM     17  C   LIG    1       24.894 -30.275  10.605  0.00  0.00    +0.011 C 
ATOM     18  C   LIG    1       22.468 -33.251  10.257  0.00  0.00    +0.049 C 
ENDROOT
BRANCH   1  20
ATOM     19  C   LIG    1       25.824 -33.821  10.985  0.00  0.00    +0.007 C 
ATOM     20  C   LIG    1       24.790 -33.212  11.039  0.00  0.00    -0.070 C 
ENDBRANCH   1  20
BRANCH   1  21
ATOM     21  O   LIG    1       23.109 -32.308  12.392  0.00  0.00    -0.376 OA
ATOM     22  H   LIG    1       23.461 -33.071  12.881  0.00  0.00    +0.211 HD
ENDBRANCH   1  21
BRANCH   2  23
ATOM     23  C   LIG    1       22.446 -30.079  10.812  0.00  0.00    +0.007 C 
ATOM     24  C   LIG    1       22.708 -29.140  11.980  0.00  0.00    +0.004 C 
ENDBRANCH   2  23
TORSDOF 3
ENDMDL
MODEL 9
REMARK VINA RESULT:      -4.9      2.019      6.109
REMARK  Name = *****
REMARK                            x       y       z     vdW  Elec       q    Type
REMARK                         _______ _______ _______ _____ _____    ______ ____
ROOT
ATOM      1  C   LIG    1       25.663 -31.442   7.534  0.00  0.00    +0.132 C 
ATOM      2  C   LIG    1       25.319 -30.419   8.667  0.00  0.00    +0.014 C 
ATOM      3  C   LIG    1       25.793 -31.148   9.966  0.00  0.00    +0.002 C 
ATOM      4  C   LIG    1       24.703 -31.897  10.780  0.00  0.00    -0.003 C 
ATOM      5  C   LIG    1       23.400 -31.093  10.923  0.00  0.00    -0.000 C 
ATOM      6  C   LIG    1       22.861 -30.812   9.519  0.00  0.00    +0.005 C 
ATOM      7  C   LIG    1       23.570 -29.836  11.826  0.00  0.00    +0.019 C 
ATOM      8  C   LIG    1       24.191 -30.212  13.166  0.00  0.00    -0.063 C 
ATOM      9  C   LIG    1       23.757 -29.729  14.344  0.00  0.00    +0.045 C 
ATOM     10  C   LIG    1       22.701 -28.693  14.407  0.00  0.00    +0.156 C 
ATOM     11  O   LIG    1       22.301 -28.300  15.500  0.00  0.00    -0.293 OA
ATOM     12  C   LIG    1       22.246 -28.076  13.110  0.00  0.00    +0.079 C 
ATOM     13  C   LIG    1       25.386 -31.134  13.126  0.00  0.00    +0.031 C 
ATOM     14  C   LIG    1       22.214 -29.122  12.008  0.00  0.00    +0.016 C 
ATOM     15  C   LIG    1       25.189 -32.318  12.182  0.00  0.00    +0.008 C 
ATOM     16  C   LIG    1       26.896 -32.140   9.520  0.00  0.00    +0.008 C 
ATOM     17  C   LIG    1       23.817 -29.983   8.673  0.00  0.00    +0.011 C 
ATOM     18  C   LIG    1       26.964 -32.107   7.997  0.00  0.00    +0.049 C 
ENDROOT
BRANCH   1  20
ATOM     19  C   LIG    1       23.854 -33.380   7.132  0.00  0.00    +0.007 C 
ATOM     20  C   LIG    1       24.643 -32.491   7.309  0.00  0.00    -0.070 C 
ENDBRANCH   1  20
BRANCH   1  21
ATOM     21  O   LIG    1       25.873 -30.778   6.294  0.00  0.00    -0.376 OA
ATOM     22  H   LIG    1       26.167 -31.450   5.656  0.00  0.00    +0.211 HD
ENDBRANCH   1  21
BRANCH   2  23
ATOM     23  C   LIG    1       26.091 -29.049   8.499  0.00  0.00    +0.007 C 
ATOM     24  C   LIG    1       26.663 -28.339   9.716  0.00  0.00    +0.004 C 
ENDBRANCH   2  23
TORSDOF 3
ENDMDL
