MODEL 1
REMARK VINA RESULT:      -4.6      0.000      0.000
REMARK  Name = *****
REMARK                            x       y       z     vdW  Elec       q    Type
REMARK                         _______ _______ _______ _____ _____    ______ ____
ROOT
ATOM      1  C   LIG    1       24.091 -19.031   4.561  0.00  0.00    +0.111 C 
ENDROOT
BRANCH   1   3
ATOM      2  O   LIG    1       22.424 -20.518   5.507  0.00  0.00    -0.251 OA
ATOM      3  C   LIG    1       22.680 -19.549   4.819  0.00  0.00    +0.309 C 
BRANCH   3   4
ATOM      4  O   LIG    1       21.705 -18.826   4.220  0.00  0.00    -0.480 OA
ATOM      5  H   LIG    1       21.182 -18.294   4.867  0.00  0.00    +0.295 HD
ENDBRANCH   3   4
ENDBRANCH   1   3
BRANCH   1   6
ATOM      6  C   LIG    1       24.108 -18.013   3.412  0.00  0.00    +0.110 C 
BRANCH   6   7
ATOM      7  C   LIG    1       25.425 -17.279   3.278  0.00  0.00    +0.216 C 
ATOM      8  N   LIG    1       25.403 -15.922   3.507  0.00  0.00    -0.301 N 
ATOM      9  C   LIG    1       24.241 -15.073   3.735  0.00  0.00    +0.111 C 
ATOM     10  C   LIG    1       24.704 -13.702   3.241  0.00  0.00    +0.011 C 
ATOM     11  C   LIG    1       26.194 -13.677   3.624  0.00  0.00    +0.011 C 
ATOM     12  C   LIG    1       26.459 -13.195   5.056  0.00  0.00    +0.005 C 
ATOM     13  C   LIG    1       25.689 -11.919   5.376  0.00  0.00    +0.000 C 
ATOM     14  C   LIG    1       24.193 -12.139   5.194  0.00  0.00    +0.000 C 
ATOM     15  C   LIG    1       23.871 -12.534   3.757  0.00  0.00    +0.005 C 
ATOM     16  C   LIG    1       26.625 -15.136   3.422  0.00  0.00    +0.111 C 
ATOM     17  O   LIG    1       26.454 -17.875   2.954  0.00  0.00    -0.276 OA
ENDBRANCH   6   7
ENDBRANCH   1   6
BRANCH   1  18
ATOM     18  C   LIG    1       24.985 -20.252   4.241  0.00  0.00    +0.050 C 
BRANCH  18  19
ATOM     19  C   LIG    1       26.163 -20.437   5.172  0.00  0.00    -0.047 A 
ATOM     20  C   LIG    1       27.327 -19.678   5.013  0.00  0.00    +0.003 A 
ATOM     21  C   LIG    1       28.413 -19.859   5.873  0.00  0.00    +0.000 A 
ATOM     22  C   LIG    1       28.350 -20.806   6.894  0.00  0.00    +0.000 A 
ATOM     23  C   LIG    1       27.198 -21.569   7.062  0.00  0.00    +0.000 A 
ATOM     24  C   LIG    1       26.107 -21.380   6.212  0.00  0.00    +0.003 A 
ENDBRANCH  18  19
ENDBRANCH   1  18
TORSDOF 6
ENDMDL
MODEL 2
REMARK VINA RESULT:      -3.8      2.616      6.921
REMARK  Name = *****
REMARK                            x       y       z     vdW  Elec       q    Type
REMARK                         _______ _______ _______ _____ _____    ______ ____
ROOT
ATOM      1  C   LIG    1       24.592 -14.243   2.991  0.00  0.00    +0.111 C 
ENDROOT
BRANCH   1   3
ATOM      2  O   LIG    1       23.783 -12.220   4.058  0.00  0.00    -0.251 OA
ATOM      3  C   LIG    1       24.065 -12.813   3.035  0.00  0.00    +0.309 C 
BRANCH   3   4
ATOM      4  O   LIG    1       23.944 -12.228   1.819  0.00  0.00    -0.480 OA
ATOM      5  H   LIG    1       23.017 -11.947   1.629  0.00  0.00    +0.295 HD
ENDBRANCH   3   4
ENDBRANCH   1   3
BRANCH   1   6
ATOM      6  C   LIG    1       24.474 -14.921   4.364  0.00  0.00    +0.110 C 
BRANCH   6   7
ATOM      7  C   LIG    1       23.182 -15.688   4.547  0.00  0.00    +0.216 C 
ATOM      8  N   LIG    1       23.253 -17.057   4.433  0.00  0.00    -0.301 N 
ATOM      9  C   LIG    1       24.398 -17.861   4.024  0.00  0.00    +0.111 C 
ATOM     10  C   LIG    1       23.755 -19.113   3.428  0.00  0.00    +0.011 C 
ATOM     11  C   LIG    1       22.507 -19.317   4.304  0.00  0.00    +0.011 C 
ATOM     12  C   LIG    1       22.771 -20.123   5.582  0.00  0.00    +0.005 C 
ATOM     13  C   LIG    1       23.574 -21.387   5.300  0.00  0.00    +0.000 C 
ATOM     14  C   LIG    1       24.906 -21.038   4.648  0.00  0.00    +0.000 C 
ATOM     15  C   LIG    1       24.692 -20.312   3.325  0.00  0.00    +0.005 C 
ATOM     16  C   LIG    1       22.067 -17.880   4.614  0.00  0.00    +0.111 C 
ATOM     17  O   LIG    1       22.119 -15.100   4.763  0.00  0.00    -0.276 OA
ENDBRANCH   6   7
ENDBRANCH   1   6
BRANCH   1  18
ATOM     18  C   LIG    1       26.064 -14.185   2.521  0.00  0.00    +0.050 C 
BRANCH  18  19
ATOM     19  C   LIG    1       27.025 -13.576   3.518  0.00  0.00    -0.047 A 
ATOM     20  C   LIG    1       26.759 -13.629   4.891  0.00  0.00    +0.003 A 
ATOM     21  C   LIG    1       27.649 -13.059   5.806  0.00  0.00    +0.000 A 
ATOM     22  C   LIG    1       28.805 -12.423   5.358  0.00  0.00    +0.000 A 
ATOM     23  C   LIG    1       29.080 -12.361   3.994  0.00  0.00    +0.000 A 
ATOM     24  C   LIG    1       28.200 -12.942   3.080  0.00  0.00    +0.003 A 
ENDBRANCH  18  19
ENDBRANCH   1  18
TORSDOF 6
ENDMDL
MODEL 3
REMARK VINA RESULT:      -2.9      1.655      2.356
REMARK  Name = *****
REMARK                            x       y       z     vdW  Elec       q    Type
REMARK                         _______ _______ _______ _____ _____    ______ ____
ROOT
ATOM      1  C   LIG    1       24.338 -19.677   4.964  0.00  0.00    +0.111 C 
ENDROOT
BRANCH   1   3
ATOM      2  O   LIG    1       23.133 -20.925   6.660  0.00  0.00    -0.251 OA
ATOM      3  C   LIG    1       23.333 -20.701   5.482  0.00  0.00    +0.309 C 
BRANCH   3   4
ATOM      4  O   LIG    1       22.652 -21.351   4.509  0.00  0.00    -0.480 OA
ATOM      5  H   LIG    1       21.725 -21.558   4.776  0.00  0.00    +0.295 HD
ENDBRANCH   3   4
ENDBRANCH   1   3
BRANCH   1   6
ATOM      6  C   LIG    1       23.747 -18.853   3.810  0.00  0.00    +0.110 C 
BRANCH   6   7
ATOM      7  C   LIG    1       23.073 -17.577   4.266  0.00  0.00    +0.216 C 
ATOM      8  N   LIG    1       23.762 -16.404   4.058  0.00  0.00    -0.301 N 
ATOM      9  C   LIG    1       25.125 -16.244   3.571  0.00  0.00    +0.111 C 
ATOM     10  C   LIG    1       25.563 -14.912   4.181  0.00  0.00    +0.011 C 
ATOM     11  C   LIG    1       24.270 -14.079   4.166  0.00  0.00    +0.011 C 
ATOM     12  C   LIG    1       24.025 -13.337   2.846  0.00  0.00    +0.005 C 
ATOM     13  C   LIG    1       25.271 -12.601   2.369  0.00  0.00    +0.000 C 
ATOM     14  C   LIG    1       26.427 -13.575   2.185  0.00  0.00    +0.000 C 
ATOM     15  C   LIG    1       26.767 -14.273   3.496  0.00  0.00    +0.005 C 
ATOM     16  C   LIG    1       23.183 -15.126   4.444  0.00  0.00    +0.111 C 
ATOM     17  O   LIG    1       21.970 -17.604   4.818  0.00  0.00    -0.276 OA
ENDBRANCH   6   7
ENDBRANCH   1   6
BRANCH   1  18
ATOM     18  C   LIG    1       25.600 -20.449   4.511  0.00  0.00    +0.050 C 
BRANCH  18  19
ATOM     19  C   LIG    1       26.867 -20.083   5.252  0.00  0.00    -0.047 A 
ATOM     20  C   LIG    1       27.666 -19.018   4.820  0.00  0.00    +0.003 A 
ATOM     21  C   LIG    1       28.838 -18.689   5.506  0.00  0.00    +0.000 A 
ATOM     22  C   LIG    1       29.228 -19.426   6.623  0.00  0.00    +0.000 A 
ATOM     23  C   LIG    1       28.443 -20.489   7.062  0.00  0.00    +0.000 A 
ATOM     24  C   LIG    1       27.264 -20.810   6.386  0.00  0.00    +0.003 A 
ENDBRANCH  18  19
ENDBRANCH   1  18
TORSDOF 6
ENDMDL
MODEL 4
REMARK VINA RESULT:      -2.8      1.819      3.545
REMARK  Name = *****
REMARK                            x       y       z     vdW  Elec       q    Type
REMARK                         _______ _______ _______ _____ _____    ______ ____
ROOT
ATOM      1  C   LIG    1       26.394 -19.616   3.673  0.00  0.00    +0.111 C 
ENDROOT
BRANCH   1   3
ATOM      2  O   LIG    1       26.022 -19.970   6.044  0.00  0.00    -0.251 OA
ATOM      3  C   LIG    1       26.805 -19.862   5.120  0.00  0.00    +0.309 C 
BRANCH   3   4
ATOM      4  O   LIG    1       28.142 -19.966   5.307  0.00  0.00    -0.480 OA
ATOM      5  H   LIG    1       28.625 -20.146   4.466  0.00  0.00    +0.295 HD
ENDBRANCH   3   4
ENDBRANCH   1   3
BRANCH   1   6
ATOM      6  C   LIG    1       25.905 -18.174   3.471  0.00  0.00    +0.110 C 
BRANCH   6   7
ATOM      7  C   LIG    1       26.949 -17.132   3.813  0.00  0.00    +0.216 C 
ATOM      8  N   LIG    1       26.542 -15.818   3.792  0.00  0.00    -0.301 N 
ATOM      9  C   LIG    1       25.258 -15.288   3.352  0.00  0.00    +0.111 C 
ATOM     10  C   LIG    1       25.600 -13.867   2.900  0.00  0.00    +0.011 C 
ATOM     11  C   LIG    1       26.701 -13.442   3.887  0.00  0.00    +0.011 C 
ATOM     12  C   LIG    1       26.166 -12.845   5.195  0.00  0.00    +0.005 C 
ATOM     13  C   LIG    1       25.089 -11.797   4.940  0.00  0.00    +0.000 C 
ATOM     14  C   LIG    1       23.930 -12.403   4.159  0.00  0.00    +0.000 C 
ATOM     15  C   LIG    1       24.399 -12.931   2.809  0.00  0.00    +0.005 C 
ATOM     16  C   LIG    1       27.470 -14.748   4.127  0.00  0.00    +0.111 C 
ATOM     17  O   LIG    1       28.110 -17.457   4.071  0.00  0.00    -0.276 OA
ENDBRANCH   6   7
ENDBRANCH   1   6
BRANCH   1  18
ATOM     18  C   LIG    1       25.285 -20.637   3.323  0.00  0.00    +0.050 C 
BRANCH  18  19
ATOM     19  C   LIG    1       23.913 -20.291   3.858  0.00  0.00    -0.047 A 
ATOM     20  C   LIG    1       23.139 -21.253   4.517  0.00  0.00    +0.003 A 
ATOM     21  C   LIG    1       21.870 -20.927   5.004  0.00  0.00    +0.000 A 
ATOM     22  C   LIG    1       21.359 -19.642   4.828  0.00  0.00    +0.000 A 
ATOM     23  C   LIG    1       22.118 -18.677   4.172  0.00  0.00    +0.000 A 
ATOM     24  C   LIG    1       23.391 -18.996   3.698  0.00  0.00    +0.003 A 
ENDBRANCH  18  19
ENDBRANCH   1  18
TORSDOF 6
ENDMDL
MODEL 5
REMARK VINA RESULT:      -2.7      2.086      3.609
REMARK  Name = *****
REMARK                            x       y       z     vdW  Elec       q    Type
REMARK                         _______ _______ _______ _____ _____    ______ ____
ROOT
ATOM      1  C   LIG    1       27.161 -20.144   4.684  0.00  0.00    +0.111 C 
ENDROOT
BRANCH   1   3
ATOM      2  O   LIG    1       27.086 -19.658   7.060  0.00  0.00    -0.251 OA
ATOM      3  C   LIG    1       27.748 -19.920   6.074  0.00  0.00    +0.309 C 
BRANCH   3   4
ATOM      4  O   LIG    1       29.094 -20.051   6.136  0.00  0.00    -0.480 OA
ATOM      5  H   LIG    1       29.543 -19.683   5.339  0.00  0.00    +0.295 HD
ENDBRANCH   3   4
ENDBRANCH   1   3
BRANCH   1   6
ATOM      6  C   LIG    1       26.734 -18.816   4.042  0.00  0.00    +0.110 C 
BRANCH   6   7
ATOM      7  C   LIG    1       27.673 -17.670   4.347  0.00  0.00    +0.216 C 
ATOM      8  N   LIG    1       27.186 -16.399   4.145  0.00  0.00    -0.301 N 
ATOM      9  C   LIG    1       25.915 -16.015   3.545  0.00  0.00    +0.111 C 
ATOM     10  C   LIG    1       26.203 -14.629   2.966  0.00  0.00    +0.011 C 
ATOM     11  C   LIG    1       27.183 -14.021   3.984  0.00  0.00    +0.011 C 
ATOM     12  C   LIG    1       26.496 -13.328   5.168  0.00  0.00    +0.005 C 
ATOM     13  C   LIG    1       25.380 -12.397   4.710  0.00  0.00    +0.000 C 
ATOM     14  C   LIG    1       24.337 -13.166   3.911  0.00  0.00    +0.000 C 
ATOM     15  C   LIG    1       24.958 -13.800   2.672  0.00  0.00    +0.005 C 
ATOM     16  C   LIG    1       28.009 -15.234   4.432  0.00  0.00    +0.111 C 
ATOM     17  O   LIG    1       28.826 -17.879   4.734  0.00  0.00    -0.276 OA
ENDBRANCH   6   7
ENDBRANCH   1   6
BRANCH   1  18
ATOM     18  C   LIG    1       25.959 -21.106   4.834  0.00  0.00    +0.050 C 
BRANCH  18  19
ATOM     19  C   LIG    1       24.603 -20.438   4.794  0.00  0.00    -0.047 A 
ATOM     20  C   LIG    1       24.176 -19.755   3.649  0.00  0.00    +0.003 A 
ATOM     21  C   LIG    1       22.924 -19.135   3.622  0.00  0.00    +0.000 A 
ATOM     22  C   LIG    1       22.092 -19.182   4.739  0.00  0.00    +0.000 A 
ATOM     23  C   LIG    1       22.506 -19.856   5.885  0.00  0.00    +0.000 A 
ATOM     24  C   LIG    1       23.750 -20.488   5.909  0.00  0.00    +0.003 A 
ENDBRANCH  18  19
ENDBRANCH   1  18
TORSDOF 6
ENDMDL
MODEL 6
REMARK VINA RESULT:      -2.5      1.896      3.845
REMARK  Name = *****
REMARK                            x       y       z     vdW  Elec       q    Type
REMARK                         _______ _______ _______ _____ _____    ______ ____
ROOT
ATOM      1  C   LIG    1       25.421 -19.292   3.883  0.00  0.00    +0.111 C 
ENDROOT
BRANCH   1   3
ATOM      2  O   LIG    1       25.756 -20.132   6.134  0.00  0.00    -0.251 OA
ATOM      3  C   LIG    1       26.203 -19.943   5.019  0.00  0.00    +0.309 C 
BRANCH   3   4
ATOM      4  O   LIG    1       27.459 -20.320   4.684  0.00  0.00    -0.480 OA
ATOM      5  H   LIG    1       27.509 -20.689   3.770  0.00  0.00    +0.295 HD
ENDBRANCH   3   4
ENDBRANCH   1   3
BRANCH   1   6
ATOM      6  C   LIG    1       26.329 -18.398   3.025  0.00  0.00    +0.110 C 
BRANCH   6   7
ATOM      7  C   LIG    1       27.097 -17.371   3.830  0.00  0.00    +0.216 C 
ATOM      8  N   LIG    1       26.657 -16.070   3.755  0.00  0.00    -0.301 N 
ATOM      9  C   LIG    1       25.619 -15.527   2.889  0.00  0.00    +0.111 C 
ATOM     10  C   LIG    1       26.029 -14.063   2.721  0.00  0.00    +0.011 C 
ATOM     11  C   LIG    1       26.634 -13.711   4.092  0.00  0.00    +0.011 C 
ATOM     12  C   LIG    1       25.599 -13.250   5.126  0.00  0.00    +0.005 C 
ATOM     13  C   LIG    1       24.649 -12.206   4.552  0.00  0.00    +0.000 C 
ATOM     14  C   LIG    1       23.922 -12.759   3.334  0.00  0.00    +0.000 C 
ATOM     15  C   LIG    1       24.909 -13.148   2.239  0.00  0.00    +0.005 C 
ATOM     16  C   LIG    1       27.319 -15.018   4.511  0.00  0.00    +0.111 C 
ATOM     17  O   LIG    1       28.082 -17.695   4.498  0.00  0.00    -0.276 OA
ENDBRANCH   6   7
ENDBRANCH   1   6
BRANCH   1  18
ATOM     18  C   LIG    1       24.270 -18.475   4.517  0.00  0.00    +0.050 C 
BRANCH  18  19
ATOM     19  C   LIG    1       22.895 -19.082   4.348  0.00  0.00    -0.047 A 
ATOM     20  C   LIG    1       21.842 -18.331   3.813  0.00  0.00    +0.003 A 
ATOM     21  C   LIG    1       20.573 -18.897   3.666  0.00  0.00    +0.000 A 
ATOM     22  C   LIG    1       20.341 -20.213   4.060  0.00  0.00    +0.000 A 
ATOM     23  C   LIG    1       21.379 -20.970   4.596  0.00  0.00    +0.000 A 
ATOM     24  C   LIG    1       22.651 -20.412   4.731  0.00  0.00    +0.003 A 
ENDBRANCH  18  19
ENDBRANCH   1  18
TORSDOF 6
ENDMDL
MODEL 7
REMARK VINA RESULT:      -2.4      2.274      6.379
REMARK  Name = *****
REMARK                            x       y       z     vdW  Elec       q    Type
REMARK                         _______ _______ _______ _____ _____    ______ ____
ROOT
ATOM      1  C   LIG    1       27.269 -18.089   4.584  0.00  0.00    +0.111 C 
ENDROOT
BRANCH   1   3
ATOM      2  O   LIG    1       29.471 -17.812   5.564  0.00  0.00    -0.251 OA
ATOM      3  C   LIG    1       28.590 -18.559   5.184  0.00  0.00    +0.309 C 
BRANCH   3   4
ATOM      4  O   LIG    1       28.710 -19.905   5.277  0.00  0.00    -0.480 OA
ATOM      5  H   LIG    1       29.362 -20.269   4.633  0.00  0.00    +0.295 HD
ENDBRANCH   3   4
ENDBRANCH   1   3
BRANCH   1   6
ATOM      6  C   LIG    1       26.556 -19.232   3.845  0.00  0.00    +0.110 C 
BRANCH   6   7
ATOM      7  C   LIG    1       25.691 -20.084   4.748  0.00  0.00    +0.216 C 
ATOM      8  N   LIG    1       24.338 -19.839   4.722  0.00  0.00    -0.301 N 
ATOM      9  C   LIG    1       23.639 -18.766   4.027  0.00  0.00    +0.111 C 
ATOM     10  C   LIG    1       22.374 -18.569   4.865  0.00  0.00    +0.011 C 
ATOM     11  C   LIG    1       22.040 -19.996   5.333  0.00  0.00    +0.011 C 
ATOM     12  C   LIG    1       21.194 -20.795   4.334  0.00  0.00    +0.005 C 
ATOM     13  C   LIG    1       20.005 -19.988   3.825  0.00  0.00    +0.000 C 
ATOM     14  C   LIG    1       20.479 -18.703   3.159  0.00  0.00    +0.000 C 
ATOM     15  C   LIG    1       21.251 -17.832   4.143  0.00  0.00    +0.005 C 
ATOM     16  C   LIG    1       23.425 -20.623   5.540  0.00  0.00    +0.111 C 
ATOM     17  O   LIG    1       26.191 -20.937   5.486  0.00  0.00    -0.276 OA
ENDBRANCH   6   7
ENDBRANCH   1   6
BRANCH   1  18
ATOM     18  C   LIG    1       27.583 -16.915   3.627  0.00  0.00    +0.050 C 
BRANCH  18  19
ATOM     19  C   LIG    1       26.762 -15.667   3.865  0.00  0.00    -0.047 A 
ATOM     20  C   LIG    1       27.361 -14.499   4.350  0.00  0.00    +0.003 A 
ATOM     21  C   LIG    1       26.595 -13.351   4.573  0.00  0.00    +0.000 A 
ATOM     22  C   LIG    1       25.224 -13.362   4.322  0.00  0.00    +0.000 A 
ATOM     23  C   LIG    1       24.616 -14.519   3.841  0.00  0.00    +0.000 A 
ATOM     24  C   LIG    1       25.382 -15.662   3.605  0.00  0.00    +0.003 A 
ENDBRANCH  18  19
ENDBRANCH   1  18
TORSDOF 6
ENDMDL
