MODEL 1
REMARK VINA RESULT:      -3.2      0.000      0.000
REMARK  Name = *****
REMARK                            x       y       z     vdW  Elec       q    Type
REMARK                         _______ _______ _______ _____ _____    ______ ____
ROOT
ATOM      1  C   LIG    1       25.575 -14.495   3.767  0.00  0.00    +0.040 C 
ATOM      2  C   LIG    1       26.996 -14.531   3.230  0.00  0.00    +0.137 C 
ENDROOT
BRANCH   2   3
ATOM      3  O   LIG    1       27.003 -14.135   1.853  0.00  0.00    -0.390 OA
ATOM      4  H   LIG    1       27.882 -13.770   1.650  0.00  0.00    +0.210 HD
ENDBRANCH   2   3
BRANCH   2   5
ATOM      5  C   LIG    1       27.932 -13.600   4.007  0.00  0.00    +0.186 C 
BRANCH   5   6
ATOM      6  O   LIG    1       29.133 -13.402   3.263  0.00  0.00    -0.393 OA
ATOM      7  H   LIG    1       29.383 -12.467   3.404  0.00  0.00    +0.209 HD
ENDBRANCH   5   6
ENDBRANCH   2   5
TORSDOF 3
ENDMDL
MODEL 2
REMARK VINA RESULT:      -3.1      2.234      2.886
REMARK  Name = *****
REMARK                            x       y       z     vdW  Elec       q    Type
REMARK                         _______ _______ _______ _____ _____    ______ ____
ROOT
ATOM      1  C   LIG    1       24.060 -14.042   4.088  0.00  0.00    +0.040 C 
ATOM      2  C   LIG    1       24.421 -13.373   2.773  0.00  0.00    +0.137 C 
ENDROOT
BRANCH   2   3
ATOM      3  O   LIG    1       23.767 -12.101   2.680  0.00  0.00    -0.390 OA
ATOM      4  H   LIG    1       24.232 -11.572   2.009  0.00  0.00    +0.210 HD
ENDBRANCH   2   3
BRANCH   2   5
ATOM      5  C   LIG    1       25.930 -13.153   2.631  0.00  0.00    +0.186 C 
BRANCH   5   6
ATOM      6  O   LIG    1       26.503 -14.234   1.898  0.00  0.00    -0.393 OA
ATOM      7  H   LIG    1       26.944 -14.802   2.562  0.00  0.00    +0.209 HD
ENDBRANCH   5   6
ENDBRANCH   2   5
TORSDOF 3
ENDMDL
MODEL 3
REMARK VINA RESULT:      -3.1      2.389      2.525
REMARK  Name = *****
REMARK                            x       y       z     vdW  Elec       q    Type
REMARK                         _______ _______ _______ _____ _____    ______ ____
ROOT
ATOM      1  C   LIG    1       27.472 -14.800   3.910  0.00  0.00    +0.040 C 
ATOM      2  C   LIG    1       27.399 -13.378   4.441  0.00  0.00    +0.137 C 
ENDROOT
BRANCH   2   3
ATOM      3  O   LIG    1       27.051 -13.398   5.831  0.00  0.00    -0.390 OA
ATOM      4  H   LIG    1       26.148 -13.753   5.909  0.00  0.00    +0.210 HD
ENDBRANCH   2   3
BRANCH   2   5
ATOM      5  C   LIG    1       28.729 -12.633   4.286  0.00  0.00    +0.186 C 
BRANCH   5   6
ATOM      6  O   LIG    1       29.007 -11.899   5.476  0.00  0.00    -0.393 OA
ATOM      7  H   LIG    1       29.013 -10.956   5.213  0.00  0.00    +0.209 HD
ENDBRANCH   5   6
ENDBRANCH   2   5
TORSDOF 3
ENDMDL
MODEL 4
REMARK VINA RESULT:      -3.1      1.584      2.788
REMARK  Name = *****
REMARK                            x       y       z     vdW  Elec       q    Type
REMARK                         _______ _______ _______ _____ _____    ______ ____
ROOT
ATOM      1  C   LIG    1       28.641 -13.051   3.803  0.00  0.00    +0.040 C 
ATOM      2  C   LIG    1       27.370 -13.770   4.225  0.00  0.00    +0.137 C 
ENDROOT
BRANCH   2   3
ATOM      3  O   LIG    1       26.884 -13.213   5.453  0.00  0.00    -0.390 OA
ATOM      4  H   LIG    1       27.652 -12.940   5.983  0.00  0.00    +0.210 HD
ENDBRANCH   2   3
BRANCH   2   5
ATOM      5  C   LIG    1       26.265 -13.657   3.171  0.00  0.00    +0.186 C 
BRANCH   5   6
ATOM      6  O   LIG    1       26.699 -14.267   1.956  0.00  0.00    -0.393 OA
ATOM      7  H   LIG    1       27.573 -13.876   1.758  0.00  0.00    +0.209 HD
ENDBRANCH   5   6
ENDBRANCH   2   5
TORSDOF 3
ENDMDL
MODEL 5
REMARK VINA RESULT:      -3.0      1.617      2.274
REMARK  Name = *****
REMARK                            x       y       z     vdW  Elec       q    Type
REMARK                         _______ _______ _______ _____ _____    ______ ____
ROOT
ATOM      1  C   LIG    1       24.872 -14.140   4.265  0.00  0.00    +0.040 C 
ATOM      2  C   LIG    1       26.250 -13.505   4.183  0.00  0.00    +0.137 C 
ENDROOT
BRANCH   2   3
ATOM      3  O   LIG    1       26.794 -13.357   5.500  0.00  0.00    -0.390 OA
ATOM      4  H   LIG    1       26.764 -14.226   5.937  0.00  0.00    +0.210 HD
ENDBRANCH   2   3
BRANCH   2   5
ATOM      5  C   LIG    1       27.224 -14.341   3.348  0.00  0.00    +0.186 C 
BRANCH   5   6
ATOM      6  O   LIG    1       26.949 -14.150   1.961  0.00  0.00    -0.393 OA
ATOM      7  H   LIG    1       25.986 -14.287   1.858  0.00  0.00    +0.209 HD
ENDBRANCH   5   6
ENDBRANCH   2   5
TORSDOF 3
ENDMDL
MODEL 6
REMARK VINA RESULT:      -3.0      2.067      3.038
REMARK  Name = *****
REMARK                            x       y       z     vdW  Elec       q    Type
REMARK                         _______ _______ _______ _____ _____    ______ ____
ROOT
ATOM      1  C   LIG    1       25.495 -14.419   3.860  0.00  0.00    +0.040 C 
ATOM      2  C   LIG    1       26.049 -13.446   2.832  0.00  0.00    +0.137 C 
ENDROOT
BRANCH   2   3
ATOM      3  O   LIG    1       26.821 -14.159   1.858  0.00  0.00    -0.390 OA
ATOM      4  H   LIG    1       26.764 -13.674   1.016  0.00  0.00    +0.210 HD
ENDBRANCH   2   3
BRANCH   2   5
ATOM      5  C   LIG    1       24.940 -12.681   2.105  0.00  0.00    +0.186 C 
BRANCH   5   6
ATOM      6  O   LIG    1       23.667 -13.127   2.570  0.00  0.00    -0.393 OA
ATOM      7  H   LIG    1       23.385 -13.826   1.946  0.00  0.00    +0.209 HD
ENDBRANCH   5   6
ENDBRANCH   2   5
TORSDOF 3
ENDMDL
MODEL 7
REMARK VINA RESULT:      -3.0      6.628      7.223
REMARK  Name = *****
REMARK                            x       y       z     vdW  Elec       q    Type
REMARK                         _______ _______ _______ _____ _____    ______ ____
ROOT
ATOM      1  C   LIG    1       22.537 -19.318   4.849  0.00  0.00    +0.040 C 
ATOM      2  C   LIG    1       23.739 -20.247   4.813  0.00  0.00    +0.137 C 
ENDROOT
BRANCH   2   3
ATOM      3  O   LIG    1       23.319 -21.571   4.461  0.00  0.00    -0.390 OA
ATOM      4  H   LIG    1       22.901 -21.529   3.583  0.00  0.00    +0.210 HD
ENDBRANCH   2   3
BRANCH   2   5
ATOM      5  C   LIG    1       24.794 -19.788   3.802  0.00  0.00    +0.186 C 
BRANCH   5   6
ATOM      6  O   LIG    1       26.074 -20.285   4.190  0.00  0.00    -0.393 OA
ATOM      7  H   LIG    1       26.727 -19.775   3.669  0.00  0.00    +0.209 HD
ENDBRANCH   5   6
ENDBRANCH   2   5
TORSDOF 3
ENDMDL
MODEL 8
REMARK VINA RESULT:      -3.0      1.338      1.338
REMARK  Name = *****
REMARK                            x       y       z     vdW  Elec       q    Type
REMARK                         _______ _______ _______ _____ _____    ______ ____
ROOT
ATOM      1  C   LIG    1       25.355 -14.457   3.781  0.00  0.00    +0.040 C 
ATOM      2  C   LIG    1       26.804 -14.518   3.327  0.00  0.00    +0.137 C 
ENDROOT
BRANCH   2   3
ATOM      3  O   LIG    1       26.896 -14.144   1.947  0.00  0.00    -0.390 OA
ATOM      4  H   LIG    1       27.051 -13.185   1.905  0.00  0.00    +0.210 HD
ENDBRANCH   2   3
BRANCH   2   5
ATOM      5  C   LIG    1       27.705 -13.586   4.142  0.00  0.00    +0.186 C 
BRANCH   5   6
ATOM      6  O   LIG    1       27.054 -13.240   5.363  0.00  0.00    -0.393 OA
ATOM      7  H   LIG    1       27.439 -12.383   5.638  0.00  0.00    +0.209 HD
ENDBRANCH   5   6
ENDBRANCH   2   5
TORSDOF 3
ENDMDL
MODEL 9
REMARK VINA RESULT:      -3.0      7.670      8.116
REMARK  Name = *****
REMARK                            x       y       z     vdW  Elec       q    Type
REMARK                         _______ _______ _______ _____ _____    ______ ____
ROOT
ATOM      1  C   LIG    1       22.351 -19.178   4.822  0.00  0.00    +0.040 C 
ATOM      2  C   LIG    1       23.059 -20.478   5.168  0.00  0.00    +0.137 C 
ENDROOT
BRANCH   2   3
ATOM      3  O   LIG    1       22.112 -21.553   5.196  0.00  0.00    -0.390 OA
ATOM      4  H   LIG    1       22.569 -22.363   4.909  0.00  0.00    +0.210 HD
ENDBRANCH   2   3
BRANCH   2   5
ATOM      5  C   LIG    1       24.157 -20.825   4.159  0.00  0.00    +0.186 C 
BRANCH   5   6
ATOM      6  O   LIG    1       25.185 -21.572   4.808  0.00  0.00    -0.393 OA
ATOM      7  H   LIG    1       24.789 -22.441   5.020  0.00  0.00    +0.209 HD
ENDBRANCH   5   6
ENDBRANCH   2   5
TORSDOF 3
ENDMDL
