MODEL 1
REMARK VINA RESULT:      -3.8      0.000      0.000
REMARK  Name = *****
REMARK                            x       y       z     vdW  Elec       q    Type
REMARK                         _______ _______ _______ _____ _____    ______ ____
ROOT
ATOM      1  C   LIG    1       25.587 -18.856   3.681  0.00  0.00    +0.034 C 
ATOM      2  C   LIG    1       26.039 -19.712   4.900  0.00  0.00    -0.032 A 
ATOM      3  C   LIG    1       25.101 -20.717   5.266  0.00  0.00    -0.036 A 
ATOM      4  C   LIG    1       25.339 -21.571   6.336  0.00  0.00    +0.004 A 
ATOM      5  C   LIG    1       26.523 -21.428   7.058  0.00  0.00    +0.000 A 
ATOM      6  C   LIG    1       27.451 -20.436   6.713  0.00  0.00    +0.000 A 
ATOM      7  C   LIG    1       23.847 -20.740   4.401  0.00  0.00    +0.050 C 
ATOM      8  C   LIG    1       23.256 -19.336   4.401  0.00  0.00    -0.036 A 
ATOM      9  C   LIG    1       21.946 -19.027   4.752  0.00  0.00    +0.004 A 
ATOM     10  C   LIG    1       21.542 -17.694   4.733  0.00  0.00    +0.000 A 
ATOM     11  C   LIG    1       22.441 -16.683   4.373  0.00  0.00    +0.000 A 
ATOM     12  C   LIG    1       23.760 -16.989   4.022  0.00  0.00    +0.005 A 
ATOM     13  C   LIG    1       24.336 -21.002   2.960  0.00  0.00    +0.014 C 
ATOM     14  C   LIG    1       27.213 -19.574   5.637  0.00  0.00    +0.005 A 
ATOM     15  C   LIG    1       24.176 -18.317   4.026  0.00  0.00    -0.032 A 
ATOM     16  C   LIG    1       25.354 -19.904   2.531  0.00  0.00    +0.018 C 
ENDROOT
BRANCH   1  17
ATOM     17  C   LIG    1       26.640 -17.787   3.256  0.00  0.00    +0.097 C 
BRANCH  17  19
ATOM     18  C   LIG    1       27.143 -15.455   3.669  0.00  0.00    +0.101 C 
ATOM     19  N   LIG    1       26.145 -16.399   3.186  0.00  0.00    -0.318 NA
ATOM     20  H   LIG    1       25.900 -16.167   2.224  0.00  0.00    +0.122 HD
ENDBRANCH  17  19
ENDBRANCH   1  17
TORSDOF 2
ENDMDL
MODEL 2
REMARK VINA RESULT:      -3.7      1.798      4.707
REMARK  Name = *****
REMARK                            x       y       z     vdW  Elec       q    Type
REMARK                         _______ _______ _______ _____ _____    ______ ____
ROOT
ATOM      1  C   LIG    1       23.065 -18.931   4.062  0.00  0.00    +0.034 C 
ATOM      2  C   LIG    1       23.978 -17.682   3.892  0.00  0.00    -0.032 A 
ATOM      3  C   LIG    1       25.320 -18.005   3.549  0.00  0.00    -0.036 A 
ATOM      4  C   LIG    1       26.276 -17.013   3.364  0.00  0.00    +0.004 A 
ATOM      5  C   LIG    1       25.899 -15.681   3.522  0.00  0.00    +0.000 A 
ATOM      6  C   LIG    1       24.583 -15.351   3.868  0.00  0.00    +0.000 A 
ATOM      7  C   LIG    1       25.589 -19.500   3.431  0.00  0.00    +0.050 C 
ATOM      8  C   LIG    1       25.122 -20.160   4.723  0.00  0.00    -0.036 A 
ATOM      9  C   LIG    1       25.912 -20.973   5.528  0.00  0.00    +0.004 A 
ATOM     10  C   LIG    1       25.366 -21.493   6.700  0.00  0.00    +0.000 A 
ATOM     11  C   LIG    1       24.046 -21.196   7.062  0.00  0.00    +0.000 A 
ATOM     12  C   LIG    1       23.249 -20.378   6.256  0.00  0.00    +0.005 A 
ATOM     13  C   LIG    1       24.643 -20.010   2.321  0.00  0.00    +0.014 C 
ATOM     14  C   LIG    1       23.619 -16.347   4.057  0.00  0.00    +0.005 A 
ATOM     15  C   LIG    1       23.777 -19.859   5.077  0.00  0.00    -0.032 A 
ATOM     16  C   LIG    1       23.165 -19.680   2.683  0.00  0.00    +0.018 C 
ENDROOT
BRANCH   1  17
ATOM     17  C   LIG    1       21.584 -18.569   4.393  0.00  0.00    +0.097 C 
BRANCH  17  19
ATOM     18  C   LIG    1       19.484 -18.914   3.238  0.00  0.00    +0.101 C 
ATOM     19  N   LIG    1       20.748 -18.190   3.238  0.00  0.00    -0.318 NA
ATOM     20  H   LIG    1       20.561 -17.189   3.259  0.00  0.00    +0.122 HD
ENDBRANCH  17  19
ENDBRANCH   1  17
TORSDOF 2
ENDMDL
MODEL 3
REMARK VINA RESULT:      -3.6      1.889      5.164
REMARK  Name = *****
REMARK                            x       y       z     vdW  Elec       q    Type
REMARK                         _______ _______ _______ _____ _____    ______ ____
ROOT
ATOM      1  C   LIG    1       23.647 -20.196   4.771  0.00  0.00    +0.034 C 
ATOM      2  C   LIG    1       23.429 -18.667   4.586  0.00  0.00    -0.032 A 
ATOM      3  C   LIG    1       24.489 -18.023   3.889  0.00  0.00    -0.036 A 
ATOM      4  C   LIG    1       24.463 -16.656   3.639  0.00  0.00    +0.004 A 
ATOM      5  C   LIG    1       23.372 -15.913   4.088  0.00  0.00    +0.000 A 
ATOM      6  C   LIG    1       22.327 -16.534   4.782  0.00  0.00    +0.000 A 
ATOM      7  C   LIG    1       25.620 -18.958   3.479  0.00  0.00    +0.050 C 
ATOM      8  C   LIG    1       26.083 -19.702   4.726  0.00  0.00    -0.036 A 
ATOM      9  C   LIG    1       27.396 -19.739   5.184  0.00  0.00    +0.004 A 
ATOM     10  C   LIG    1       27.678 -20.438   6.357  0.00  0.00    +0.000 A 
ATOM     11  C   LIG    1       26.656 -21.085   7.062  0.00  0.00    +0.000 A 
ATOM     12  C   LIG    1       25.335 -21.047   6.605  0.00  0.00    +0.005 A 
ATOM     13  C   LIG    1       24.976 -20.018   2.559  0.00  0.00    +0.014 C 
ATOM     14  C   LIG    1       22.351 -17.909   5.037  0.00  0.00    +0.005 A 
ATOM     15  C   LIG    1       25.039 -20.362   5.431  0.00  0.00    -0.032 A 
ATOM     16  C   LIG    1       23.821 -20.747   3.307  0.00  0.00    +0.018 C 
ENDROOT
BRANCH   1  17
ATOM     17  C   LIG    1       22.461 -20.904   5.495  0.00  0.00    +0.097 C 
BRANCH  17  19
ATOM     18  C   LIG    1       20.520 -20.621   4.075  0.00  0.00    +0.101 C 
ATOM     19  N   LIG    1       21.484 -21.571   4.614  0.00  0.00    -0.318 NA
ATOM     20  H   LIG    1       21.968 -22.030   3.844  0.00  0.00    +0.122 HD
ENDBRANCH  17  19
ENDBRANCH   1  17
TORSDOF 2
ENDMDL
MODEL 4
REMARK VINA RESULT:      -1.3      3.015      6.391
REMARK  Name = *****
REMARK                            x       y       z     vdW  Elec       q    Type
REMARK                         _______ _______ _______ _____ _____    ______ ____
ROOT
ATOM      1  C   LIG    1       26.576 -14.366   3.986  0.00  0.00    +0.034 C 
ATOM      2  C   LIG    1       25.701 -13.275   3.304  0.00  0.00    -0.032 A 
ATOM      3  C   LIG    1       24.357 -13.255   3.769  0.00  0.00    -0.036 A 
ATOM      4  C   LIG    1       23.432 -12.348   3.265  0.00  0.00    +0.004 A 
ATOM      5  C   LIG    1       23.843 -11.447   2.283  0.00  0.00    +0.000 A 
ATOM      6  C   LIG    1       25.161 -11.462   1.812  0.00  0.00    +0.000 A 
ATOM      7  C   LIG    1       24.049 -14.310   4.825  0.00  0.00    +0.050 C 
ATOM      8  C   LIG    1       24.475 -15.663   4.269  0.00  0.00    -0.036 A 
ATOM      9  C   LIG    1       23.648 -16.777   4.177  0.00  0.00    +0.004 A 
ATOM     10  C   LIG    1       24.158 -17.949   3.621  0.00  0.00    +0.000 A 
ATOM     11  C   LIG    1       25.479 -18.000   3.160  0.00  0.00    +0.000 A 
ATOM     12  C   LIG    1       26.313 -16.880   3.248  0.00  0.00    +0.005 A 
ATOM     13  C   LIG    1       24.999 -14.011   6.005  0.00  0.00    +0.014 C 
ATOM     14  C   LIG    1       26.094 -12.375   2.317  0.00  0.00    +0.005 A 
ATOM     15  C   LIG    1       25.820 -15.706   3.809  0.00  0.00    -0.032 A 
ATOM     16  C   LIG    1       26.480 -14.042   5.523  0.00  0.00    +0.018 C 
ENDROOT
BRANCH   1  17
ATOM     17  C   LIG    1       28.061 -14.352   3.506  0.00  0.00    +0.097 C 
BRANCH  17  19
ATOM     18  C   LIG    1       29.044 -12.406   4.558  0.00  0.00    +0.101 C 
ATOM     19  N   LIG    1       28.649 -13.016   3.296  0.00  0.00    -0.318 NA
ATOM     20  H   LIG    1       29.464 -13.087   2.688  0.00  0.00    +0.122 HD
ENDBRANCH  17  19
ENDBRANCH   1  17
TORSDOF 2
ENDMDL
MODEL 5
REMARK VINA RESULT:      -1.1      1.489      2.524
REMARK  Name = *****
REMARK                            x       y       z     vdW  Elec       q    Type
REMARK                         _______ _______ _______ _____ _____    ______ ____
ROOT
ATOM      1  C   LIG    1       25.597 -19.302   3.800  0.00  0.00    +0.034 C 
ATOM      2  C   LIG    1       24.916 -20.000   5.013  0.00  0.00    -0.032 A 
ATOM      3  C   LIG    1       23.501 -19.857   5.026  0.00  0.00    -0.036 A 
ATOM      4  C   LIG    1       22.729 -20.412   6.041  0.00  0.00    +0.004 A 
ATOM      5  C   LIG    1       23.368 -21.119   7.059  0.00  0.00    +0.000 A 
ATOM      6  C   LIG    1       24.761 -21.259   7.061  0.00  0.00    +0.000 A 
ATOM      7  C   LIG    1       22.947 -19.043   3.863  0.00  0.00    +0.050 C 
ATOM      8  C   LIG    1       23.687 -17.711   3.834  0.00  0.00    -0.036 A 
ATOM      9  C   LIG    1       23.073 -16.464   3.853  0.00  0.00    +0.004 A 
ATOM     10  C   LIG    1       23.872 -15.322   3.849  0.00  0.00    +0.000 A 
ATOM     11  C   LIG    1       25.268 -15.431   3.830  0.00  0.00    +0.000 A 
ATOM     12  C   LIG    1       25.888 -16.684   3.813  0.00  0.00    +0.005 A 
ATOM     13  C   LIG    1       23.370 -19.799   2.585  0.00  0.00    +0.014 C 
ATOM     14  C   LIG    1       25.541 -20.700   6.042  0.00  0.00    +0.005 A 
ATOM     15  C   LIG    1       25.104 -17.833   3.808  0.00  0.00    -0.032 A 
ATOM     16  C   LIG    1       24.918 -19.954   2.540  0.00  0.00    +0.018 C 
ENDROOT
BRANCH   1  17
ATOM     17  C   LIG    1       27.144 -19.501   3.766  0.00  0.00    +0.097 C 
BRANCH  17  19
ATOM     18  C   LIG    1       28.629 -19.743   5.662  0.00  0.00    +0.101 C 
ATOM     19  N   LIG    1       27.899 -18.803   4.822  0.00  0.00    -0.318 NA
ATOM     20  H   LIG    1       28.557 -18.147   4.403  0.00  0.00    +0.122 HD
ENDBRANCH  17  19
ENDBRANCH   1  17
TORSDOF 2
ENDMDL
MODEL 6
REMARK VINA RESULT:      -1.0      1.332      2.085
REMARK  Name = *****
REMARK                            x       y       z     vdW  Elec       q    Type
REMARK                         _______ _______ _______ _____ _____    ______ ____
ROOT
ATOM      1  C   LIG    1       24.256 -18.784   3.653  0.00  0.00    +0.034 C 
ATOM      2  C   LIG    1       24.295 -19.773   4.854  0.00  0.00    -0.032 A 
ATOM      3  C   LIG    1       23.028 -19.968   5.469  0.00  0.00    -0.036 A 
ATOM      4  C   LIG    1       22.878 -20.815   6.561  0.00  0.00    +0.004 A 
ATOM      5  C   LIG    1       24.001 -21.479   7.054  0.00  0.00    +0.000 A 
ATOM      6  C   LIG    1       25.256 -21.288   6.462  0.00  0.00    +0.000 A 
ATOM      7  C   LIG    1       21.900 -19.163   4.836  0.00  0.00    +0.050 C 
ATOM      8  C   LIG    1       22.334 -17.702   4.801  0.00  0.00    -0.036 A 
ATOM      9  C   LIG    1       21.606 -16.646   5.338  0.00  0.00    +0.004 A 
ATOM     10  C   LIG    1       22.133 -15.358   5.259  0.00  0.00    +0.000 A 
ATOM     11  C   LIG    1       23.376 -15.135   4.656  0.00  0.00    +0.000 A 
ATOM     12  C   LIG    1       24.112 -16.195   4.117  0.00  0.00    +0.005 A 
ATOM     13  C   LIG    1       21.828 -19.627   3.365  0.00  0.00    +0.014 C 
ATOM     14  C   LIG    1       25.409 -20.435   5.364  0.00  0.00    +0.005 A 
ATOM     15  C   LIG    1       23.595 -17.485   4.179  0.00  0.00    -0.032 A 
ATOM     16  C   LIG    1       23.202 -19.408   2.666  0.00  0.00    +0.018 C 
ENDROOT
BRANCH   1  17
ATOM     17  C   LIG    1       25.640 -18.610   2.954  0.00  0.00    +0.097 C 
BRANCH  17  19
ATOM     18  C   LIG    1       27.363 -17.079   3.694  0.00  0.00    +0.101 C 
ATOM     19  N   LIG    1       26.788 -18.407   3.858  0.00  0.00    -0.318 NA
ATOM     20  H   LIG    1       26.493 -18.528   4.825  0.00  0.00    +0.122 HD
ENDBRANCH  17  19
ENDBRANCH   1  17
TORSDOF 2
ENDMDL
