MODEL 1
REMARK VINA RESULT:      -2.1      0.000      0.000
REMARK  Name = *****
REMARK                            x       y       z     vdW  Elec       q    Type
REMARK                         _______ _______ _______ _____ _____    ______ ____
ROOT
ATOM      1  C   LIG    1       25.556 -20.242   5.021  0.00  0.00    +0.122 C 
ATOM      2  C   LIG    1       26.314 -19.224   4.574  0.00  0.00    +0.079 C 
ATOM      3  N   LIG    1       27.548 -18.886   5.092  0.00  0.00    -0.267 N 
ATOM      4  C   LIG    1       28.220 -19.648   6.127  0.00  0.00    +0.139 C 
ATOM      5  C   LIG    1       28.178 -17.771   4.527  0.00  0.00    +0.248 C 
ATOM      6  O   LIG    1       29.345 -17.449   4.747  0.00  0.00    -0.273 OA
ATOM      7  C   LIG    1       27.209 -16.959   3.630  0.00  0.00    +0.208 C 
ATOM      8  S   LIG    1       25.927 -18.218   3.222  0.00  0.00    -0.081 S 
ENDROOT
BRANCH   7   9
ATOM      9  N   LIG    1       26.633 -15.805   4.370  0.00  0.00    -0.283 NA
ATOM     10  C   LIG    1       27.604 -14.751   4.707  0.00  0.00    +0.086 C 
ATOM     11  C   LIG    1       28.056 -13.895   3.523  0.00  0.00    +0.015 C 
ATOM     12  C   LIG    1       26.873 -13.298   2.768  0.00  0.00    +0.002 C 
ATOM     13  C   LIG    1       25.796 -14.339   2.483  0.00  0.00    +0.015 C 
ATOM     14  C   LIG    1       25.467 -15.192   3.709  0.00  0.00    +0.086 C 
ENDBRANCH   7   9
BRANCH   1  15
ATOM     15  C   LIG    1       24.244 -20.662   4.480  0.00  0.00    +0.334 C 
ATOM     16  O   LIG    1       24.028 -21.319   3.492  0.00  0.00    -0.245 OA
BRANCH  15  17
ATOM     17  O   LIG    1       23.319 -20.167   5.349  0.00  0.00    -0.462 OA
BRANCH  17  19
ATOM     18  C   LIG    1       22.249 -18.244   4.471  0.00  0.00    +0.048 C 
ATOM     19  C   LIG    1       22.082 -19.720   4.773  0.00  0.00    +0.229 C 
ENDBRANCH  17  19
ENDBRANCH  15  17
ENDBRANCH   1  15
TORSDOF 4
ENDMDL
MODEL 2
REMARK VINA RESULT:      -1.0      1.582      1.880
REMARK  Name = *****
REMARK                            x       y       z     vdW  Elec       q    Type
REMARK                         _______ _______ _______ _____ _____    ______ ____
ROOT
ATOM      1  C   LIG    1       26.199 -19.443   4.472  0.00  0.00    +0.122 C 
ATOM      2  C   LIG    1       26.308 -18.169   4.054  0.00  0.00    +0.079 C 
ATOM      3  N   LIG    1       27.406 -17.365   4.285  0.00  0.00    -0.267 N 
ATOM      4  C   LIG    1       28.619 -17.830   4.930  0.00  0.00    +0.139 C 
ATOM      5  C   LIG    1       27.329 -16.051   3.809  0.00  0.00    +0.248 C 
ATOM      6  O   LIG    1       28.279 -15.271   3.773  0.00  0.00    -0.273 OA
ATOM      7  C   LIG    1       25.885 -15.680   3.383  0.00  0.00    +0.208 C 
ATOM      8  S   LIG    1       25.142 -17.339   3.084  0.00  0.00    -0.081 S 
ENDROOT
BRANCH   7   9
ATOM      9  N   LIG    1       25.179 -14.946   4.465  0.00  0.00    -0.283 NA
ATOM     10  C   LIG    1       25.797 -13.662   4.836  0.00  0.00    +0.086 C 
ATOM     11  C   LIG    1       25.606 -12.541   3.813  0.00  0.00    +0.015 C 
ATOM     12  C   LIG    1       24.136 -12.335   3.462  0.00  0.00    +0.002 C 
ATOM     13  C   LIG    1       23.431 -13.653   3.165  0.00  0.00    +0.015 C 
ATOM     14  C   LIG    1       23.744 -14.731   4.205  0.00  0.00    +0.086 C 
ENDBRANCH   7   9
BRANCH   1  15
ATOM     15  C   LIG    1       25.057 -20.353   4.223  0.00  0.00    +0.334 C 
ATOM     16  O   LIG    1       24.736 -20.869   3.182  0.00  0.00    -0.245 OA
BRANCH  15  17
ATOM     17  O   LIG    1       24.449 -20.508   5.433  0.00  0.00    -0.462 OA
BRANCH  17  19
ATOM     18  C   LIG    1       22.482 -19.237   5.074  0.00  0.00    +0.048 C 
ATOM     19  C   LIG    1       23.017 -20.613   5.414  0.00  0.00    +0.229 C 
ENDBRANCH  17  19
ENDBRANCH  15  17
ENDBRANCH   1  15
TORSDOF 4
ENDMDL
MODEL 3
REMARK VINA RESULT:      -0.9      2.281      5.739
REMARK  Name = *****
REMARK                            x       y       z     vdW  Elec       q    Type
REMARK                         _______ _______ _______ _____ _____    ______ ____
ROOT
ATOM      1  C   LIG    1       24.979 -16.123   3.311  0.00  0.00    +0.122 C 
ATOM      2  C   LIG    1       25.500 -17.323   3.626  0.00  0.00    +0.079 C 
ATOM      3  N   LIG    1       24.752 -18.460   3.856  0.00  0.00    -0.267 N 
ATOM      4  C   LIG    1       23.312 -18.519   3.696  0.00  0.00    +0.139 C 
ATOM      5  C   LIG    1       25.461 -19.614   4.212  0.00  0.00    +0.248 C 
ATOM      6  O   LIG    1       24.968 -20.739   4.272  0.00  0.00    -0.273 OA
ATOM      7  C   LIG    1       26.935 -19.292   4.571  0.00  0.00    +0.208 C 
ATOM      8  S   LIG    1       27.189 -17.681   3.712  0.00  0.00    -0.081 S 
ENDROOT
BRANCH   7   9
ATOM      9  N   LIG    1       27.113 -19.167   6.041  0.00  0.00    -0.283 NA
ATOM     10  C   LIG    1       26.631 -20.324   6.814  0.00  0.00    +0.086 C 
ATOM     11  C   LIG    1       27.509 -21.572   6.712  0.00  0.00    +0.015 C 
ATOM     12  C   LIG    1       28.964 -21.275   7.062  0.00  0.00    +0.002 C 
ATOM     13  C   LIG    1       29.475 -20.024   6.356  0.00  0.00    +0.015 C 
ATOM     14  C   LIG    1       28.493 -18.855   6.453  0.00  0.00    +0.086 C 
ENDBRANCH   7   9
BRANCH   1  15
ATOM     15  C   LIG    1       25.740 -14.885   3.025  0.00  0.00    +0.334 C 
ATOM     16  O   LIG    1       26.355 -14.609   2.026  0.00  0.00    -0.245 OA
BRANCH  15  17
ATOM     17  O   LIG    1       25.581 -14.101   4.129  0.00  0.00    -0.462 OA
BRANCH  17  19
ATOM     18  C   LIG    1       23.965 -12.629   3.213  0.00  0.00    +0.048 C 
ATOM     19  C   LIG    1       24.261 -13.583   4.354  0.00  0.00    +0.229 C 
ENDBRANCH  17  19
ENDBRANCH  15  17
ENDBRANCH   1  15
TORSDOF 4
ENDMDL
