MODEL 1
REMARK VINA RESULT:      -8.9      0.000      0.000
REMARK  Name = *****
REMARK                            x       y       z     vdW  Elec       q    Type
REMARK                         _______ _______ _______ _____ _____    ______ ____
ROOT
ATOM      1  C   LIG    1       25.291 -23.032   7.515  0.00  0.00    +0.080 A 
ATOM      2  C   LIG    1       23.942 -22.711   7.268  0.00  0.00    +0.132 A 
ATOM      3  C   LIG    1       23.105 -23.662   6.660  0.00  0.00    +0.048 A 
ATOM      4  C   LIG    1       23.600 -24.912   6.276  0.00  0.00    +0.032 A 
ATOM      5  C   LIG    1       24.942 -25.215   6.498  0.00  0.00    +0.106 A 
ATOM      6  C   LIG    1       25.787 -24.281   7.107  0.00  0.00    +0.045 A 
ENDROOT
BRANCH   1   9
ATOM      7  N   LIG    1       27.474 -21.928   7.543  0.00  0.00    -0.310 N 
ATOM      8  H   LIG    1       27.641 -22.469   6.701  0.00  0.00    +0.149 HD
ATOM      9  C   LIG    1       26.267 -22.106   8.176  0.00  0.00    +0.248 C 
ATOM     10  O   LIG    1       25.951 -21.526   9.210  0.00  0.00    -0.270 OA
BRANCH   7  11
ATOM     11  C   LIG    1       28.545 -21.065   8.034  0.00  0.00    +0.123 C 
BRANCH  11  13
ATOM     12  N   LIG    1       29.951 -19.091   7.230  0.00  0.00    -0.298 NA
ATOM     13  C   LIG    1       29.300 -20.377   6.874  0.00  0.00    +0.074 C 
ATOM     14  C   LIG    1       28.348 -20.013   5.721  0.00  0.00    +0.021 C 
ATOM     15  C   LIG    1       28.723 -18.603   5.299  0.00  0.00    +0.017 C 
ATOM     16  C   LIG    1       30.059 -18.354   5.963  0.00  0.00    +0.085 C 
BRANCH  12  18
ATOM     17  C   LIG    1       31.804 -18.081   8.600  0.00  0.00    +0.020 C 
ATOM     18  C   LIG    1       31.267 -19.302   7.854  0.00  0.00    +0.081 C 
ENDBRANCH  12  18
ENDBRANCH  11  13
ENDBRANCH   7  11
ENDBRANCH   1   9
BRANCH   5  19
ATOM     19  S   LIG    1       25.549 -26.800   6.003  0.00  0.00    +0.056 S 
ATOM     20  O   LIG    1       26.663 -26.596   5.109  0.00  0.00    -0.153 OA
ATOM     21  O   LIG    1       24.409 -27.635   5.662  0.00  0.00    -0.153 OA
BRANCH  19  22
ATOM     22  N   LIG    1       26.189 -27.452   7.408  0.00  0.00    -0.203 NA
ATOM     23  H   LIG    1       26.744 -26.755   7.909  0.00  0.00    +0.144 HD
ATOM     24  H   LIG    1       26.676 -28.325   7.216  0.00  0.00    +0.144 HD
ENDBRANCH  19  22
ENDBRANCH   5  19
BRANCH   2  25
ATOM     25  O   LIG    1       23.484 -21.485   7.682  0.00  0.00    -0.494 OA
ATOM     26  C   LIG    1       23.256 -20.527   6.651  0.00  0.00    +0.277 C 
ENDBRANCH   2  25
TORSDOF 7
ENDMDL
MODEL 2
REMARK VINA RESULT:      -8.5      3.702      7.751
REMARK  Name = *****
REMARK                            x       y       z     vdW  Elec       q    Type
REMARK                         _______ _______ _______ _____ _____    ______ ____
ROOT
ATOM      1  C   LIG    1       28.431 -19.834   7.723  0.00  0.00    +0.080 A 
ATOM      2  C   LIG    1       28.747 -19.669   6.361  0.00  0.00    +0.132 A 
ATOM      3  C   LIG    1       29.843 -18.868   5.998  0.00  0.00    +0.048 A 
ATOM      4  C   LIG    1       30.607 -18.215   6.970  0.00  0.00    +0.032 A 
ATOM      5  C   LIG    1       30.274 -18.360   8.315  0.00  0.00    +0.106 A 
ATOM      6  C   LIG    1       29.189 -19.158   8.693  0.00  0.00    +0.045 A 
ENDROOT
BRANCH   1   9
ATOM      7  N   LIG    1       27.160 -21.924   7.656  0.00  0.00    -0.310 N 
ATOM      8  H   LIG    1       27.796 -22.164   6.904  0.00  0.00    +0.149 HD
ATOM      9  C   LIG    1       27.300 -20.681   8.226  0.00  0.00    +0.248 C 
ATOM     10  O   LIG    1       26.584 -20.264   9.131  0.00  0.00    -0.270 OA
BRANCH   7  11
ATOM     11  C   LIG    1       26.122 -22.886   8.019  0.00  0.00    +0.123 C 
BRANCH  11  13
ATOM     12  N   LIG    1       23.710 -22.324   7.400  0.00  0.00    -0.298 NA
ATOM     13  C   LIG    1       24.993 -22.932   6.965  0.00  0.00    +0.074 C 
ATOM     14  C   LIG    1       24.621 -24.380   6.601  0.00  0.00    +0.021 C 
ATOM     15  C   LIG    1       23.103 -24.428   6.577  0.00  0.00    +0.017 C 
ATOM     16  C   LIG    1       22.681 -22.975   6.579  0.00  0.00    +0.085 C 
BRANCH  12  18
ATOM     17  C   LIG    1       22.979 -20.394   5.961  0.00  0.00    +0.020 C 
ATOM     18  C   LIG    1       23.712 -20.862   7.218  0.00  0.00    +0.081 C 
ENDBRANCH  12  18
ENDBRANCH  11  13
ENDBRANCH   7  11
ENDBRANCH   1   9
BRANCH   5  19
ATOM     19  S   LIG    1       31.250 -17.525   9.528  0.00  0.00    +0.056 S 
ATOM     20  O   LIG    1       32.037 -18.510  10.229  0.00  0.00    -0.153 OA
ATOM     21  O   LIG    1       30.398 -16.566  10.214  0.00  0.00    -0.153 OA
BRANCH  19  22
ATOM     22  N   LIG    1       32.332 -16.613   8.630  0.00  0.00    -0.203 NA
ATOM     23  H   LIG    1       32.652 -17.137   7.812  0.00  0.00    +0.144 HD
ATOM     24  H   LIG    1       33.077 -16.247   9.219  0.00  0.00    +0.144 HD
ENDBRANCH  19  22
ENDBRANCH   5  19
BRANCH   2  25
ATOM     25  O   LIG    1       27.992 -20.346   5.436  0.00  0.00    -0.494 OA
ATOM     26  C   LIG    1       26.832 -19.665   4.963  0.00  0.00    +0.277 C 
ENDBRANCH   2  25
TORSDOF 7
ENDMDL
MODEL 3
REMARK VINA RESULT:      -8.4      3.597      7.336
REMARK  Name = *****
REMARK                            x       y       z     vdW  Elec       q    Type
REMARK                         _______ _______ _______ _____ _____    ______ ____
ROOT
ATOM      1  C   LIG    1       28.069 -20.062   7.396  0.00  0.00    +0.080 A 
ATOM      2  C   LIG    1       28.235 -19.741   6.035  0.00  0.00    +0.132 A 
ATOM      3  C   LIG    1       29.394 -19.060   5.622  0.00  0.00    +0.048 A 
ATOM      4  C   LIG    1       30.369 -18.677   6.548  0.00  0.00    +0.032 A 
ATOM      5  C   LIG    1       30.186 -18.973   7.897  0.00  0.00    +0.106 A 
ATOM      6  C   LIG    1       29.042 -19.655   8.324  0.00  0.00    +0.045 A 
ENDROOT
BRANCH   1   9
ATOM      7  N   LIG    1       25.648 -20.393   7.516  0.00  0.00    -0.310 N 
ATOM      8  H   LIG    1       25.613 -19.590   6.897  0.00  0.00    +0.149 HD
ATOM      9  C   LIG    1       26.887 -20.804   7.945  0.00  0.00    +0.248 C 
ATOM     10  O   LIG    1       27.064 -21.749   8.707  0.00  0.00    -0.270 OA
BRANCH   7  11
ATOM     11  C   LIG    1       24.386 -20.997   7.938  0.00  0.00    +0.123 C 
BRANCH  11  13
ATOM     12  N   LIG    1       24.289 -22.019   5.601  0.00  0.00    -0.298 NA
ATOM     13  C   LIG    1       23.527 -21.426   6.729  0.00  0.00    +0.074 C 
ATOM     14  C   LIG    1       22.799 -20.223   6.101  0.00  0.00    +0.021 C 
ATOM     15  C   LIG    1       22.963 -20.374   4.598  0.00  0.00    +0.017 C 
ATOM     16  C   LIG    1       23.455 -21.793   4.414  0.00  0.00    +0.085 C 
BRANCH  12  18
ATOM     17  C   LIG    1       23.461 -24.170   6.610  0.00  0.00    +0.020 C 
ATOM     18  C   LIG    1       24.553 -23.452   5.819  0.00  0.00    +0.081 C 
ENDBRANCH  12  18
ENDBRANCH  11  13
ENDBRANCH   7  11
ENDBRANCH   1   9
BRANCH   5  19
ATOM     19  S   LIG    1       31.430 -18.479   9.052  0.00  0.00    +0.056 S 
ATOM     20  O   LIG    1       32.033 -17.261   8.570  0.00  0.00    -0.153 OA
ATOM     21  O   LIG    1       32.208 -19.655   9.411  0.00  0.00    -0.153 OA
BRANCH  19  22
ATOM     22  N   LIG    1       30.570 -18.063  10.430  0.00  0.00    -0.203 NA
ATOM     23  H   LIG    1       29.566 -18.183  10.278  0.00  0.00    +0.144 HD
ATOM     24  H   LIG    1       30.843 -17.141  10.765  0.00  0.00    +0.144 HD
ENDBRANCH  19  22
ENDBRANCH   5  19
BRANCH   2  25
ATOM     25  O   LIG    1       27.271 -20.155   5.150  0.00  0.00    -0.494 OA
ATOM     26  C   LIG    1       26.620 -19.123   4.413  0.00  0.00    +0.277 C 
ENDBRANCH   2  25
TORSDOF 7
ENDMDL
MODEL 4
REMARK VINA RESULT:      -8.3      3.421      7.543
REMARK  Name = *****
REMARK                            x       y       z     vdW  Elec       q    Type
REMARK                         _______ _______ _______ _____ _____    ______ ____
ROOT
ATOM      1  C   LIG    1       28.043 -20.365   7.394  0.00  0.00    +0.080 A 
ATOM      2  C   LIG    1       28.006 -19.860   6.080  0.00  0.00    +0.132 A 
ATOM      3  C   LIG    1       29.028 -19.000   5.642  0.00  0.00    +0.048 A 
ATOM      4  C   LIG    1       30.064 -18.621   6.501  0.00  0.00    +0.032 A 
ATOM      5  C   LIG    1       30.080 -19.102   7.809  0.00  0.00    +0.106 A 
ATOM      6  C   LIG    1       29.074 -19.963   8.258  0.00  0.00    +0.045 A 
ENDROOT
BRANCH   1   9
ATOM      7  N   LIG    1       26.846 -22.497   7.297  0.00  0.00    -0.310 N 
ATOM      8  H   LIG    1       27.381 -22.639   6.447  0.00  0.00    +0.149 HD
ATOM      9  C   LIG    1       27.022 -21.305   7.961  0.00  0.00    +0.248 C 
ATOM     10  O   LIG    1       26.423 -21.006   8.989  0.00  0.00    -0.270 OA
BRANCH   7  11
ATOM     11  C   LIG    1       25.901 -23.536   7.702  0.00  0.00    +0.123 C 
BRANCH  11  13
ATOM     12  N   LIG    1       23.983 -24.832   6.627  0.00  0.00    -0.298 NA
ATOM     13  C   LIG    1       25.373 -24.330   6.487  0.00  0.00    +0.074 C 
ATOM     14  C   LIG    1       26.209 -25.598   6.237  0.00  0.00    +0.021 C 
ATOM     15  C   LIG    1       25.211 -26.710   5.965  0.00  0.00    +0.017 C 
ATOM     16  C   LIG    1       23.901 -25.990   5.727  0.00  0.00    +0.085 C 
BRANCH  12  18
ATOM     17  C   LIG    1       23.095 -22.532   7.129  0.00  0.00    +0.020 C 
ATOM     18  C   LIG    1       22.994 -23.798   6.279  0.00  0.00    +0.081 C 
ENDBRANCH  12  18
ENDBRANCH  11  13
ENDBRANCH   7  11
ENDBRANCH   1   9
BRANCH   5  19
ATOM     19  S   LIG    1       31.398 -18.609   8.880  0.00  0.00    +0.056 S 
ATOM     20  O   LIG    1       31.915 -17.348   8.406  0.00  0.00    -0.153 OA
ATOM     21  O   LIG    1       32.245 -19.768   9.117  0.00  0.00    -0.153 OA
BRANCH  19  22
ATOM     22  N   LIG    1       30.643 -18.288  10.341  0.00  0.00    -0.203 NA
ATOM     23  H   LIG    1       30.864 -19.013  11.027  0.00  0.00    +0.144 HD
ATOM     24  H   LIG    1       29.649 -18.117  10.207  0.00  0.00    +0.144 HD
ENDBRANCH  19  22
ENDBRANCH   5  19
BRANCH   2  25
ATOM     25  O   LIG    1       26.990 -20.274   5.256  0.00  0.00    -0.494 OA
ATOM     26  C   LIG    1       26.365 -19.253   4.481  0.00  0.00    +0.277 C 
ENDBRANCH   2  25
TORSDOF 7
ENDMDL
MODEL 5
REMARK VINA RESULT:      -8.0      3.375      7.282
REMARK  Name = *****
REMARK                            x       y       z     vdW  Elec       q    Type
REMARK                         _______ _______ _______ _____ _____    ______ ____
ROOT
ATOM      1  C   LIG    1       27.758 -20.462   7.482  0.00  0.00    +0.080 A 
ATOM      2  C   LIG    1       27.638 -19.945   6.178  0.00  0.00    +0.132 A 
ATOM      3  C   LIG    1       28.664 -19.135   5.659  0.00  0.00    +0.048 A 
ATOM      4  C   LIG    1       29.786 -18.818   6.429  0.00  0.00    +0.032 A 
ATOM      5  C   LIG    1       29.887 -19.310   7.729  0.00  0.00    +0.106 A 
ATOM      6  C   LIG    1       28.878 -20.122   8.258  0.00  0.00    +0.045 A 
ENDROOT
BRANCH   1   9
ATOM      7  N   LIG    1       26.524 -22.574   7.537  0.00  0.00    -0.310 N 
ATOM      8  H   LIG    1       27.031 -22.771   6.680  0.00  0.00    +0.149 HD
ATOM      9  C   LIG    1       26.740 -21.352   8.129  0.00  0.00    +0.248 C 
ATOM     10  O   LIG    1       26.177 -20.987   9.156  0.00  0.00    -0.270 OA
BRANCH   7  11
ATOM     11  C   LIG    1       25.576 -23.573   8.025  0.00  0.00    +0.123 C 
BRANCH  11  13
ATOM     12  N   LIG    1       25.744 -25.239   6.097  0.00  0.00    -0.298 NA
ATOM     13  C   LIG    1       24.875 -24.309   6.862  0.00  0.00    +0.074 C 
ATOM     14  C   LIG    1       24.355 -23.320   5.802  0.00  0.00    +0.021 C 
ATOM     15  C   LIG    1       24.730 -23.916   4.456  0.00  0.00    +0.017 C 
ATOM     16  C   LIG    1       25.120 -25.343   4.771  0.00  0.00    +0.085 C 
BRANCH  12  18
ATOM     17  C   LIG    1       24.740 -27.530   6.370  0.00  0.00    +0.020 C 
ATOM     18  C   LIG    1       25.848 -26.551   6.757  0.00  0.00    +0.081 C 
ENDBRANCH  12  18
ENDBRANCH  11  13
ENDBRANCH   7  11
ENDBRANCH   1   9
BRANCH   5  19
ATOM     19  S   LIG    1       31.313 -18.897   8.688  0.00  0.00    +0.056 S 
ATOM     20  O   LIG    1       31.912 -17.716   8.116  0.00  0.00    -0.153 OA
ATOM     21  O   LIG    1       32.062 -20.119   8.935  0.00  0.00    -0.153 OA
BRANCH  19  22
ATOM     22  N   LIG    1       30.691 -18.434  10.174  0.00  0.00    -0.203 NA
ATOM     23  H   LIG    1       31.404 -18.513  10.903  0.00  0.00    +0.144 HD
ATOM     24  H   LIG    1       29.822 -18.924  10.373  0.00  0.00    +0.144 HD
ENDBRANCH  19  22
ENDBRANCH   5  19
BRANCH   2  25
ATOM     25  O   LIG    1       26.536 -20.298   5.441  0.00  0.00    -0.494 OA
ATOM     26  C   LIG    1       26.242 -19.462   4.324  0.00  0.00    +0.277 C 
ENDBRANCH   2  25
TORSDOF 7
ENDMDL
MODEL 6
REMARK VINA RESULT:      -7.9      0.913      2.056
REMARK  Name = *****
REMARK                            x       y       z     vdW  Elec       q    Type
REMARK                         _______ _______ _______ _____ _____    ______ ____
ROOT
ATOM      1  C   LIG    1       25.411 -23.145   7.431  0.00  0.00    +0.080 A 
ATOM      2  C   LIG    1       24.062 -22.786   7.248  0.00  0.00    +0.132 A 
ATOM      3  C   LIG    1       23.170 -23.714   6.684  0.00  0.00    +0.048 A 
ATOM      4  C   LIG    1       23.612 -24.978   6.280  0.00  0.00    +0.032 A 
ATOM      5  C   LIG    1       24.954 -25.318   6.438  0.00  0.00    +0.106 A 
ATOM      6  C   LIG    1       25.852 -24.407   7.003  0.00  0.00    +0.045 A 
ENDROOT
BRANCH   1   9
ATOM      7  N   LIG    1       27.627 -22.110   7.356  0.00  0.00    -0.310 N 
ATOM      8  H   LIG    1       27.740 -22.660   6.512  0.00  0.00    +0.149 HD
ATOM      9  C   LIG    1       26.443 -22.245   8.042  0.00  0.00    +0.248 C 
ATOM     10  O   LIG    1       26.190 -21.648   9.084  0.00  0.00    -0.270 OA
BRANCH   7  11
ATOM     11  C   LIG    1       28.745 -21.276   7.794  0.00  0.00    +0.123 C 
BRANCH  11  13
ATOM     12  N   LIG    1       28.142 -19.792   5.806  0.00  0.00    -0.298 NA
ATOM     13  C   LIG    1       28.664 -19.855   7.195  0.00  0.00    +0.074 C 
ATOM     14  C   LIG    1       30.055 -19.202   7.106  0.00  0.00    +0.021 C 
ATOM     15  C   LIG    1       30.124 -18.551   5.736  0.00  0.00    +0.017 C 
ATOM     16  C   LIG    1       28.692 -18.550   5.247  0.00  0.00    +0.085 C 
BRANCH  12  18
ATOM     17  C   LIG    1       26.078 -20.004   4.384  0.00  0.00    +0.020 C 
ATOM     18  C   LIG    1       26.670 -19.800   5.778  0.00  0.00    +0.081 C 
ENDBRANCH  12  18
ENDBRANCH  11  13
ENDBRANCH   7  11
ENDBRANCH   1   9
BRANCH   5  19
ATOM     19  S   LIG    1       25.492 -26.919   5.919  0.00  0.00    +0.056 S 
ATOM     20  O   LIG    1       26.569 -26.748   4.975  0.00  0.00    -0.153 OA
ATOM     21  O   LIG    1       24.314 -27.722   5.632  0.00  0.00    -0.153 OA
BRANCH  19  22
ATOM     22  N   LIG    1       26.177 -27.590   7.295  0.00  0.00    -0.203 NA
ATOM     23  H   LIG    1       25.721 -28.474   7.529  0.00  0.00    +0.144 HD
ATOM     24  H   LIG    1       26.207 -26.912   8.053  0.00  0.00    +0.144 HD
ENDBRANCH  19  22
ENDBRANCH   5  19
BRANCH   2  25
ATOM     25  O   LIG    1       23.658 -21.547   7.680  0.00  0.00    -0.494 OA
ATOM     26  C   LIG    1       23.194 -20.657   6.668  0.00  0.00    +0.277 C 
ENDBRANCH   2  25
TORSDOF 7
ENDMDL
MODEL 7
REMARK VINA RESULT:      -7.7      1.751      2.262
REMARK  Name = *****
REMARK                            x       y       z     vdW  Elec       q    Type
REMARK                         _______ _______ _______ _____ _____    ______ ____
ROOT
ATOM      1  C   LIG    1       25.780 -22.803   6.697  0.00  0.00    +0.080 A 
ATOM      2  C   LIG    1       24.982 -22.382   5.617  0.00  0.00    +0.132 A 
ATOM      3  C   LIG    1       24.447 -23.340   4.737  0.00  0.00    +0.048 A 
ATOM      4  C   LIG    1       24.719 -24.700   4.908  0.00  0.00    +0.032 A 
ATOM      5  C   LIG    1       25.533 -25.110   5.963  0.00  0.00    +0.106 A 
ATOM      6  C   LIG    1       26.067 -24.169   6.850  0.00  0.00    +0.045 A 
ENDROOT
BRANCH   1   9
ATOM      7  N   LIG    1       27.175 -20.862   7.220  0.00  0.00    -0.310 N 
ATOM      8  H   LIG    1       27.336 -20.840   6.219  0.00  0.00    +0.149 HD
ATOM      9  C   LIG    1       26.383 -21.874   7.708  0.00  0.00    +0.248 C 
ATOM     10  O   LIG    1       26.125 -22.021   8.898  0.00  0.00    -0.270 OA
BRANCH   7  11
ATOM     11  C   LIG    1       27.841 -19.862   8.051  0.00  0.00    +0.123 C 
BRANCH  11  13
ATOM     12  N   LIG    1       30.195 -20.286   8.944  0.00  0.00    -0.298 NA
ATOM     13  C   LIG    1       29.365 -19.835   7.798  0.00  0.00    +0.074 C 
ATOM     14  C   LIG    1       29.863 -18.407   7.510  0.00  0.00    +0.021 C 
ATOM     15  C   LIG    1       31.137 -18.238   8.319  0.00  0.00    +0.017 C 
ATOM     16  C   LIG    1       31.501 -19.643   8.747  0.00  0.00    +0.085 C 
BRANCH  12  18
ATOM     17  C   LIG    1       31.749 -22.264   8.995  0.00  0.00    +0.020 C 
ATOM     18  C   LIG    1       30.309 -21.754   8.987  0.00  0.00    +0.081 C 
ENDBRANCH  12  18
ENDBRANCH  11  13
ENDBRANCH   7  11
ENDBRANCH   1   9
BRANCH   5  19
ATOM     19  S   LIG    1       25.866 -26.834   6.161  0.00  0.00    +0.056 S 
ATOM     20  O   LIG    1       24.829 -27.573   5.483  0.00  0.00    -0.153 OA
ATOM     21  O   LIG    1       26.219 -27.070   7.553  0.00  0.00    -0.153 OA
BRANCH  19  22
ATOM     22  N   LIG    1       27.272 -27.085   5.285  0.00  0.00    -0.203 NA
ATOM     23  H   LIG    1       27.800 -27.872   5.670  0.00  0.00    +0.144 HD
ATOM     24  H   LIG    1       27.802 -26.222   5.191  0.00  0.00    +0.144 HD
ENDBRANCH  19  22
ENDBRANCH   5  19
BRANCH   2  25
ATOM     25  O   LIG    1       24.714 -21.041   5.494  0.00  0.00    -0.494 OA
ATOM     26  C   LIG    1       25.110 -20.439   4.265  0.00  0.00    +0.277 C 
ENDBRANCH   2  25
TORSDOF 7
ENDMDL
MODEL 8
REMARK VINA RESULT:      -7.6      3.635      5.087
REMARK  Name = *****
REMARK                            x       y       z     vdW  Elec       q    Type
REMARK                         _______ _______ _______ _____ _____    ______ ____
ROOT
ATOM      1  C   LIG    1       24.465 -24.900   6.399  0.00  0.00    +0.080 A 
ATOM      2  C   LIG    1       25.837 -24.617   6.540  0.00  0.00    +0.132 A 
ATOM      3  C   LIG    1       26.764 -25.675   6.547  0.00  0.00    +0.048 A 
ATOM      4  C   LIG    1       26.337 -27.002   6.442  0.00  0.00    +0.032 A 
ATOM      5  C   LIG    1       24.976 -27.278   6.331  0.00  0.00    +0.106 A 
ATOM      6  C   LIG    1       24.042 -26.237   6.316  0.00  0.00    +0.045 A 
ENDROOT
BRANCH   1   9
ATOM      7  N   LIG    1       23.680 -22.705   5.657  0.00  0.00    -0.310 N 
ATOM      8  H   LIG    1       24.610 -22.622   5.261  0.00  0.00    +0.149 HD
ATOM      9  C   LIG    1       23.393 -23.853   6.356  0.00  0.00    +0.248 C 
ATOM     10  O   LIG    1       22.312 -24.067   6.896  0.00  0.00    -0.270 OA
BRANCH   7  11
ATOM     11  C   LIG    1       22.761 -21.580   5.503  0.00  0.00    +0.123 C 
BRANCH  11  13
ATOM     12  N   LIG    1       23.117 -19.509   4.053  0.00  0.00    -0.298 NA
ATOM     13  C   LIG    1       23.517 -20.253   5.275  0.00  0.00    +0.074 C 
ATOM     14  C   LIG    1       25.028 -20.490   5.095  0.00  0.00    +0.021 C 
ATOM     15  C   LIG    1       25.450 -19.620   3.924  0.00  0.00    +0.017 C 
ATOM     16  C   LIG    1       24.282 -18.683   3.709  0.00  0.00    +0.085 C 
BRANCH  12  18
ATOM     17  C   LIG    1       22.216 -17.237   4.649  0.00  0.00    +0.020 C 
ATOM     18  C   LIG    1       21.915 -18.690   4.285  0.00  0.00    +0.081 C 
ENDBRANCH  12  18
ENDBRANCH  11  13
ENDBRANCH   7  11
ENDBRANCH   1   9
BRANCH   5  19
ATOM     19  S   LIG    1       24.457 -28.962   6.201  0.00  0.00    +0.056 S 
ATOM     20  O   LIG    1       23.857 -29.347   7.455  0.00  0.00    -0.153 OA
ATOM     21  O   LIG    1       25.531 -29.720   5.577  0.00  0.00    -0.153 OA
BRANCH  19  22
ATOM     22  N   LIG    1       23.213 -28.925   5.078  0.00  0.00    -0.203 NA
ATOM     23  H   LIG    1       22.748 -29.834   5.026  0.00  0.00    +0.144 HD
ATOM     24  H   LIG    1       23.538 -28.562   4.186  0.00  0.00    +0.144 HD
ENDBRANCH  19  22
ENDBRANCH   5  19
BRANCH   2  25
ATOM     25  O   LIG    1       26.223 -23.302   6.614  0.00  0.00    -0.494 OA
ATOM     26  C   LIG    1       26.320 -22.757   7.928  0.00  0.00    +0.277 C 
ENDBRANCH   2  25
TORSDOF 7
ENDMDL
MODEL 9
REMARK VINA RESULT:      -7.3      3.126      7.488
REMARK  Name = *****
REMARK                            x       y       z     vdW  Elec       q    Type
REMARK                         _______ _______ _______ _____ _____    ______ ____
ROOT
ATOM      1  C   LIG    1       25.347 -22.957   6.701  0.00  0.00    +0.080 A 
ATOM      2  C   LIG    1       24.356 -22.146   7.286  0.00  0.00    +0.132 A 
ATOM      3  C   LIG    1       24.734 -20.982   7.977  0.00  0.00    +0.048 A 
ATOM      4  C   LIG    1       26.081 -20.634   8.112  0.00  0.00    +0.032 A 
ATOM      5  C   LIG    1       27.060 -21.454   7.555  0.00  0.00    +0.106 A 
ATOM      6  C   LIG    1       26.700 -22.613   6.859  0.00  0.00    +0.045 A 
ENDROOT
BRANCH   1   9
ATOM      7  N   LIG    1       24.709 -25.319   6.651  0.00  0.00    -0.310 N 
ATOM      8  H   LIG    1       24.715 -25.233   7.662  0.00  0.00    +0.149 HD
ATOM      9  C   LIG    1       25.060 -24.206   5.924  0.00  0.00    +0.248 C 
ATOM     10  O   LIG    1       25.107 -24.184   4.698  0.00  0.00    -0.270 OA
BRANCH   7  11
ATOM     11  C   LIG    1       24.391 -26.620   6.068  0.00  0.00    +0.123 C 
BRANCH  11  13
ATOM     12  N   LIG    1       24.655 -28.904   7.179  0.00  0.00    -0.298 NA
ATOM     13  C   LIG    1       25.338 -27.724   6.589  0.00  0.00    +0.074 C 
ATOM     14  C   LIG    1       26.240 -27.203   7.722  0.00  0.00    +0.021 C 
ATOM     15  C   LIG    1       26.233 -28.283   8.791  0.00  0.00    +0.017 C 
ATOM     16  C   LIG    1       25.635 -29.490   8.102  0.00  0.00    +0.085 C 
BRANCH  12  18
ATOM     17  C   LIG    1       25.391 -30.420   5.312  0.00  0.00    +0.020 C 
ATOM     18  C   LIG    1       24.237 -29.863   6.144  0.00  0.00    +0.081 C 
ENDBRANCH  12  18
ENDBRANCH  11  13
ENDBRANCH   7  11
ENDBRANCH   1   9
BRANCH   5  19
ATOM     19  S   LIG    1       28.758 -20.998   7.738  0.00  0.00    +0.056 S 
ATOM     20  O   LIG    1       29.326 -20.841   6.421  0.00  0.00    -0.153 OA
ATOM     21  O   LIG    1       29.350 -21.854   8.754  0.00  0.00    -0.153 OA
BRANCH  19  22
ATOM     22  N   LIG    1       28.702 -19.463   8.409  0.00  0.00    -0.203 NA
ATOM     23  H   LIG    1       29.614 -19.204   8.791  0.00  0.00    +0.144 HD
ATOM     24  H   LIG    1       27.928 -19.380   9.064  0.00  0.00    +0.144 HD
ENDBRANCH  19  22
ENDBRANCH   5  19
BRANCH   2  25
ATOM     25  O   LIG    1       23.042 -22.504   7.111  0.00  0.00    -0.494 OA
ATOM     26  C   LIG    1       22.380 -21.912   5.996  0.00  0.00    +0.277 C 
ENDBRANCH   2  25
TORSDOF 7
ENDMDL
