MODEL 1
REMARK VINA RESULT:      -6.0      0.000      0.000
REMARK  Name = *****
REMARK                            x       y       z     vdW  Elec       q    Type
REMARK                         _______ _______ _______ _____ _____    ______ ____
ROOT
ATOM      1  N   LIG    1       25.474 -17.527   3.309  0.00  0.00    -0.310 N 
ATOM      2  H   LIG    1       24.479 -17.357   3.217  0.00  0.00    +0.149 HD
ATOM      3  C   LIG    1       26.320 -16.457   3.507  0.00  0.00    +0.244 C 
ATOM      4  O   LIG    1       27.498 -16.565   3.847  0.00  0.00    -0.270 OA
ENDROOT
BRANCH   3   5
ATOM      5  C   LIG    1       25.709 -15.110   3.324  0.00  0.00    +0.037 A 
ATOM      6  C   LIG    1       24.511 -14.802   3.975  0.00  0.00    +0.015 A 
ATOM      7  C   LIG    1       23.889 -13.567   3.750  0.00  0.00    +0.023 A 
ATOM      8  C   LIG    1       24.481 -12.607   2.925  0.00  0.00    +0.025 A 
ATOM      9  C   LIG    1       25.673 -12.928   2.270  0.00  0.00    +0.023 A 
ATOM     10  C   LIG    1       26.301 -14.157   2.486  0.00  0.00    +0.015 A 
BRANCH   8  11
ATOM     11  N   LIG    1       23.784 -11.447   2.571  0.00  0.00    -0.358 N 
ATOM     12  H   LIG    1       23.215 -11.060   3.319  0.00  0.00    +0.142 HD
ATOM     13  H   LIG    1       24.356 -10.742   2.118  0.00  0.00    +0.142 HD
ENDBRANCH   8  11
ENDBRANCH   3   5
BRANCH   1  14
ATOM     14  C   LIG    1       25.906 -18.907   3.478  0.00  0.00    +0.120 C 
BRANCH  14  15
ATOM     15  C   LIG    1       24.717 -19.865   3.712  0.00  0.00    +0.103 C 
BRANCH  15  16
ATOM     16  N   LIG    1       24.004 -19.715   5.004  0.00  0.00    -0.301 NA
BRANCH  16  18
ATOM     17  C   LIG    1       22.059 -18.129   4.471  0.00  0.00    +0.020 C 
ATOM     18  C   LIG    1       22.550 -19.525   4.852  0.00  0.00    +0.081 C 
ENDBRANCH  16  18
BRANCH  16  19
ATOM     19  C   LIG    1       24.359 -20.834   5.899  0.00  0.00    +0.081 C 
ATOM     20  C   LIG    1       23.358 -21.093   7.022  0.00  0.00    +0.020 C 
ENDBRANCH  16  19
ENDBRANCH  15  16
ENDBRANCH  14  15
ENDBRANCH   1  14
TORSDOF 7
ENDMDL
MODEL 2
REMARK VINA RESULT:      -5.1      1.057      1.356
REMARK  Name = *****
REMARK                            x       y       z     vdW  Elec       q    Type
REMARK                         _______ _______ _______ _____ _____    ______ ____
ROOT
ATOM      1  N   LIG    1       25.224 -17.924   3.347  0.00  0.00    -0.310 N 
ATOM      2  H   LIG    1       24.238 -17.693   3.381  0.00  0.00    +0.149 HD
ATOM      3  C   LIG    1       26.152 -16.911   3.463  0.00  0.00    +0.244 C 
ATOM      4  O   LIG    1       27.354 -17.097   3.654  0.00  0.00    -0.270 OA
ENDROOT
BRANCH   3   5
ATOM      5  C   LIG    1       25.607 -15.526   3.385  0.00  0.00    +0.037 A 
ATOM      6  C   LIG    1       24.387 -15.229   3.998  0.00  0.00    +0.015 A 
ATOM      7  C   LIG    1       23.830 -13.951   3.866  0.00  0.00    +0.023 A 
ATOM      8  C   LIG    1       24.506 -12.942   3.174  0.00  0.00    +0.025 A 
ATOM      9  C   LIG    1       25.720 -13.251   2.555  0.00  0.00    +0.023 A 
ATOM     10  C   LIG    1       26.284 -14.523   2.679  0.00  0.00    +0.015 A 
BRANCH   8  11
ATOM     11  N   LIG    1       23.877 -11.722   2.902  0.00  0.00    -0.358 N 
ATOM     12  H   LIG    1       23.835 -11.090   3.696  0.00  0.00    +0.142 HD
ATOM     13  H   LIG    1       24.212 -11.263   2.061  0.00  0.00    +0.142 HD
ENDBRANCH   8  11
ENDBRANCH   3   5
BRANCH   1  14
ATOM     14  C   LIG    1       25.588 -19.331   3.434  0.00  0.00    +0.120 C 
BRANCH  14  15
ATOM     15  C   LIG    1       25.901 -19.763   4.883  0.00  0.00    +0.103 C 
BRANCH  15  16
ATOM     16  N   LIG    1       24.746 -20.230   5.687  0.00  0.00    -0.301 NA
BRANCH  16  18
ATOM     17  C   LIG    1       22.337 -20.821   5.028  0.00  0.00    +0.020 C 
ATOM     18  C   LIG    1       23.833 -21.117   4.942  0.00  0.00    +0.081 C 
ENDBRANCH  16  18
BRANCH  16  19
ATOM     19  C   LIG    1       25.226 -20.814   6.955  0.00  0.00    +0.081 C 
ATOM     20  C   LIG    1       26.696 -21.230   6.948  0.00  0.00    +0.020 C 
ENDBRANCH  16  19
ENDBRANCH  15  16
ENDBRANCH  14  15
ENDBRANCH   1  14
TORSDOF 7
ENDMDL
MODEL 3
REMARK VINA RESULT:      -4.8      1.157      2.322
REMARK  Name = *****
REMARK                            x       y       z     vdW  Elec       q    Type
REMARK                         _______ _______ _______ _____ _____    ______ ____
ROOT
ATOM      1  N   LIG    1       25.107 -17.883   3.379  0.00  0.00    -0.310 N 
ATOM      2  H   LIG    1       24.125 -17.687   3.534  0.00  0.00    +0.149 HD
ATOM      3  C   LIG    1       26.006 -16.839   3.391  0.00  0.00    +0.244 C 
ATOM      4  O   LIG    1       27.228 -16.984   3.433  0.00  0.00    -0.270 OA
ENDROOT
BRANCH   3   5
ATOM      5  C   LIG    1       25.409 -15.474   3.391  0.00  0.00    +0.037 A 
ATOM      6  C   LIG    1       26.054 -14.439   2.709  0.00  0.00    +0.015 A 
ATOM      7  C   LIG    1       25.542 -13.136   2.764  0.00  0.00    +0.023 A 
ATOM      8  C   LIG    1       24.355 -12.862   3.450  0.00  0.00    +0.025 A 
ATOM      9  C   LIG    1       23.723 -13.901   4.138  0.00  0.00    +0.023 A 
ATOM     10  C   LIG    1       24.226 -15.203   4.090  0.00  0.00    +0.015 A 
BRANCH   8  11
ATOM     11  N   LIG    1       23.935 -11.542   3.644  0.00  0.00    -0.358 N 
ATOM     12  H   LIG    1       23.319 -11.415   4.441  0.00  0.00    +0.142 HD
ATOM     13  H   LIG    1       24.689 -10.862   3.629  0.00  0.00    +0.142 HD
ENDBRANCH   8  11
ENDBRANCH   3   5
BRANCH   1  14
ATOM     14  C   LIG    1       25.526 -19.277   3.409  0.00  0.00    +0.120 C 
BRANCH  14  15
ATOM     15  C   LIG    1       25.851 -19.757   4.840  0.00  0.00    +0.103 C 
BRANCH  15  16
ATOM     16  N   LIG    1       24.968 -20.815   5.387  0.00  0.00    -0.301 NA
BRANCH  16  18
ATOM     17  C   LIG    1       26.923 -21.080   7.028  0.00  0.00    +0.020 C 
ATOM     18  C   LIG    1       25.577 -21.570   6.498  0.00  0.00    +0.081 C 
ENDBRANCH  16  18
BRANCH  16  19
ATOM     19  C   LIG    1       23.651 -20.240   5.723  0.00  0.00    +0.081 C 
ATOM     20  C   LIG    1       22.456 -21.098   5.311  0.00  0.00    +0.020 C 
ENDBRANCH  16  19
ENDBRANCH  15  16
ENDBRANCH  14  15
ENDBRANCH   1  14
TORSDOF 7
ENDMDL
MODEL 4
REMARK VINA RESULT:      -4.7      2.402      3.208
REMARK  Name = *****
REMARK                            x       y       z     vdW  Elec       q    Type
REMARK                         _______ _______ _______ _____ _____    ______ ____
ROOT
ATOM      1  N   LIG    1       26.345 -16.885   3.391  0.00  0.00    -0.310 N 
ATOM      2  H   LIG    1       27.348 -16.891   3.250  0.00  0.00    +0.149 HD
ATOM      3  C   LIG    1       25.720 -15.694   3.696  0.00  0.00    +0.244 C 
ATOM      4  O   LIG    1       24.500 -15.531   3.671  0.00  0.00    -0.270 OA
ENDROOT
BRANCH   3   5
ATOM      5  C   LIG    1       26.625 -14.559   4.031  0.00  0.00    +0.037 A 
ATOM      6  C   LIG    1       27.653 -14.212   3.149  0.00  0.00    +0.015 A 
ATOM      7  C   LIG    1       28.555 -13.196   3.489  0.00  0.00    +0.023 A 
ATOM      8  C   LIG    1       28.411 -12.479   4.680  0.00  0.00    +0.025 A 
ATOM      9  C   LIG    1       27.388 -12.839   5.561  0.00  0.00    +0.023 A 
ATOM     10  C   LIG    1       26.483 -13.852   5.232  0.00  0.00    +0.015 A 
BRANCH   8  11
ATOM     11  N   LIG    1       29.403 -11.584   5.095  0.00  0.00    -0.358 N 
ATOM     12  H   LIG    1       29.104 -10.940   5.821  0.00  0.00    +0.142 HD
ATOM     13  H   LIG    1       30.292 -12.024   5.311  0.00  0.00    +0.142 HD
ENDBRANCH   8  11
ENDBRANCH   3   5
BRANCH   1  14
ATOM     14  C   LIG    1       25.606 -18.080   3.012  0.00  0.00    +0.120 C 
BRANCH  14  15
ATOM     15  C   LIG    1       25.826 -19.241   4.007  0.00  0.00    +0.103 C 
BRANCH  15  16
ATOM     16  N   LIG    1       24.639 -20.081   4.299  0.00  0.00    -0.301 NA
BRANCH  16  18
ATOM     17  C   LIG    1       25.975 -20.668   6.410  0.00  0.00    +0.020 C 
ATOM     18  C   LIG    1       24.644 -20.650   5.659  0.00  0.00    +0.081 C 
ENDBRANCH  16  18
BRANCH  16  19
ATOM     19  C   LIG    1       23.408 -19.331   3.982  0.00  0.00    +0.081 C 
ATOM     20  C   LIG    1       22.376 -19.295   5.106  0.00  0.00    +0.020 C 
ENDBRANCH  16  19
ENDBRANCH  15  16
ENDBRANCH  14  15
ENDBRANCH   1  14
TORSDOF 7
ENDMDL
MODEL 5
REMARK VINA RESULT:      -4.6      2.364      3.335
REMARK  Name = *****
REMARK                            x       y       z     vdW  Elec       q    Type
REMARK                         _______ _______ _______ _____ _____    ______ ____
ROOT
ATOM      1  N   LIG    1       23.574 -15.966   4.498  0.00  0.00    -0.310 N 
ATOM      2  H   LIG    1       24.342 -16.622   4.581  0.00  0.00    +0.149 HD
ATOM      3  C   LIG    1       23.834 -14.688   4.051  0.00  0.00    +0.244 C 
ATOM      4  O   LIG    1       22.962 -13.889   3.708  0.00  0.00    -0.270 OA
ENDROOT
BRANCH   3   5
ATOM      5  C   LIG    1       25.274 -14.316   3.963  0.00  0.00    +0.037 A 
ATOM      6  C   LIG    1       25.904 -13.729   5.064  0.00  0.00    +0.015 A 
ATOM      7  C   LIG    1       27.236 -13.307   4.967  0.00  0.00    +0.023 A 
ATOM      8  C   LIG    1       27.970 -13.517   3.796  0.00  0.00    +0.025 A 
ATOM      9  C   LIG    1       27.329 -14.094   2.697  0.00  0.00    +0.023 A 
ATOM     10  C   LIG    1       26.000 -14.517   2.782  0.00  0.00    +0.015 A 
BRANCH   8  11
ATOM     11  N   LIG    1       29.239 -12.950   3.642  0.00  0.00    -0.358 N 
ATOM     12  H   LIG    1       29.784 -12.912   4.498  0.00  0.00    +0.142 HD
ATOM     13  H   LIG    1       29.770 -13.329   2.864  0.00  0.00    +0.142 HD
ENDBRANCH   8  11
ENDBRANCH   3   5
BRANCH   1  14
ATOM     14  C   LIG    1       22.223 -16.495   4.612  0.00  0.00    +0.120 C 
BRANCH  14  15
ATOM     15  C   LIG    1       22.131 -17.963   4.143  0.00  0.00    +0.103 C 
BRANCH  15  16
ATOM     16  N   LIG    1       23.139 -18.892   4.707  0.00  0.00    -0.301 NA
BRANCH  16  18
ATOM     17  C   LIG    1       23.497 -20.998   6.130  0.00  0.00    +0.020 C 
ATOM     18  C   LIG    1       22.563 -19.906   5.609  0.00  0.00    +0.081 C 
ENDBRANCH  16  18
BRANCH  16  19
ATOM     19  C   LIG    1       23.949 -19.469   3.617  0.00  0.00    +0.081 C 
ATOM     20  C   LIG    1       25.385 -18.953   3.547  0.00  0.00    +0.020 C 
ENDBRANCH  16  19
ENDBRANCH  15  16
ENDBRANCH  14  15
ENDBRANCH   1  14
TORSDOF 7
ENDMDL
MODEL 6
REMARK VINA RESULT:      -4.6      2.330      2.727
REMARK  Name = *****
REMARK                            x       y       z     vdW  Elec       q    Type
REMARK                         _______ _______ _______ _____ _____    ______ ____
ROOT
ATOM      1  N   LIG    1       26.228 -16.939   3.385  0.00  0.00    -0.310 N 
ATOM      2  H   LIG    1       27.230 -16.954   3.232  0.00  0.00    +0.149 HD
ATOM      3  C   LIG    1       25.619 -15.745   3.708  0.00  0.00    +0.244 C 
ATOM      4  O   LIG    1       24.400 -15.569   3.698  0.00  0.00    -0.270 OA
ENDROOT
BRANCH   3   5
ATOM      5  C   LIG    1       26.540 -14.622   4.045  0.00  0.00    +0.037 A 
ATOM      6  C   LIG    1       27.596 -14.315   3.183  0.00  0.00    +0.015 A 
ATOM      7  C   LIG    1       28.511 -13.311   3.527  0.00  0.00    +0.023 A 
ATOM      8  C   LIG    1       28.352 -12.568   4.700  0.00  0.00    +0.025 A 
ATOM      9  C   LIG    1       27.300 -12.890   5.561  0.00  0.00    +0.023 A 
ATOM     10  C   LIG    1       26.382 -13.890   5.228  0.00  0.00    +0.015 A 
BRANCH   8  11
ATOM     11  N   LIG    1       29.352 -11.686   5.123  0.00  0.00    -0.358 N 
ATOM     12  H   LIG    1       29.535 -10.924   4.476  0.00  0.00    +0.142 HD
ATOM     13  H   LIG    1       29.240 -11.362   6.078  0.00  0.00    +0.142 HD
ENDBRANCH   8  11
ENDBRANCH   3   5
BRANCH   1  14
ATOM     14  C   LIG    1       25.473 -18.123   3.002  0.00  0.00    +0.120 C 
BRANCH  14  15
ATOM     15  C   LIG    1       25.608 -19.260   4.037  0.00  0.00    +0.103 C 
BRANCH  15  16
ATOM     16  N   LIG    1       24.414 -19.523   4.876  0.00  0.00    -0.301 NA
BRANCH  16  18
ATOM     17  C   LIG    1       22.132 -18.405   4.514  0.00  0.00    +0.020 C 
ATOM     18  C   LIG    1       23.147 -19.479   4.123  0.00  0.00    +0.081 C 
ENDBRANCH  16  18
BRANCH  16  19
ATOM     19  C   LIG    1       24.603 -20.776   5.632  0.00  0.00    +0.081 C 
ATOM     20  C   LIG    1       23.663 -20.951   6.823  0.00  0.00    +0.020 C 
ENDBRANCH  16  19
ENDBRANCH  15  16
ENDBRANCH  14  15
ENDBRANCH   1  14
TORSDOF 7
ENDMDL
MODEL 7
REMARK VINA RESULT:      -4.5      2.108      2.949
REMARK  Name = *****
REMARK                            x       y       z     vdW  Elec       q    Type
REMARK                         _______ _______ _______ _____ _____    ______ ____
ROOT
ATOM      1  N   LIG    1       23.408 -17.163   4.047  0.00  0.00    -0.310 N 
ATOM      2  H   LIG    1       24.133 -17.506   3.429  0.00  0.00    +0.149 HD
ATOM      3  C   LIG    1       23.429 -15.839   4.433  0.00  0.00    +0.244 C 
ATOM      4  O   LIG    1       22.491 -15.270   4.992  0.00  0.00    -0.270 OA
ENDROOT
BRANCH   3   5
ATOM      5  C   LIG    1       24.671 -15.089   4.092  0.00  0.00    +0.037 A 
ATOM      6  C   LIG    1       25.705 -15.739   3.415  0.00  0.00    +0.015 A 
ATOM      7  C   LIG    1       26.906 -15.066   3.157  0.00  0.00    +0.023 A 
ATOM      8  C   LIG    1       27.068 -13.725   3.518  0.00  0.00    +0.025 A 
ATOM      9  C   LIG    1       26.032 -13.086   4.204  0.00  0.00    +0.023 A 
ATOM     10  C   LIG    1       24.830 -13.749   4.468  0.00  0.00    +0.015 A 
BRANCH   8  11
ATOM     11  N   LIG    1       28.317 -13.106   3.410  0.00  0.00    -0.358 N 
ATOM     12  H   LIG    1       28.529 -12.463   4.168  0.00  0.00    +0.142 HD
ATOM     13  H   LIG    1       29.081 -13.748   3.225  0.00  0.00    +0.142 HD
ENDBRANCH   8  11
ENDBRANCH   3   5
BRANCH   1  14
ATOM     14  C   LIG    1       22.258 -18.025   4.277  0.00  0.00    +0.120 C 
BRANCH  14  15
ATOM     15  C   LIG    1       22.586 -19.192   5.233  0.00  0.00    +0.103 C 
BRANCH  15  16
ATOM     16  N   LIG    1       23.107 -20.427   4.599  0.00  0.00    -0.301 NA
BRANCH  16  18
ATOM     17  C   LIG    1       25.653 -20.127   4.493  0.00  0.00    +0.020 C 
ATOM     18  C   LIG    1       24.307 -20.201   3.773  0.00  0.00    +0.081 C 
ENDBRANCH  16  18
BRANCH  16  19
ATOM     19  C   LIG    1       23.288 -21.474   5.624  0.00  0.00    +0.081 C 
ATOM     20  C   LIG    1       23.332 -20.958   7.060  0.00  0.00    +0.020 C 
ENDBRANCH  16  19
ENDBRANCH  15  16
ENDBRANCH  14  15
ENDBRANCH   1  14
TORSDOF 7
ENDMDL
MODEL 8
REMARK VINA RESULT:      -4.5      1.733      6.424
REMARK  Name = *****
REMARK                            x       y       z     vdW  Elec       q    Type
REMARK                         _______ _______ _______ _____ _____    ______ ____
ROOT
ATOM      1  N   LIG    1       25.685 -16.769   3.322  0.00  0.00    -0.310 N 
ATOM      2  H   LIG    1       24.743 -16.621   2.978  0.00  0.00    +0.149 HD
ATOM      3  C   LIG    1       26.030 -18.012   3.809  0.00  0.00    +0.244 C 
ATOM      4  O   LIG    1       27.187 -18.363   4.043  0.00  0.00    -0.270 OA
ENDROOT
BRANCH   3   5
ATOM      5  C   LIG    1       24.899 -18.962   4.010  0.00  0.00    +0.037 A 
ATOM      6  C   LIG    1       23.594 -18.472   4.101  0.00  0.00    +0.015 A 
ATOM      7  C   LIG    1       22.533 -19.347   4.364  0.00  0.00    +0.023 A 
ATOM      8  C   LIG    1       22.752 -20.723   4.483  0.00  0.00    +0.025 A 
ATOM      9  C   LIG    1       24.062 -21.203   4.401  0.00  0.00    +0.023 A 
ATOM     10  C   LIG    1       25.127 -20.338   4.140  0.00  0.00    +0.015 A 
BRANCH   8  11
ATOM     11  N   LIG    1       21.725 -21.572   4.909  0.00  0.00    -0.358 N 
ATOM     12  H   LIG    1       21.732 -21.766   5.905  0.00  0.00    +0.142 HD
ATOM     13  H   LIG    1       20.804 -21.305   4.575  0.00  0.00    +0.142 HD
ENDBRANCH   8  11
ENDBRANCH   3   5
BRANCH   1  14
ATOM     14  C   LIG    1       26.673 -15.738   3.041  0.00  0.00    +0.120 C 
BRANCH  14  15
ATOM     15  C   LIG    1       26.018 -14.386   2.684  0.00  0.00    +0.103 C 
BRANCH  15  16
ATOM     16  N   LIG    1       26.175 -13.302   3.683  0.00  0.00    -0.301 NA
BRANCH  16  18
ATOM     17  C   LIG    1       23.817 -14.069   4.347  0.00  0.00    +0.020 C 
ATOM     18  C   LIG    1       24.962 -13.067   4.488  0.00  0.00    +0.081 C 
ENDBRANCH  16  18
BRANCH  16  19
ATOM     19  C   LIG    1       27.381 -13.548   4.498  0.00  0.00    +0.081 C 
ATOM     20  C   LIG    1       28.644 -12.854   3.993  0.00  0.00    +0.020 C 
ENDBRANCH  16  19
ENDBRANCH  15  16
ENDBRANCH  14  15
ENDBRANCH   1  14
TORSDOF 7
ENDMDL
MODEL 9
REMARK VINA RESULT:      -4.4      1.559      6.309
REMARK  Name = *****
REMARK                            x       y       z     vdW  Elec       q    Type
REMARK                         _______ _______ _______ _____ _____    ______ ____
ROOT
ATOM      1  N   LIG    1       25.621 -16.691   3.244  0.00  0.00    -0.310 N 
ATOM      2  H   LIG    1       24.664 -16.561   2.937  0.00  0.00    +0.149 HD
ATOM      3  C   LIG    1       26.009 -17.928   3.714  0.00  0.00    +0.244 C 
ATOM      4  O   LIG    1       27.181 -18.256   3.902  0.00  0.00    -0.270 OA
ENDROOT
BRANCH   3   5
ATOM      5  C   LIG    1       24.906 -18.901   3.956  0.00  0.00    +0.037 A 
ATOM      6  C   LIG    1       23.595 -18.437   4.088  0.00  0.00    +0.015 A 
ATOM      7  C   LIG    1       22.562 -19.333   4.390  0.00  0.00    +0.023 A 
ATOM      8  C   LIG    1       22.813 -20.704   4.506  0.00  0.00    +0.025 A 
ATOM      9  C   LIG    1       24.129 -21.157   4.383  0.00  0.00    +0.023 A 
ATOM     10  C   LIG    1       25.167 -20.271   4.083  0.00  0.00    +0.015 A 
BRANCH   8  11
ATOM     11  N   LIG    1       21.819 -21.571   4.969  0.00  0.00    -0.358 N 
ATOM     12  H   LIG    1       21.647 -21.511   5.968  0.00  0.00    +0.142 HD
ATOM     13  H   LIG    1       20.961 -21.543   4.428  0.00  0.00    +0.142 HD
ENDBRANCH   8  11
ENDBRANCH   3   5
BRANCH   1  14
ATOM     14  C   LIG    1       26.577 -15.640   2.928  0.00  0.00    +0.120 C 
BRANCH  14  15
ATOM     15  C   LIG    1       26.582 -14.519   3.989  0.00  0.00    +0.103 C 
BRANCH  15  16
ATOM     16  N   LIG    1       25.779 -13.314   3.668  0.00  0.00    -0.301 NA
BRANCH  16  18
ATOM     17  C   LIG    1       24.553 -12.028   1.816  0.00  0.00    +0.020 C 
ATOM     18  C   LIG    1       25.421 -13.211   2.241  0.00  0.00    +0.081 C 
ENDBRANCH  16  18
BRANCH  16  19
ATOM     19  C   LIG    1       24.614 -13.238   4.571  0.00  0.00    +0.081 C 
ATOM     20  C   LIG    1       23.583 -14.347   4.378  0.00  0.00    +0.020 C 
ENDBRANCH  16  19
ENDBRANCH  15  16
ENDBRANCH  14  15
ENDBRANCH   1  14
TORSDOF 7
ENDMDL
