MODEL 1
REMARK VINA RESULT:      -6.1      0.000      0.000
REMARK  Name = *****
REMARK                            x       y       z     vdW  Elec       q    Type
REMARK                         _______ _______ _______ _____ _____    ______ ____
ROOT
ATOM      1  O   LIG    1       26.097 -17.599   2.938  0.00  0.00    -0.488 OA
ENDROOT
BRANCH   1   5
ATOM      2  C   LIG    1       21.574 -18.739   4.249  0.00  0.00    +0.044 C 
ATOM      3  C   LIG    1       23.041 -19.046   4.286  0.00  0.00    -0.047 A 
ATOM      4  C   LIG    1       23.950 -18.217   3.615  0.00  0.00    +0.049 A 
ATOM      5  C   LIG    1       25.324 -18.473   3.656  0.00  0.00    +0.121 A 
ATOM      6  C   LIG    1       25.793 -19.563   4.387  0.00  0.00    +0.049 A 
ATOM      7  C   LIG    1       24.901 -20.409   5.060  0.00  0.00    -0.047 A 
ATOM      8  C   LIG    1       25.433 -21.571   5.847  0.00  0.00    +0.044 C 
ATOM      9  C   LIG    1       23.529 -20.138   5.013  0.00  0.00    +0.007 A 
ENDBRANCH   1   5
BRANCH   1  10
ATOM     10  C   LIG    1       26.792 -16.596   3.682  0.00  0.00    +0.275 C 
BRANCH  10  11
ATOM     11  C   LIG    1       26.381 -15.216   3.161  0.00  0.00    +0.232 C 
ATOM     12  O   LIG    1       27.558 -14.421   2.924  0.00  0.00    -0.442 OA
ATOM     13  C   LIG    1       27.703 -13.553   3.971  0.00  0.00    +0.401 C 
ATOM     14  O   LIG    1       28.646 -12.802   4.127  0.00  0.00    -0.227 OA
ATOM     15  N   LIG    1       26.618 -13.642   4.797  0.00  0.00    -0.278 N 
ATOM     16  H   LIG    1       26.483 -12.938   5.512  0.00  0.00    +0.152 HD
ATOM     17  C   LIG    1       25.596 -14.416   4.181  0.00  0.00    +0.155 C 
ENDBRANCH  10  11
ENDBRANCH   1  10
TORSDOF 3
ENDMDL
MODEL 2
REMARK VINA RESULT:      -6.1      2.614      6.556
REMARK  Name = *****
REMARK                            x       y       z     vdW  Elec       q    Type
REMARK                         _______ _______ _______ _____ _____    ______ ____
ROOT
ATOM      1  O   LIG    1       26.089 -17.215   3.216  0.00  0.00    -0.488 OA
ENDROOT
BRANCH   1   5
ATOM      2  C   LIG    1       28.809 -13.243   3.769  0.00  0.00    +0.044 C 
ATOM      3  C   LIG    1       27.451 -13.878   3.726  0.00  0.00    -0.047 A 
ATOM      4  C   LIG    1       27.326 -15.255   3.496  0.00  0.00    +0.049 A 
ATOM      5  C   LIG    1       26.070 -15.870   3.474  0.00  0.00    +0.121 A 
ATOM      6  C   LIG    1       24.929 -15.100   3.697  0.00  0.00    +0.049 A 
ATOM      7  C   LIG    1       25.032 -13.720   3.923  0.00  0.00    -0.047 A 
ATOM      8  C   LIG    1       23.789 -12.916   4.169  0.00  0.00    +0.044 C 
ATOM      9  C   LIG    1       26.296 -13.119   3.945  0.00  0.00    +0.007 A 
ENDBRANCH   1   5
BRANCH   1  10
ATOM     10  C   LIG    1       24.913 -17.951   3.559  0.00  0.00    +0.275 C 
BRANCH  10  11
ATOM     11  C   LIG    1       25.231 -19.447   3.514  0.00  0.00    +0.232 C 
ATOM     12  O   LIG    1       24.003 -20.201   3.516  0.00  0.00    -0.442 OA
ATOM     13  C   LIG    1       23.799 -20.678   4.781  0.00  0.00    +0.401 C 
ATOM     14  O   LIG    1       22.808 -21.280   5.147  0.00  0.00    -0.227 OA
ATOM     15  N   LIG    1       24.887 -20.399   5.560  0.00  0.00    -0.278 N 
ATOM     16  H   LIG    1       24.973 -20.845   6.465  0.00  0.00    +0.152 HD
ATOM     17  C   LIG    1       25.959 -19.929   4.753  0.00  0.00    +0.155 C 
ENDBRANCH  10  11
ENDBRANCH   1  10
TORSDOF 3
ENDMDL
MODEL 3
REMARK VINA RESULT:      -6.1      2.600      6.250
REMARK  Name = *****
REMARK                            x       y       z     vdW  Elec       q    Type
REMARK                         _______ _______ _______ _____ _____    ______ ____
ROOT
ATOM      1  O   LIG    1       26.069 -17.237   3.073  0.00  0.00    -0.488 OA
ENDROOT
BRANCH   1   5
ATOM      2  C   LIG    1       23.714 -13.164   4.236  0.00  0.00    +0.044 C 
ATOM      3  C   LIG    1       25.011 -13.877   3.993  0.00  0.00    -0.047 A 
ATOM      4  C   LIG    1       25.012 -15.233   3.639  0.00  0.00    +0.049 A 
ATOM      5  C   LIG    1       26.209 -15.911   3.386  0.00  0.00    +0.121 A 
ATOM      6  C   LIG    1       27.417 -15.219   3.478  0.00  0.00    +0.049 A 
ATOM      7  C   LIG    1       27.438 -13.864   3.837  0.00  0.00    -0.047 A 
ATOM      8  C   LIG    1       28.751 -13.141   3.920  0.00  0.00    +0.044 C 
ATOM      9  C   LIG    1       26.232 -13.199   4.084  0.00  0.00    +0.007 A 
ENDBRANCH   1   5
BRANCH   1  10
ATOM     10  C   LIG    1       24.936 -17.910   3.624  0.00  0.00    +0.275 C 
BRANCH  10  11
ATOM     11  C   LIG    1       25.161 -19.421   3.533  0.00  0.00    +0.232 C 
ATOM     12  O   LIG    1       23.890 -20.097   3.493  0.00  0.00    -0.442 OA
ATOM     13  C   LIG    1       23.638 -20.602   4.739  0.00  0.00    +0.401 C 
ATOM     14  O   LIG    1       22.606 -21.152   5.072  0.00  0.00    -0.227 OA
ATOM     15  N   LIG    1       24.729 -20.416   5.541  0.00  0.00    -0.278 N 
ATOM     16  H   LIG    1       24.774 -20.896   6.431  0.00  0.00    +0.152 HD
ATOM     17  C   LIG    1       25.840 -19.987   4.764  0.00  0.00    +0.155 C 
ENDBRANCH  10  11
ENDBRANCH   1  10
TORSDOF 3
ENDMDL
MODEL 4
REMARK VINA RESULT:      -6.0      0.749      2.207
REMARK  Name = *****
REMARK                            x       y       z     vdW  Elec       q    Type
REMARK                         _______ _______ _______ _____ _____    ______ ____
ROOT
ATOM      1  O   LIG    1       25.825 -17.747   2.926  0.00  0.00    -0.488 OA
ENDROOT
BRANCH   1   5
ATOM      2  C   LIG    1       26.899 -20.980   6.373  0.00  0.00    +0.044 C 
ATOM      3  C   LIG    1       25.872 -20.316   5.505  0.00  0.00    -0.047 A 
ATOM      4  C   LIG    1       26.258 -19.327   4.590  0.00  0.00    +0.049 A 
ATOM      5  C   LIG    1       25.319 -18.712   3.756  0.00  0.00    +0.121 A 
ATOM      6  C   LIG    1       23.981 -19.100   3.832  0.00  0.00    +0.049 A 
ATOM      7  C   LIG    1       23.574 -20.083   4.745  0.00  0.00    -0.047 A 
ATOM      8  C   LIG    1       22.129 -20.488   4.801  0.00  0.00    +0.044 C 
ATOM      9  C   LIG    1       24.525 -20.691   5.571  0.00  0.00    +0.007 A 
ENDBRANCH   1   5
BRANCH   1  10
ATOM     10  C   LIG    1       26.638 -16.740   3.533  0.00  0.00    +0.275 C 
BRANCH  10  11
ATOM     11  C   LIG    1       26.181 -15.366   3.038  0.00  0.00    +0.232 C 
ATOM     12  O   LIG    1       27.329 -14.580   2.669  0.00  0.00    -0.442 OA
ATOM     13  C   LIG    1       27.584 -13.699   3.683  0.00  0.00    +0.401 C 
ATOM     14  O   LIG    1       28.540 -12.949   3.731  0.00  0.00    -0.227 OA
ATOM     15  N   LIG    1       26.589 -13.771   4.618  0.00  0.00    -0.278 N 
ATOM     16  H   LIG    1       26.531 -13.057   5.333  0.00  0.00    +0.152 HD
ATOM     17  C   LIG    1       25.507 -14.548   4.121  0.00  0.00    +0.155 C 
ENDBRANCH  10  11
ENDBRANCH   1  10
TORSDOF 3
ENDMDL
MODEL 5
REMARK VINA RESULT:      -5.5      2.574      6.028
REMARK  Name = *****
REMARK                            x       y       z     vdW  Elec       q    Type
REMARK                         _______ _______ _______ _____ _____    ______ ____
ROOT
ATOM      1  O   LIG    1       25.646 -17.214   3.255  0.00  0.00    -0.488 OA
ENDROOT
BRANCH   1   5
ATOM      2  C   LIG    1       23.778 -12.861   4.281  0.00  0.00    +0.044 C 
ATOM      3  C   LIG    1       24.982 -13.717   4.016  0.00  0.00    -0.047 A 
ATOM      4  C   LIG    1       24.828 -15.083   3.748  0.00  0.00    +0.049 A 
ATOM      5  C   LIG    1       25.934 -15.893   3.476  0.00  0.00    +0.121 A 
ATOM      6  C   LIG    1       27.208 -15.325   3.462  0.00  0.00    +0.049 A 
ATOM      7  C   LIG    1       27.384 -13.961   3.734  0.00  0.00    -0.047 A 
ATOM      8  C   LIG    1       28.765 -13.373   3.703  0.00  0.00    +0.044 C 
ATOM      9  C   LIG    1       26.267 -13.163   4.001  0.00  0.00    +0.007 A 
ENDBRANCH   1   5
BRANCH   1  10
ATOM     10  C   LIG    1       24.385 -17.685   3.735  0.00  0.00    +0.275 C 
BRANCH  10  11
ATOM     11  C   LIG    1       24.332 -19.207   3.586  0.00  0.00    +0.232 C 
ATOM     12  O   LIG    1       23.976 -19.803   4.847  0.00  0.00    -0.442 OA
ATOM     13  C   LIG    1       25.117 -20.289   5.424  0.00  0.00    +0.401 C 
ATOM     14  O   LIG    1       25.182 -20.774   6.537  0.00  0.00    -0.227 OA
ATOM     15  N   LIG    1       26.162 -20.170   4.551  0.00  0.00    -0.278 N 
ATOM     16  H   LIG    1       27.030 -20.649   4.753  0.00  0.00    +0.152 HD
ATOM     17  C   LIG    1       25.684 -19.811   3.261  0.00  0.00    +0.155 C 
ENDBRANCH  10  11
ENDBRANCH   1  10
TORSDOF 3
ENDMDL
MODEL 6
REMARK VINA RESULT:      -5.3      1.505      2.666
REMARK  Name = *****
REMARK                            x       y       z     vdW  Elec       q    Type
REMARK                         _______ _______ _______ _____ _____    ______ ____
ROOT
ATOM      1  O   LIG    1       25.694 -17.391   2.919  0.00  0.00    -0.488 OA
ENDROOT
BRANCH   1   5
ATOM      2  C   LIG    1       27.184 -20.760   6.067  0.00  0.00    +0.044 C 
ATOM      3  C   LIG    1       26.065 -20.115   5.305  0.00  0.00    -0.047 A 
ATOM      4  C   LIG    1       26.329 -19.042   4.442  0.00  0.00    +0.049 A 
ATOM      5  C   LIG    1       25.304 -18.442   3.705  0.00  0.00    +0.121 A 
ATOM      6  C   LIG    1       24.002 -18.929   3.825  0.00  0.00    +0.049 A 
ATOM      7  C   LIG    1       23.716 -19.996   4.688  0.00  0.00    -0.047 A 
ATOM      8  C   LIG    1       22.308 -20.506   4.792  0.00  0.00    +0.044 C 
ATOM      9  C   LIG    1       24.753 -20.589   5.416  0.00  0.00    +0.007 A 
ENDBRANCH   1   5
BRANCH   1  10
ATOM     10  C   LIG    1       26.886 -16.705   3.309  0.00  0.00    +0.275 C 
BRANCH  10  11
ATOM     11  C   LIG    1       26.503 -15.409   4.026  0.00  0.00    +0.232 C 
ATOM     12  O   LIG    1       25.392 -14.793   3.348  0.00  0.00    -0.442 OA
ATOM     13  C   LIG    1       25.876 -13.769   2.582  0.00  0.00    +0.401 C 
ATOM     14  O   LIG    1       25.213 -13.101   1.813  0.00  0.00    -0.227 OA
ATOM     15  N   LIG    1       27.209 -13.596   2.832  0.00  0.00    -0.278 N 
ATOM     16  H   LIG    1       27.671 -12.765   2.487  0.00  0.00    +0.152 HD
ATOM     17  C   LIG    1       27.597 -14.361   3.966  0.00  0.00    +0.155 C 
ENDBRANCH  10  11
ENDBRANCH   1  10
TORSDOF 3
ENDMDL
MODEL 7
REMARK VINA RESULT:      -5.3      1.448      1.643
REMARK  Name = *****
REMARK                            x       y       z     vdW  Elec       q    Type
REMARK                         _______ _______ _______ _____ _____    ______ ____
ROOT
ATOM      1  O   LIG    1       26.255 -17.489   3.242  0.00  0.00    -0.488 OA
ENDROOT
BRANCH   1   5
ATOM      2  C   LIG    1       21.714 -18.945   4.103  0.00  0.00    +0.044 C 
ATOM      3  C   LIG    1       23.189 -19.160   4.269  0.00  0.00    -0.047 A 
ATOM      4  C   LIG    1       24.100 -18.258   3.703  0.00  0.00    +0.049 A 
ATOM      5  C   LIG    1       25.478 -18.428   3.866  0.00  0.00    +0.121 A 
ATOM      6  C   LIG    1       25.949 -19.507   4.614  0.00  0.00    +0.049 A 
ATOM      7  C   LIG    1       25.055 -20.424   5.184  0.00  0.00    -0.047 A 
ATOM      8  C   LIG    1       25.587 -21.572   5.992  0.00  0.00    +0.044 C 
ATOM      9  C   LIG    1       23.678 -20.239   5.015  0.00  0.00    +0.007 A 
ENDBRANCH   1   5
BRANCH   1  10
ATOM     10  C   LIG    1       25.633 -16.238   2.939  0.00  0.00    +0.275 C 
BRANCH  10  11
ATOM     11  C   LIG    1       26.437 -15.111   3.590  0.00  0.00    +0.232 C 
ATOM     12  O   LIG    1       25.595 -14.385   4.505  0.00  0.00    -0.442 OA
ATOM     13  C   LIG    1       25.203 -13.226   3.895  0.00  0.00    +0.401 C 
ATOM     14  O   LIG    1       24.413 -12.427   4.359  0.00  0.00    -0.227 OA
ATOM     15  N   LIG    1       25.851 -13.093   2.698  0.00  0.00    -0.278 N 
ATOM     16  H   LIG    1       25.813 -12.206   2.213  0.00  0.00    +0.152 HD
ATOM     17  C   LIG    1       26.887 -14.062   2.593  0.00  0.00    +0.155 C 
ENDBRANCH  10  11
ENDBRANCH   1  10
TORSDOF 3
ENDMDL
MODEL 8
REMARK VINA RESULT:      -5.0      1.813      2.948
REMARK  Name = *****
REMARK                            x       y       z     vdW  Elec       q    Type
REMARK                         _______ _______ _______ _____ _____    ______ ____
ROOT
ATOM      1  O   LIG    1       26.450 -17.339   3.145  0.00  0.00    -0.488 OA
ENDROOT
BRANCH   1   5
ATOM      2  C   LIG    1       27.967 -20.583   6.409  0.00  0.00    +0.044 C 
ATOM      3  C   LIG    1       26.871 -20.052   5.535  0.00  0.00    -0.047 A 
ATOM      4  C   LIG    1       27.102 -18.940   4.714  0.00  0.00    +0.049 A 
ATOM      5  C   LIG    1       26.100 -18.443   3.875  0.00  0.00    +0.121 A 
ATOM      6  C   LIG    1       24.857 -19.075   3.848  0.00  0.00    +0.049 A 
ATOM      7  C   LIG    1       24.603 -20.186   4.666  0.00  0.00    -0.047 A 
ATOM      8  C   LIG    1       23.259 -20.853   4.611  0.00  0.00    +0.044 C 
ATOM      9  C   LIG    1       25.617 -20.673   5.498  0.00  0.00    +0.007 A 
ENDBRANCH   1   5
BRANCH   1  10
ATOM     10  C   LIG    1       25.554 -16.227   3.192  0.00  0.00    +0.275 C 
BRANCH  10  11
ATOM     11  C   LIG    1       26.331 -14.979   3.617  0.00  0.00    +0.232 C 
ATOM     12  O   LIG    1       25.537 -14.208   4.539  0.00  0.00    -0.442 OA
ATOM     13  C   LIG    1       24.990 -13.159   3.855  0.00  0.00    +0.401 C 
ATOM     14  O   LIG    1       24.193 -12.365   4.317  0.00  0.00    -0.227 OA
ATOM     15  N   LIG    1       25.493 -13.124   2.584  0.00  0.00    -0.278 N 
ATOM     16  H   LIG    1       25.332 -12.305   2.012  0.00  0.00    +0.152 HD
ATOM     17  C   LIG    1       26.586 -14.026   2.466  0.00  0.00    +0.155 C 
ENDBRANCH  10  11
ENDBRANCH   1  10
TORSDOF 3
ENDMDL
MODEL 9
REMARK VINA RESULT:      -4.8      2.960      6.302
REMARK  Name = *****
REMARK                            x       y       z     vdW  Elec       q    Type
REMARK                         _______ _______ _______ _____ _____    ______ ____
ROOT
ATOM      1  O   LIG    1       24.059 -16.702   3.798  0.00  0.00    -0.488 OA
ENDROOT
BRANCH   1   5
ATOM      2  C   LIG    1       23.670 -11.946   4.640  0.00  0.00    +0.044 C 
ATOM      3  C   LIG    1       24.528 -13.127   4.297  0.00  0.00    -0.047 A 
ATOM      4  C   LIG    1       23.958 -14.403   4.188  0.00  0.00    +0.049 A 
ATOM      5  C   LIG    1       24.736 -15.513   3.848  0.00  0.00    +0.121 A 
ATOM      6  C   LIG    1       26.099 -15.342   3.603  0.00  0.00    +0.049 A 
ATOM      7  C   LIG    1       26.690 -14.075   3.713  0.00  0.00    -0.047 A 
ATOM      8  C   LIG    1       28.157 -13.917   3.435  0.00  0.00    +0.044 C 
ATOM      9  C   LIG    1       25.897 -12.973   4.051  0.00  0.00    +0.007 A 
ENDBRANCH   1   5
BRANCH   1  10
ATOM     10  C   LIG    1       24.849 -17.886   3.667  0.00  0.00    +0.275 C 
BRANCH  10  11
ATOM     11  C   LIG    1       23.919 -19.088   3.490  0.00  0.00    +0.232 C 
ATOM     12  O   LIG    1       23.031 -19.181   4.620  0.00  0.00    -0.442 OA
ATOM     13  C   LIG    1       23.501 -20.160   5.451  0.00  0.00    +0.401 C 
ATOM     14  O   LIG    1       23.035 -20.433   6.540  0.00  0.00    -0.227 OA
ATOM     15  N   LIG    1       24.555 -20.800   4.859  0.00  0.00    -0.278 N 
ATOM     16  H   LIG    1       24.894 -21.665   5.260  0.00  0.00    +0.152 HD
ATOM     17  C   LIG    1       24.662 -20.410   3.496  0.00  0.00    +0.155 C 
ENDBRANCH  10  11
ENDBRANCH   1  10
TORSDOF 3
ENDMDL
