MODEL 1
REMARK VINA RESULT:      -4.8      0.000      0.000
REMARK  Name = *****
REMARK                            x       y       z     vdW  Elec       q    Type
REMARK                         _______ _______ _______ _____ _____    ______ ____
ROOT
ATOM      1  C   LIG    1       25.669 -19.175   3.760  0.00  0.00    +0.118 C 
ENDROOT
BRANCH   1   2
ATOM      2  C   LIG    1       26.447 -19.830   4.927  0.00  0.00    +0.007 A 
ATOM      3  C   LIG    1       27.740 -19.452   5.335  0.00  0.00    +0.047 A 
ATOM      4 CL   LIG    1       28.610 -18.117   4.671  0.00  0.00    -0.083 Cl
ATOM      5  C   LIG    1       28.402 -20.139   6.368  0.00  0.00    +0.020 A 
ATOM      6  C   LIG    1       27.776 -21.170   7.061  0.00  0.00    +0.001 A 
ATOM      7  C   LIG    1       26.480 -21.523   6.725  0.00  0.00    +0.001 A 
ATOM      8  C   LIG    1       25.831 -20.872   5.671  0.00  0.00    +0.008 A 
ENDBRANCH   1   2
BRANCH   1   9
ATOM      9  C   LIG    1       24.142 -19.154   4.041  0.00  0.00    -0.012 A 
ATOM     10  C   LIG    1       23.396 -17.968   4.075  0.00  0.00    +0.007 A 
ATOM     11  C   LIG    1       22.019 -17.959   4.337  0.00  0.00    +0.000 A 
ATOM     12  C   LIG    1       21.350 -19.158   4.577  0.00  0.00    +0.000 A 
ATOM     13  C   LIG    1       22.052 -20.345   4.542  0.00  0.00    +0.000 A 
ATOM     14  C   LIG    1       23.430 -20.356   4.276  0.00  0.00    +0.007 A 
ENDBRANCH   1   9
BRANCH   1  15
ATOM     15  O   LIG    1       25.872 -19.997   2.582  0.00  0.00    -0.379 OA
ATOM     16  H   LIG    1       26.249 -19.437   1.882  0.00  0.00    +0.211 HD
ENDBRANCH   1  15
BRANCH   1  17
ATOM     17  C   LIG    1       26.249 -17.793   3.293  0.00  0.00    +0.060 C 
BRANCH  17  18
ATOM     18  C   LIG    1       25.362 -16.573   3.630  0.00  0.00    +0.087 C 
BRANCH  18  20
ATOM     19  C   LIG    1       25.010 -14.193   3.653  0.00  0.00    +0.104 C 
ATOM     20  N   LIG    1       25.879 -15.266   3.153  0.00  0.00    -0.308 NA
ATOM     21  C   LIG    1       27.256 -15.008   3.576  0.00  0.00    +0.104 C 
ENDBRANCH  18  20
ENDBRANCH  17  18
ENDBRANCH   1  17
TORSDOF 6
ENDMDL
MODEL 2
REMARK VINA RESULT:      -4.5      2.932      5.310
REMARK  Name = *****
REMARK                            x       y       z     vdW  Elec       q    Type
REMARK                         _______ _______ _______ _____ _____    ______ ____
ROOT
ATOM      1  C   LIG    1       25.518 -15.459   3.508  0.00  0.00    +0.118 C 
ENDROOT
BRANCH   1   2
ATOM      2  C   LIG    1       24.429 -16.504   3.847  0.00  0.00    +0.007 A 
ATOM      3  C   LIG    1       24.590 -17.897   3.716  0.00  0.00    +0.047 A 
ATOM      4 CL   LIG    1       26.073 -18.659   3.267  0.00  0.00    -0.083 Cl
ATOM      5  C   LIG    1       23.528 -18.777   3.990  0.00  0.00    +0.020 A 
ATOM      6  C   LIG    1       22.307 -18.304   4.460  0.00  0.00    +0.001 A 
ATOM      7  C   LIG    1       22.139 -16.945   4.661  0.00  0.00    +0.001 A 
ATOM      8  C   LIG    1       23.176 -16.060   4.351  0.00  0.00    +0.008 A 
ENDBRANCH   1   2
BRANCH   1   9
ATOM      9  C   LIG    1       24.910 -14.040   3.352  0.00  0.00    -0.012 A 
ATOM     10  C   LIG    1       24.349 -13.336   4.425  0.00  0.00    +0.007 A 
ATOM     11  C   LIG    1       23.796 -12.057   4.273  0.00  0.00    +0.000 A 
ATOM     12  C   LIG    1       23.792 -11.447   3.019  0.00  0.00    +0.000 A 
ATOM     13  C   LIG    1       24.346 -12.108   1.942  0.00  0.00    +0.000 A 
ATOM     14  C   LIG    1       24.904 -13.387   2.094  0.00  0.00    +0.007 A 
ENDBRANCH   1   9
BRANCH   1  15
ATOM     15  O   LIG    1       26.087 -15.821   2.222  0.00  0.00    -0.379 OA
ATOM     16  H   LIG    1       25.878 -15.114   1.588  0.00  0.00    +0.211 HD
ENDBRANCH   1  15
BRANCH   1  17
ATOM     17  C   LIG    1       26.778 -15.513   4.444  0.00  0.00    +0.060 C 
BRANCH  17  18
ATOM     18  C   LIG    1       27.961 -14.632   3.984  0.00  0.00    +0.087 C 
BRANCH  18  20
ATOM     19  C   LIG    1       27.544 -13.075   5.771  0.00  0.00    +0.104 C 
ATOM     20  N   LIG    1       27.854 -13.195   4.340  0.00  0.00    -0.308 NA
ATOM     21  C   LIG    1       29.073 -12.441   4.047  0.00  0.00    +0.104 C 
ENDBRANCH  18  20
ENDBRANCH  17  18
ENDBRANCH   1  17
TORSDOF 6
ENDMDL
MODEL 3
REMARK VINA RESULT:      -4.3      2.362      5.604
REMARK  Name = *****
REMARK                            x       y       z     vdW  Elec       q    Type
REMARK                         _______ _______ _______ _____ _____    ______ ____
ROOT
ATOM      1  C   LIG    1       25.144 -18.953   3.698  0.00  0.00    +0.118 C 
ENDROOT
BRANCH   1   2
ATOM      2  C   LIG    1       25.056 -17.408   3.717  0.00  0.00    +0.007 A 
ATOM      3  C   LIG    1       23.910 -16.678   4.083  0.00  0.00    +0.047 A 
ATOM      4 CL   LIG    1       22.458 -17.397   4.684  0.00  0.00    -0.083 Cl
ATOM      5  C   LIG    1       23.893 -15.274   4.017  0.00  0.00    +0.020 A 
ATOM      6  C   LIG    1       25.029 -14.560   3.648  0.00  0.00    +0.001 A 
ATOM      7  C   LIG    1       26.192 -15.248   3.344  0.00  0.00    +0.001 A 
ATOM      8  C   LIG    1       26.203 -16.645   3.368  0.00  0.00    +0.008 A 
ENDBRANCH   1   2
BRANCH   1   9
ATOM      9  C   LIG    1       26.067 -19.480   4.828  0.00  0.00    -0.012 A 
ATOM     10  C   LIG    1       27.463 -19.365   4.781  0.00  0.00    +0.007 A 
ATOM     11  C   LIG    1       28.288 -19.851   5.804  0.00  0.00    +0.000 A 
ATOM     12  C   LIG    1       27.722 -20.476   6.915  0.00  0.00    +0.000 A 
ATOM     13  C   LIG    1       26.351 -20.598   6.999  0.00  0.00    +0.000 A 
ATOM     14  C   LIG    1       25.523 -20.107   5.977  0.00  0.00    +0.007 A 
ENDBRANCH   1   9
BRANCH   1  15
ATOM     15  O   LIG    1       25.750 -19.342   2.438  0.00  0.00    -0.379 OA
ATOM     16  H   LIG    1       25.054 -19.709   1.867  0.00  0.00    +0.211 HD
ENDBRANCH   1  15
BRANCH   1  17
ATOM     17  C   LIG    1       23.752 -19.678   3.623  0.00  0.00    +0.060 C 
BRANCH  17  18
ATOM     18  C   LIG    1       23.762 -21.145   4.108  0.00  0.00    +0.087 C 
BRANCH  18  20
ATOM     19  C   LIG    1       22.806 -21.465   6.293  0.00  0.00    +0.104 C 
ATOM     20  N   LIG    1       22.549 -21.572   4.851  0.00  0.00    -0.308 NA
ATOM     21  C   LIG    1       21.365 -20.781   4.513  0.00  0.00    +0.104 C 
ENDBRANCH  18  20
ENDBRANCH  17  18
ENDBRANCH   1  17
TORSDOF 6
ENDMDL
MODEL 4
REMARK VINA RESULT:      -3.9      1.968      5.234
REMARK  Name = *****
REMARK                            x       y       z     vdW  Elec       q    Type
REMARK                         _______ _______ _______ _____ _____    ______ ____
ROOT
ATOM      1  C   LIG    1       25.763 -18.625   3.569  0.00  0.00    +0.118 C 
ENDROOT
BRANCH   1   2
ATOM      2  C   LIG    1       24.275 -18.813   3.951  0.00  0.00    +0.007 A 
ATOM      3  C   LIG    1       23.657 -20.059   4.167  0.00  0.00    +0.047 A 
ATOM      4 CL   LIG    1       24.498 -21.568   4.154  0.00  0.00    -0.083 Cl
ATOM      5  C   LIG    1       22.283 -20.146   4.453  0.00  0.00    +0.020 A 
ATOM      6  C   LIG    1       21.506 -19.001   4.595  0.00  0.00    +0.001 A 
ATOM      7  C   LIG    1       22.099 -17.758   4.453  0.00  0.00    +0.001 A 
ATOM      8  C   LIG    1       23.455 -17.665   4.127  0.00  0.00    +0.008 A 
ENDBRANCH   1   2
BRANCH   1   9
ATOM      9  C   LIG    1       26.175 -17.130   3.622  0.00  0.00    -0.012 A 
ATOM     10  C   LIG    1       25.300 -16.091   3.276  0.00  0.00    +0.007 A 
ATOM     11  C   LIG    1       25.685 -14.744   3.320  0.00  0.00    +0.000 A 
ATOM     12  C   LIG    1       26.978 -14.404   3.715  0.00  0.00    +0.000 A 
ATOM     13  C   LIG    1       27.862 -15.400   4.072  0.00  0.00    +0.000 A 
ATOM     14  C   LIG    1       27.477 -16.750   4.033  0.00  0.00    +0.007 A 
ENDBRANCH   1   9
BRANCH   1  15
ATOM     15  O   LIG    1       25.921 -19.061   2.195  0.00  0.00    -0.379 OA
ATOM     16  H   LIG    1       26.295 -19.959   2.202  0.00  0.00    +0.211 HD
ENDBRANCH   1  15
BRANCH   1  17
ATOM     17  C   LIG    1       26.750 -19.584   4.327  0.00  0.00    +0.060 C 
BRANCH  17  18
ATOM     18  C   LIG    1       26.415 -19.806   5.819  0.00  0.00    +0.087 C 
BRANCH  18  20
ATOM     19  C   LIG    1       27.660 -21.448   7.062  0.00  0.00    +0.104 C 
ATOM     20  N   LIG    1       27.588 -20.026   6.703  0.00  0.00    -0.308 NA
ATOM     21  C   LIG    1       28.851 -19.620   6.086  0.00  0.00    +0.104 C 
ENDBRANCH  18  20
ENDBRANCH  17  18
ENDBRANCH   1  17
TORSDOF 6
ENDMDL
MODEL 5
REMARK VINA RESULT:      -3.7      3.070      5.740
REMARK  Name = *****
REMARK                            x       y       z     vdW  Elec       q    Type
REMARK                         _______ _______ _______ _____ _____    ______ ____
ROOT
ATOM      1  C   LIG    1       25.885 -14.718   3.287  0.00  0.00    +0.118 C 
ENDROOT
BRANCH   1   2
ATOM      2  C   LIG    1       27.018 -13.830   3.857  0.00  0.00    +0.007 A 
ATOM      3  C   LIG    1       27.052 -13.325   5.170  0.00  0.00    +0.047 A 
ATOM      4 CL   LIG    1       25.891 -13.719   6.386  0.00  0.00    -0.083 Cl
ATOM      5  C   LIG    1       28.089 -12.474   5.592  0.00  0.00    +0.020 A 
ATOM      6  C   LIG    1       29.147 -12.158   4.745  0.00  0.00    +0.001 A 
ATOM      7  C   LIG    1       29.174 -12.691   3.467  0.00  0.00    +0.001 A 
ATOM      8  C   LIG    1       28.125 -13.504   3.027  0.00  0.00    +0.008 A 
ENDBRANCH   1   2
BRANCH   1   9
ATOM      9  C   LIG    1       26.159 -16.222   3.555  0.00  0.00    -0.012 A 
ATOM     10  C   LIG    1       27.385 -16.693   4.041  0.00  0.00    +0.007 A 
ATOM     11  C   LIG    1       27.624 -18.055   4.272  0.00  0.00    +0.000 A 
ATOM     12  C   LIG    1       26.623 -18.989   4.014  0.00  0.00    +0.000 A 
ATOM     13  C   LIG    1       25.400 -18.559   3.544  0.00  0.00    +0.000 A 
ATOM     14  C   LIG    1       25.157 -17.195   3.316  0.00  0.00    +0.007 A 
ENDBRANCH   1   9
BRANCH   1  15
ATOM     15  O   LIG    1       25.869 -14.538   1.847  0.00  0.00    -0.379 OA
ATOM     16  H   LIG    1       26.525 -15.142   1.459  0.00  0.00    +0.211 HD
ENDBRANCH   1  15
BRANCH   1  17
ATOM     17  C   LIG    1       24.439 -14.253   3.686  0.00  0.00    +0.060 C 
BRANCH  17  18
ATOM     18  C   LIG    1       23.684 -13.477   2.584  0.00  0.00    +0.087 C 
BRANCH  18  20
ATOM     19  C   LIG    1       23.867 -11.613   4.093  0.00  0.00    +0.104 C 
ATOM     20  N   LIG    1       23.773 -11.998   2.679  0.00  0.00    -0.308 NA
ATOM     21  C   LIG    1       24.917 -11.447   1.952  0.00  0.00    +0.104 C 
ENDBRANCH  18  20
ENDBRANCH  17  18
ENDBRANCH   1  17
TORSDOF 6
ENDMDL
MODEL 6
REMARK VINA RESULT:      -3.7      3.266      5.795
REMARK  Name = *****
REMARK                            x       y       z     vdW  Elec       q    Type
REMARK                         _______ _______ _______ _____ _____    ______ ____
ROOT
ATOM      1  C   LIG    1       24.478 -14.812   4.065  0.00  0.00    +0.118 C 
ENDROOT
BRANCH   1   2
ATOM      2  C   LIG    1       24.507 -16.350   3.891  0.00  0.00    +0.007 A 
ATOM      3  C   LIG    1       23.444 -17.211   4.223  0.00  0.00    +0.047 A 
ATOM      4 CL   LIG    1       21.897 -16.669   4.767  0.00  0.00    -0.083 Cl
ATOM      5  C   LIG    1       23.572 -18.605   4.090  0.00  0.00    +0.020 A 
ATOM      6  C   LIG    1       24.730 -19.171   3.566  0.00  0.00    +0.001 A 
ATOM      7  C   LIG    1       25.769 -18.346   3.169  0.00  0.00    +0.001 A 
ATOM      8  C   LIG    1       25.664 -16.962   3.338  0.00  0.00    +0.008 A 
ENDBRANCH   1   2
BRANCH   1   9
ATOM      9  C   LIG    1       25.911 -14.216   4.059  0.00  0.00    -0.012 A 
ATOM     10  C   LIG    1       26.800 -14.394   2.991  0.00  0.00    +0.007 A 
ATOM     11  C   LIG    1       28.095 -13.857   2.999  0.00  0.00    +0.000 A 
ATOM     12  C   LIG    1       28.534 -13.120   4.098  0.00  0.00    +0.000 A 
ATOM     13  C   LIG    1       27.681 -12.917   5.163  0.00  0.00    +0.000 A 
ATOM     14  C   LIG    1       26.383 -13.450   5.155  0.00  0.00    +0.007 A 
ENDBRANCH   1   9
BRANCH   1  15
ATOM     15  O   LIG    1       23.905 -14.529   5.368  0.00  0.00    -0.379 OA
ATOM     16  H   LIG    1       23.862 -13.564   5.477  0.00  0.00    +0.211 HD
ENDBRANCH   1  15
BRANCH   1  17
ATOM     17  C   LIG    1       23.478 -14.073   3.106  0.00  0.00    +0.060 C 
BRANCH  17  18
ATOM     18  C   LIG    1       24.137 -13.395   1.884  0.00  0.00    +0.087 C 
BRANCH  18  20
ATOM     19  C   LIG    1       23.741 -11.468   3.270  0.00  0.00    +0.104 C 
ATOM     20  N   LIG    1       24.258 -11.918   1.971  0.00  0.00    -0.308 NA
ATOM     21  C   LIG    1       25.635 -11.447   1.812  0.00  0.00    +0.104 C 
ENDBRANCH  18  20
ENDBRANCH  17  18
ENDBRANCH   1  17
TORSDOF 6
ENDMDL
MODEL 7
REMARK VINA RESULT:      -3.6      1.947      4.819
REMARK  Name = *****
REMARK                            x       y       z     vdW  Elec       q    Type
REMARK                         _______ _______ _______ _____ _____    ______ ____
ROOT
ATOM      1  C   LIG    1       25.423 -19.003   3.679  0.00  0.00    +0.118 C 
ENDROOT
BRANCH   1   2
ATOM      2  C   LIG    1       24.006 -19.469   4.092  0.00  0.00    +0.007 A 
ATOM      3  C   LIG    1       23.738 -20.598   4.888  0.00  0.00    +0.047 A 
ATOM      4 CL   LIG    1       24.959 -21.572   5.625  0.00  0.00    -0.083 Cl
ATOM      5  C   LIG    1       22.417 -20.989   5.170  0.00  0.00    +0.020 A 
ATOM      6  C   LIG    1       21.336 -20.235   4.724  0.00  0.00    +0.001 A 
ATOM      7  C   LIG    1       21.569 -19.082   3.993  0.00  0.00    +0.001 A 
ATOM      8  C   LIG    1       22.879 -18.711   3.674  0.00  0.00    +0.008 A 
ENDBRANCH   1   2
BRANCH   1   9
ATOM      9  C   LIG    1       25.527 -17.454   3.668  0.00  0.00    -0.012 A 
ATOM     10  C   LIG    1       24.442 -16.621   3.970  0.00  0.00    +0.007 A 
ATOM     11  C   LIG    1       24.545 -15.223   3.950  0.00  0.00    +0.000 A 
ATOM     12  C   LIG    1       25.757 -14.621   3.618  0.00  0.00    +0.000 A 
ATOM     13  C   LIG    1       26.849 -15.411   3.324  0.00  0.00    +0.000 A 
ATOM     14  C   LIG    1       26.749 -16.811   3.348  0.00  0.00    +0.007 A 
ENDBRANCH   1   9
BRANCH   1  15
ATOM     15  O   LIG    1       25.654 -19.454   2.319  0.00  0.00    -0.379 OA
ATOM     16  H   LIG    1       26.613 -19.530   2.183  0.00  0.00    +0.211 HD
ENDBRANCH   1  15
BRANCH   1  17
ATOM     17  C   LIG    1       26.588 -19.713   4.456  0.00  0.00    +0.060 C 
BRANCH  17  18
ATOM     18  C   LIG    1       27.671 -18.759   5.009  0.00  0.00    +0.087 C 
BRANCH  18  20
ATOM     19  C   LIG    1       29.474 -18.435   6.568  0.00  0.00    +0.104 C 
ATOM     20  N   LIG    1       28.793 -19.422   5.721  0.00  0.00    -0.308 NA
ATOM     21  C   LIG    1       28.358 -20.548   6.547  0.00  0.00    +0.104 C 
ENDBRANCH  18  20
ENDBRANCH  17  18
ENDBRANCH   1  17
TORSDOF 6
ENDMDL
MODEL 8
REMARK VINA RESULT:      -3.4      2.175      5.857
REMARK  Name = *****
REMARK                            x       y       z     vdW  Elec       q    Type
REMARK                         _______ _______ _______ _____ _____    ______ ____
ROOT
ATOM      1  C   LIG    1       26.045 -17.464   3.598  0.00  0.00    +0.118 C 
ENDROOT
BRANCH   1   2
ATOM      2  C   LIG    1       26.237 -15.929   3.641  0.00  0.00    +0.007 A 
ATOM      3  C   LIG    1       25.196 -14.998   3.815  0.00  0.00    +0.047 A 
ATOM      4 CL   LIG    1       23.554 -15.434   4.127  0.00  0.00    -0.083 Cl
ATOM      5  C   LIG    1       25.447 -13.615   3.784  0.00  0.00    +0.020 A 
ATOM      6  C   LIG    1       26.742 -13.125   3.643  0.00  0.00    +0.001 A 
ATOM      7  C   LIG    1       27.796 -14.016   3.534  0.00  0.00    +0.001 A 
ATOM      8  C   LIG    1       27.548 -15.392   3.522  0.00  0.00    +0.008 A 
ENDBRANCH   1   2
BRANCH   1   9
ATOM      9  C   LIG    1       27.104 -18.191   4.469  0.00  0.00    -0.012 A 
ATOM     10  C   LIG    1       26.875 -19.446   5.047  0.00  0.00    +0.007 A 
ATOM     11  C   LIG    1       27.836 -20.091   5.838  0.00  0.00    +0.000 A 
ATOM     12  C   LIG    1       29.067 -19.479   6.072  0.00  0.00    +0.000 A 
ATOM     13  C   LIG    1       29.329 -18.248   5.509  0.00  0.00    +0.000 A 
ATOM     14  C   LIG    1       28.370 -17.602   4.713  0.00  0.00    +0.007 A 
ENDBRANCH   1   9
BRANCH   1  15
ATOM     15  O   LIG    1       26.254 -17.894   2.227  0.00  0.00    -0.379 OA
ATOM     16  H   LIG    1       25.590 -18.572   2.017  0.00  0.00    +0.211 HD
ENDBRANCH   1  15
BRANCH   1  17
ATOM     17  C   LIG    1       24.570 -17.937   3.862  0.00  0.00    +0.060 C 
BRANCH  17  18
ATOM     18  C   LIG    1       24.345 -19.458   3.716  0.00  0.00    +0.087 C 
BRANCH  18  20
ATOM     19  C   LIG    1       22.270 -19.759   4.896  0.00  0.00    +0.104 C 
ATOM     20  N   LIG    1       23.694 -20.114   4.878  0.00  0.00    -0.308 NA
ATOM     21  C   LIG    1       23.827 -21.572   4.859  0.00  0.00    +0.104 C 
ENDBRANCH  18  20
ENDBRANCH  17  18
ENDBRANCH   1  17
TORSDOF 6
ENDMDL
MODEL 9
REMARK VINA RESULT:      -3.4      2.281      4.551
REMARK  Name = *****
REMARK                            x       y       z     vdW  Elec       q    Type
REMARK                         _______ _______ _______ _____ _____    ______ ____
ROOT
ATOM      1  C   LIG    1       25.663 -19.018   3.778  0.00  0.00    +0.118 C 
ENDROOT
BRANCH   1   2
ATOM      2  C   LIG    1       24.590 -19.737   4.629  0.00  0.00    +0.007 A 
ATOM      3  C   LIG    1       23.210 -19.723   4.351  0.00  0.00    +0.047 A 
ATOM      4 CL   LIG    1       22.515 -18.996   2.947  0.00  0.00    -0.083 Cl
ATOM      5  C   LIG    1       22.292 -20.354   5.209  0.00  0.00    +0.020 A 
ATOM      6  C   LIG    1       22.725 -21.066   6.324  0.00  0.00    +0.001 A 
ATOM      7  C   LIG    1       24.081 -21.152   6.588  0.00  0.00    +0.001 A 
ATOM      8  C   LIG    1       24.996 -20.492   5.762  0.00  0.00    +0.008 A 
ENDBRANCH   1   2
BRANCH   1   9
ATOM      9  C   LIG    1       25.440 -17.481   3.768  0.00  0.00    -0.012 A 
ATOM     10  C   LIG    1       24.212 -16.893   4.096  0.00  0.00    +0.007 A 
ATOM     11  C   LIG    1       24.019 -15.505   4.077  0.00  0.00    +0.000 A 
ATOM     12  C   LIG    1       25.071 -14.663   3.721  0.00  0.00    +0.000 A 
ATOM     13  C   LIG    1       26.297 -15.208   3.402  0.00  0.00    +0.000 A 
ATOM     14  C   LIG    1       26.494 -16.598   3.425  0.00  0.00    +0.007 A 
ENDBRANCH   1   9
BRANCH   1  15
ATOM     15  O   LIG    1       25.518 -19.477   2.409  0.00  0.00    -0.379 OA
ATOM     16  H   LIG    1       24.887 -20.217   2.402  0.00  0.00    +0.211 HD
ENDBRANCH   1  15
BRANCH   1  17
ATOM     17  C   LIG    1       27.139 -19.444   4.105  0.00  0.00    +0.060 C 
BRANCH  17  18
ATOM     18  C   LIG    1       27.449 -19.592   5.611  0.00  0.00    +0.087 C 
BRANCH  18  20
ATOM     19  C   LIG    1       29.475 -18.578   6.421  0.00  0.00    +0.104 C 
ATOM     20  N   LIG    1       28.877 -19.830   5.942  0.00  0.00    -0.308 NA
ATOM     21  C   LIG    1       29.063 -20.871   6.954  0.00  0.00    +0.104 C 
ENDBRANCH  18  20
ENDBRANCH  17  18
ENDBRANCH   1  17
TORSDOF 6
ENDMDL
