MODEL 1
REMARK VINA RESULT:      -4.7      0.000      0.000
REMARK  Name = *****
REMARK                            x       y       z     vdW  Elec       q    Type
REMARK                         _______ _______ _______ _____ _____    ______ ____
ROOT
ATOM      1  C   LIG    1       21.703 -18.180   4.382  0.00  0.00    +0.141 C 
ATOM      2  N   LIG    1       22.748 -19.173   4.435  0.00  0.00    -0.244 N 
ATOM      3  C   LIG    1       24.048 -18.895   4.120  0.00  0.00    +0.232 C 
ATOM      4  O   LIG    1       24.469 -17.796   3.782  0.00  0.00    -0.274 OA
ATOM      5  C   LIG    1       24.862 -20.184   4.162  0.00  0.00    +0.078 C 
ATOM      6  C   LIG    1       25.200 -20.515   2.694  0.00  0.00    +0.026 C 
ATOM      7  C   LIG    1       23.855 -21.201   4.731  0.00  0.00    +0.117 C 
ATOM      8  C   LIG    1       22.538 -20.488   4.714  0.00  0.00    +0.223 C 
ATOM      9  O   LIG    1       21.466 -21.027   4.942  0.00  0.00    -0.275 OA
ENDROOT
BRANCH   5  10
ATOM     10  C   LIG    1       26.116 -20.148   5.038  0.00  0.00    -0.032 A 
ATOM     11  C   LIG    1       27.227 -19.344   4.732  0.00  0.00    +0.005 A 
ATOM     12  C   LIG    1       28.346 -19.309   5.570  0.00  0.00    +0.000 A 
ATOM     13  C   LIG    1       28.375 -20.072   6.733  0.00  0.00    +0.000 A 
ATOM     14  C   LIG    1       27.285 -20.869   7.062  0.00  0.00    +0.000 A 
ATOM     15  C   LIG    1       26.164 -20.902   6.226  0.00  0.00    +0.005 A 
ENDBRANCH   5  10
TORSDOF 1
ENDMDL
MODEL 2
REMARK VINA RESULT:      -4.6      0.082      1.245
REMARK  Name = *****
REMARK                            x       y       z     vdW  Elec       q    Type
REMARK                         _______ _______ _______ _____ _____    ______ ____
ROOT
ATOM      1  C   LIG    1       21.734 -18.183   4.216  0.00  0.00    +0.141 C 
ATOM      2  N   LIG    1       22.771 -19.181   4.328  0.00  0.00    -0.244 N 
ATOM      3  C   LIG    1       24.084 -18.914   4.061  0.00  0.00    +0.232 C 
ATOM      4  O   LIG    1       24.525 -17.823   3.723  0.00  0.00    -0.274 OA
ATOM      5  C   LIG    1       24.889 -20.206   4.158  0.00  0.00    +0.078 C 
ATOM      6  C   LIG    1       25.284 -20.563   2.710  0.00  0.00    +0.026 C 
ATOM      7  C   LIG    1       23.854 -21.209   4.702  0.00  0.00    +0.117 C 
ATOM      8  C   LIG    1       22.542 -20.490   4.620  0.00  0.00    +0.223 C 
ATOM      9  O   LIG    1       21.459 -21.019   4.813  0.00  0.00    -0.275 OA
ENDROOT
BRANCH   5  10
ATOM     10  C   LIG    1       26.106 -20.161   5.084  0.00  0.00    -0.032 A 
ATOM     11  C   LIG    1       26.193 -20.937   6.252  0.00  0.00    +0.005 A 
ATOM     12  C   LIG    1       27.332 -20.897   7.062  0.00  0.00    +0.000 A 
ATOM     13  C   LIG    1       28.409 -20.086   6.719  0.00  0.00    +0.000 A 
ATOM     14  C   LIG    1       28.350 -19.316   5.563  0.00  0.00    +0.000 A 
ATOM     15  C   LIG    1       27.213 -19.358   4.751  0.00  0.00    +0.005 A 
ENDBRANCH   5  10
TORSDOF 1
ENDMDL
MODEL 3
REMARK VINA RESULT:      -4.2      4.724      6.625
REMARK  Name = *****
REMARK                            x       y       z     vdW  Elec       q    Type
REMARK                         _______ _______ _______ _____ _____    ______ ____
ROOT
ATOM      1  C   LIG    1       28.758 -13.071   3.414  0.00  0.00    +0.141 C 
ATOM      2  N   LIG    1       27.465 -13.528   3.865  0.00  0.00    -0.244 N 
ATOM      3  C   LIG    1       26.564 -14.129   3.034  0.00  0.00    +0.232 C 
ATOM      4  O   LIG    1       26.748 -14.360   1.845  0.00  0.00    -0.274 OA
ATOM      5  C   LIG    1       25.264 -14.376   3.794  0.00  0.00    +0.078 C 
ATOM      6  C   LIG    1       24.241 -13.380   3.211  0.00  0.00    +0.026 C 
ATOM      7  C   LIG    1       25.640 -13.987   5.237  0.00  0.00    +0.117 C 
ATOM      8  C   LIG    1       26.982 -13.333   5.122  0.00  0.00    +0.223 C 
ATOM      9  O   LIG    1       27.538 -12.746   6.038  0.00  0.00    -0.275 OA
ENDROOT
BRANCH   5  10
ATOM     10  C   LIG    1       24.740 -15.813   3.763  0.00  0.00    -0.032 A 
ATOM     11  C   LIG    1       25.539 -16.898   3.364  0.00  0.00    +0.005 A 
ATOM     12  C   LIG    1       25.040 -18.204   3.376  0.00  0.00    +0.000 A 
ATOM     13  C   LIG    1       23.736 -18.453   3.791  0.00  0.00    +0.000 A 
ATOM     14  C   LIG    1       22.929 -17.397   4.199  0.00  0.00    +0.000 A 
ATOM     15  C   LIG    1       23.428 -16.092   4.191  0.00  0.00    +0.005 A 
ENDBRANCH   5  10
TORSDOF 1
ENDMDL
MODEL 4
REMARK VINA RESULT:      -4.0      2.545      4.076
REMARK  Name = *****
REMARK                            x       y       z     vdW  Elec       q    Type
REMARK                         _______ _______ _______ _____ _____    ______ ____
ROOT
ATOM      1  C   LIG    1       23.119 -21.298   6.706  0.00  0.00    +0.141 C 
ATOM      2  N   LIG    1       23.932 -20.583   5.752  0.00  0.00    -0.244 N 
ATOM      3  C   LIG    1       23.410 -19.698   4.852  0.00  0.00    +0.232 C 
ATOM      4  O   LIG    1       22.225 -19.403   4.764  0.00  0.00    -0.274 OA
ATOM      5  C   LIG    1       24.517 -19.216   3.920  0.00  0.00    +0.078 C 
ATOM      6  C   LIG    1       24.225 -19.865   2.552  0.00  0.00    +0.026 C 
ATOM      7  C   LIG    1       25.781 -19.827   4.553  0.00  0.00    +0.117 C 
ATOM      8  C   LIG    1       25.269 -20.777   5.592  0.00  0.00    +0.223 C 
ATOM      9  O   LIG    1       25.972 -21.572   6.198  0.00  0.00    -0.275 OA
ENDROOT
BRANCH   5  10
ATOM     10  C   LIG    1       24.674 -17.698   3.807  0.00  0.00    -0.032 A 
ATOM     11  C   LIG    1       23.643 -16.806   4.146  0.00  0.00    +0.005 A 
ATOM     12  C   LIG    1       23.828 -15.423   4.062  0.00  0.00    +0.000 A 
ATOM     13  C   LIG    1       25.048 -14.903   3.642  0.00  0.00    +0.000 A 
ATOM     14  C   LIG    1       26.086 -15.765   3.309  0.00  0.00    +0.000 A 
ATOM     15  C   LIG    1       25.903 -17.148   3.396  0.00  0.00    +0.005 A 
ENDBRANCH   5  10
TORSDOF 1
ENDMDL
MODEL 5
REMARK VINA RESULT:      -3.7      2.580      3.996
REMARK  Name = *****
REMARK                            x       y       z     vdW  Elec       q    Type
REMARK                         _______ _______ _______ _____ _____    ______ ____
ROOT
ATOM      1  C   LIG    1       23.105 -21.306   6.464  0.00  0.00    +0.141 C 
ATOM      2  N   LIG    1       23.956 -20.553   5.574  0.00  0.00    -0.244 N 
ATOM      3  C   LIG    1       23.470 -19.625   4.697  0.00  0.00    +0.232 C 
ATOM      4  O   LIG    1       22.290 -19.320   4.580  0.00  0.00    -0.274 OA
ATOM      5  C   LIG    1       24.612 -19.107   3.828  0.00  0.00    +0.078 C 
ATOM      6  C   LIG    1       24.367 -19.691   2.422  0.00  0.00    +0.026 C 
ATOM      7  C   LIG    1       25.850 -19.753   4.479  0.00  0.00    +0.117 C 
ATOM      8  C   LIG    1       25.297 -20.747   5.454  0.00  0.00    +0.223 C 
ATOM      9  O   LIG    1       25.974 -21.572   6.048  0.00  0.00    -0.275 OA
ENDROOT
BRANCH   5  10
ATOM     10  C   LIG    1       24.779 -17.587   3.791  0.00  0.00    -0.032 A 
ATOM     11  C   LIG    1       25.974 -16.970   3.384  0.00  0.00    +0.005 A 
ATOM     12  C   LIG    1       26.085 -15.576   3.330  0.00  0.00    +0.000 A 
ATOM     13  C   LIG    1       25.004 -14.773   3.677  0.00  0.00    +0.000 A 
ATOM     14  C   LIG    1       23.808 -15.360   4.074  0.00  0.00    +0.000 A 
ATOM     15  C   LIG    1       23.695 -16.752   4.125  0.00  0.00    +0.005 A 
ENDBRANCH   5  10
TORSDOF 1
ENDMDL
MODEL 6
REMARK VINA RESULT:      -3.7      5.017      6.298
REMARK  Name = *****
REMARK                            x       y       z     vdW  Elec       q    Type
REMARK                         _______ _______ _______ _____ _____    ______ ____
ROOT
ATOM      1  C   LIG    1       23.866 -11.749   4.692  0.00  0.00    +0.141 C 
ATOM      2  N   LIG    1       24.775 -12.606   3.970  0.00  0.00    -0.244 N 
ATOM      3  C   LIG    1       25.710 -13.382   4.592  0.00  0.00    +0.232 C 
ATOM      4  O   LIG    1       25.872 -13.452   5.804  0.00  0.00    -0.274 OA
ATOM      5  C   LIG    1       26.578 -14.065   3.540  0.00  0.00    +0.078 C 
ATOM      6  C   LIG    1       27.957 -13.378   3.623  0.00  0.00    +0.026 C 
ATOM      7  C   LIG    1       25.866 -13.697   2.224  0.00  0.00    +0.117 C 
ATOM      8  C   LIG    1       24.852 -12.664   2.612  0.00  0.00    +0.223 C 
ATOM      9  O   LIG    1       24.200 -12.011   1.812  0.00  0.00    -0.275 OA
ENDROOT
BRANCH   5  10
ATOM     10  C   LIG    1       26.693 -15.586   3.660  0.00  0.00    -0.032 A 
ATOM     11  C   LIG    1       27.785 -16.212   4.284  0.00  0.00    +0.005 A 
ATOM     12  C   LIG    1       27.845 -17.604   4.406  0.00  0.00    +0.000 A 
ATOM     13  C   LIG    1       26.815 -18.397   3.913  0.00  0.00    +0.000 A 
ATOM     14  C   LIG    1       25.720 -17.800   3.299  0.00  0.00    +0.000 A 
ATOM     15  C   LIG    1       25.657 -16.409   3.179  0.00  0.00    +0.005 A 
ENDBRANCH   5  10
TORSDOF 1
ENDMDL
MODEL 7
REMARK VINA RESULT:      -3.3      4.883      6.412
REMARK  Name = *****
REMARK                            x       y       z     vdW  Elec       q    Type
REMARK                         _______ _______ _______ _____ _____    ______ ____
ROOT
ATOM      1  C   LIG    1       24.360 -11.447   5.617  0.00  0.00    +0.141 C 
ATOM      2  N   LIG    1       24.593 -12.447   4.602  0.00  0.00    -0.244 N 
ATOM      3  C   LIG    1       25.381 -13.543   4.813  0.00  0.00    +0.232 C 
ATOM      4  O   LIG    1       25.952 -13.806   5.863  0.00  0.00    -0.274 OA
ATOM      5  C   LIG    1       25.512 -14.325   3.510  0.00  0.00    +0.078 C 
ATOM      6  C   LIG    1       26.964 -14.110   3.036  0.00  0.00    +0.026 C 
ATOM      7  C   LIG    1       24.523 -13.599   2.579  0.00  0.00    +0.117 C 
ATOM      8  C   LIG    1       24.132 -12.360   3.325  0.00  0.00    +0.223 C 
ATOM      9  O   LIG    1       23.482 -11.447   2.841  0.00  0.00    -0.275 OA
ENDROOT
BRANCH   5  10
ATOM     10  C   LIG    1       25.155 -15.810   3.590  0.00  0.00    -0.032 A 
ATOM     11  C   LIG    1       23.879 -16.259   3.969  0.00  0.00    +0.005 A 
ATOM     12  C   LIG    1       23.574 -17.624   4.003  0.00  0.00    +0.000 A 
ATOM     13  C   LIG    1       24.535 -18.566   3.654  0.00  0.00    +0.000 A 
ATOM     14  C   LIG    1       25.803 -18.147   3.267  0.00  0.00    +0.000 A 
ATOM     15  C   LIG    1       26.107 -16.783   3.230  0.00  0.00    +0.005 A 
ENDBRANCH   5  10
TORSDOF 1
ENDMDL
MODEL 8
REMARK VINA RESULT:      -2.6      1.511      2.160
REMARK  Name = *****
REMARK                            x       y       z     vdW  Elec       q    Type
REMARK                         _______ _______ _______ _____ _____    ______ ____
ROOT
ATOM      1  C   LIG    1       23.723 -15.945   3.475  0.00  0.00    +0.141 C 
ATOM      2  N   LIG    1       23.810 -17.337   3.846  0.00  0.00    -0.244 N 
ATOM      3  C   LIG    1       24.955 -18.068   3.707  0.00  0.00    +0.232 C 
ATOM      4  O   LIG    1       26.018 -17.635   3.280  0.00  0.00    -0.274 OA
ATOM      5  C   LIG    1       24.672 -19.521   4.075  0.00  0.00    +0.078 C 
ATOM      6  C   LIG    1       24.717 -20.306   2.748  0.00  0.00    +0.026 C 
ATOM      7  C   LIG    1       23.233 -19.456   4.621  0.00  0.00    +0.117 C 
ATOM      8  C   LIG    1       22.755 -18.077   4.283  0.00  0.00    +0.223 C 
ATOM      9  O   LIG    1       21.600 -17.702   4.413  0.00  0.00    -0.275 OA
ENDROOT
BRANCH   5  10
ATOM     10  C   LIG    1       25.600 -20.131   5.127  0.00  0.00    -0.032 A 
ATOM     11  C   LIG    1       25.134 -20.995   6.133  0.00  0.00    +0.005 A 
ATOM     12  C   LIG    1       26.012 -21.562   7.062  0.00  0.00    +0.000 A 
ATOM     13  C   LIG    1       27.373 -21.281   7.002  0.00  0.00    +0.000 A 
ATOM     14  C   LIG    1       27.859 -20.436   6.011  0.00  0.00    +0.000 A 
ATOM     15  C   LIG    1       26.983 -19.872   5.080  0.00  0.00    +0.005 A 
ENDBRANCH   5  10
TORSDOF 1
ENDMDL
MODEL 9
REMARK VINA RESULT:      -2.2      5.078      6.096
REMARK  Name = *****
REMARK                            x       y       z     vdW  Elec       q    Type
REMARK                         _______ _______ _______ _____ _____    ______ ____
ROOT
ATOM      1  C   LIG    1       22.540 -15.923   4.799  0.00  0.00    +0.141 C 
ATOM      2  N   LIG    1       23.825 -15.623   4.215  0.00  0.00    -0.244 N 
ATOM      3  C   LIG    1       24.284 -14.347   4.058  0.00  0.00    +0.232 C 
ATOM      4  O   LIG    1       23.684 -13.336   4.401  0.00  0.00    -0.274 OA
ATOM      5  C   LIG    1       25.610 -14.379   3.304  0.00  0.00    +0.078 C 
ATOM      6  C   LIG    1       25.310 -13.809   1.903  0.00  0.00    +0.026 C 
ATOM      7  C   LIG    1       25.917 -15.886   3.225  0.00  0.00    +0.117 C 
ATOM      8  C   LIG    1       24.661 -16.559   3.688  0.00  0.00    +0.223 C 
ATOM      9  O   LIG    1       24.460 -17.761   3.613  0.00  0.00    -0.275 OA
ENDROOT
BRANCH   5  10
ATOM     10  C   LIG    1       26.773 -13.647   3.977  0.00  0.00    -0.032 A 
ATOM     11  C   LIG    1       26.812 -13.406   5.361  0.00  0.00    +0.005 A 
ATOM     12  C   LIG    1       27.904 -12.762   5.951  0.00  0.00    +0.000 A 
ATOM     13  C   LIG    1       28.980 -12.351   5.173  0.00  0.00    +0.000 A 
ATOM     14  C   LIG    1       28.969 -12.586   3.803  0.00  0.00    +0.000 A 
ATOM     15  C   LIG    1       27.880 -13.233   3.213  0.00  0.00    +0.005 A 
ENDBRANCH   5  10
TORSDOF 1
ENDMDL
