MODEL 1
REMARK VINA RESULT:      10.0      0.000      0.000
REMARK  Name = *****
REMARK                            x       y       z     vdW  Elec       q    Type
REMARK                         _______ _______ _______ _____ _____    ______ ____
ROOT
ATOM      1  C   LIG    1       27.232 -21.440   6.006  0.00  0.00    +0.000 A 
ATOM      2  C   LIG    1       26.097 -22.173   5.631  0.00  0.00    +0.020 A 
ATOM      3  C   LIG    1       25.945 -23.458   6.129  0.00  0.00    +0.034 A 
ATOM      4  C   LIG    1       24.807 -24.432   5.881  0.00  0.00    +0.300 C 
ATOM      5  C   LIG    1       25.254 -25.634   6.692  0.00  0.00    +0.034 A 
ATOM      6  C   LIG    1       26.479 -25.371   7.330  0.00  0.00    -0.008 A 
ATOM      7  C   LIG    1       27.072 -26.332   8.124  0.00  0.00    +0.009 A 
ATOM      8  C   LIG    1       26.423 -27.565   8.273  0.00  0.00    +0.009 A 
ATOM      9  C   LIG    1       25.189 -27.855   7.635  0.00  0.00    -0.017 A 
ATOM     10  C   LIG    1       24.610 -26.854   6.834  0.00  0.00    +0.018 A 
ATOM     11  F   LIG    1       24.653 -24.728   4.560  0.00  0.00    -0.195 F 
ATOM     12  F   LIG    1       23.603 -23.946   6.297  0.00  0.00    -0.195 F 
ATOM     13  C   LIG    1       26.903 -24.033   6.988  0.00  0.00    -0.008 A 
ATOM     14  C   LIG    1       28.028 -23.323   7.362  0.00  0.00    +0.009 A 
ATOM     15  C   LIG    1       28.188 -22.024   6.865  0.00  0.00    +0.010 A 
ENDROOT
BRANCH   9  16
ATOM     16  C   LIG    1       24.500 -29.150   7.850  0.00  0.00    -0.016 A 
ATOM     17  C   LIG    1       23.326 -29.197   8.628  0.00  0.00    +0.036 A 
ATOM     18  C   LIG    1       22.798 -30.446   8.937  0.00  0.00    +0.067 A 
ATOM     19  C   LIG    1       23.336 -31.638   8.482  0.00  0.00    +0.089 A 
ATOM     20  N   LIG    1       22.689 -32.705   9.041  0.00  0.00    -0.231 NA
ATOM     21  C   LIG    1       21.841 -32.180   9.907  0.00  0.00    +0.129 A 
ATOM     22  C   LIG    1       24.445 -31.608   7.633  0.00  0.00    +0.030 A 
ATOM     23  N   LIG    1       21.771 -30.820   9.759  0.00  0.00    -0.340 N 
ATOM     24  H   LIG    1       21.211 -30.210  10.343  0.00  0.00    +0.167 HD
ATOM     25  C   LIG    1       25.020 -30.361   7.341  0.00  0.00    +0.010 A 
BRANCH  21  26
ATOM     26  C   LIG    1       21.207 -32.886  11.053  0.00  0.00    +0.145 C 
ATOM     27  N   LIG    1       21.458 -32.282  12.372  0.00  0.00    -0.287 N 
ATOM     28  C   LIG    1       22.626 -32.510  13.078  0.00  0.00    +0.237 C 
ATOM     29  O   LIG    1       23.637 -32.845  12.448  0.00  0.00    -0.274 OA
ATOM     30  C   LIG    1       20.154 -31.902  12.904  0.00  0.00    +0.077 C 
ATOM     31  C   LIG    1       19.374 -31.487  11.659  0.00  0.00    +0.028 C 
ATOM     32  C   LIG    1       19.422 -33.209  13.281  0.00  0.00    +0.023 C 
ATOM     33  C   LIG    1       19.056 -33.822  11.930  0.00  0.00    +0.007 C 
ATOM     34  C   LIG    1       19.657 -32.813  10.948  0.00  0.00    +0.019 C 
BRANCH  28  35
ATOM     35  C   LIG    1       22.687 -32.284  14.642  0.00  0.00    +0.165 C 
BRANCH  35  36
ATOM     36  N   LIG    1       24.023 -32.537  15.190  0.00  0.00    -0.270 N 
ATOM     37  H   LIG    1       24.140 -33.269  15.888  0.00  0.00    +0.153 HD
ATOM     38  C   LIG    1       25.150 -31.864  14.853  0.00  0.00    +0.401 C 
ATOM     39  O   LIG    1       25.182 -30.832  14.165  0.00  0.00    -0.227 OA
BRANCH  38  40
ATOM     40  O   LIG    1       26.214 -32.397  15.485  0.00  0.00    -0.454 OA
ATOM     41  C   LIG    1       26.297 -33.822  15.403  0.00  0.00    +0.282 C 
ENDBRANCH  38  40
ENDBRANCH  35  36
BRANCH  35  42
ATOM     42  C   LIG    1       22.302 -30.822  15.044  0.00  0.00    +0.012 C 
ATOM     43  C   LIG    1       20.830 -30.717  15.490  0.00  0.00    +0.009 C 
ATOM     44  C   LIG    1       22.526 -29.800  13.925  0.00  0.00    +0.009 C 
ENDBRANCH  35  42
ENDBRANCH  28  35
ENDBRANCH  21  26
ENDBRANCH   9  16
BRANCH   1  48
ATOM     45  C   LIG    1       27.121 -18.245   4.277  0.00  0.00    +0.128 A 
ATOM     46  N   LIG    1       26.604 -19.482   4.574  0.00  0.00    -0.340 N 
ATOM     47  H   LIG    1       25.796 -19.891   4.121  0.00  0.00    +0.167 HD
ATOM     48  C   LIG    1       27.408 -20.078   5.519  0.00  0.00    +0.066 A 
ATOM     49  C   LIG    1       28.361 -19.116   5.793  0.00  0.00    +0.139 A 
ATOM     50  N   LIG    1       28.170 -17.993   5.036  0.00  0.00    -0.238 NA
BRANCH  45  53
ATOM     51  C   LIG    1       24.082 -17.747   3.301  0.00  0.00    +0.237 C 
ATOM     52  N   LIG    1       25.188 -16.964   3.550  0.00  0.00    -0.289 N 
ATOM     53  C   LIG    1       26.543 -17.388   3.184  0.00  0.00    +0.143 C 
ATOM     54  C   LIG    1       27.308 -16.068   3.021  0.00  0.00    +0.038 C 
ATOM     55  C   LIG    1       26.590 -15.135   3.962  0.00  0.00    -0.011 C 
ATOM     56  C   LIG    1       26.869 -13.653   3.970  0.00  0.00    +0.009 C 
ATOM     57  C   LIG    1       27.331 -14.500   5.120  0.00  0.00    +0.009 C 
ATOM     58  C   LIG    1       25.203 -15.657   4.187  0.00  0.00    +0.115 C 
ATOM     59  O   LIG    1       24.200 -18.854   2.759  0.00  0.00    -0.274 OA
BRANCH  51  60
ATOM     60  C   LIG    1       22.689 -17.243   3.774  0.00  0.00    +0.165 C 
BRANCH  60  62
ATOM     61  C   LIG    1       22.587 -19.385   5.048  0.00  0.00    +0.401 C 
ATOM     62  N   LIG    1       21.991 -18.393   4.344  0.00  0.00    -0.270 N 
ATOM     63  H   LIG    1       20.969 -18.399   4.329  0.00  0.00    +0.153 HD
ATOM     64  O   LIG    1       23.797 -19.477   5.303  0.00  0.00    -0.227 OA
BRANCH  61  66
ATOM     65  C   LIG    1       21.710 -21.534   4.929  0.00  0.00    +0.282 C 
ATOM     66  O   LIG    1       21.620 -20.221   5.474  0.00  0.00    -0.454 OA
ENDBRANCH  61  66
ENDBRANCH  60  62
BRANCH  60  67
ATOM     67  C   LIG    1       22.816 -16.124   4.838  0.00  0.00    +0.012 C 
ATOM     68  C   LIG    1       21.710 -16.216   5.897  0.00  0.00    +0.009 C 
ATOM     69  C   LIG    1       22.758 -14.721   4.242  0.00  0.00    +0.009 C 
ENDBRANCH  60  67
ENDBRANCH  51  60
ENDBRANCH  45  53
ENDBRANCH   1  48
TORSDOF 12
ENDMDL
MODEL 2
REMARK VINA RESULT:      11.0      2.158     15.622
REMARK  Name = *****
REMARK                            x       y       z     vdW  Elec       q    Type
REMARK                         _______ _______ _______ _____ _____    ______ ____
ROOT
ATOM      1  C   LIG    1       24.185 -29.925   6.929  0.00  0.00    +0.000 A 
ATOM      2  C   LIG    1       25.113 -29.149   7.639  0.00  0.00    +0.020 A 
ATOM      3  C   LIG    1       25.358 -27.854   7.211  0.00  0.00    +0.034 A 
ATOM      4  C   LIG    1       26.298 -26.827   7.817  0.00  0.00    +0.300 C 
ATOM      5  C   LIG    1       26.106 -25.649   6.880  0.00  0.00    +0.034 A 
ATOM      6  C   LIG    1       25.167 -25.960   5.881  0.00  0.00    -0.008 A 
ATOM      7  C   LIG    1       24.838 -25.029   4.919  0.00  0.00    +0.009 A 
ATOM      8  C   LIG    1       25.462 -23.775   4.966  0.00  0.00    +0.009 A 
ATOM      9  C   LIG    1       26.416 -23.439   5.961  0.00  0.00    -0.017 A 
ATOM     10  C   LIG    1       26.728 -24.411   6.929  0.00  0.00    +0.018 A 
ATOM     11  F   LIG    1       27.591 -27.258   7.847  0.00  0.00    -0.195 F 
ATOM     12  F   LIG    1       25.977 -26.521   9.106  0.00  0.00    -0.195 F 
ATOM     13  C   LIG    1       24.703 -27.313   6.085  0.00  0.00    -0.008 A 
ATOM     14  C   LIG    1       23.790 -28.068   5.375  0.00  0.00    +0.009 A 
ATOM     15  C   LIG    1       23.535 -29.376   5.802  0.00  0.00    +0.010 A 
ENDROOT
BRANCH   9  16
ATOM     16  C   LIG    1       27.024 -22.087   6.016  0.00  0.00    -0.016 A 
ATOM     17  C   LIG    1       26.251 -20.959   5.675  0.00  0.00    +0.036 A 
ATOM     18  C   LIG    1       26.897 -19.730   5.587  0.00  0.00    +0.067 A 
ATOM     19  C   LIG    1       28.243 -19.550   5.864  0.00  0.00    +0.089 A 
ATOM     20  N   LIG    1       28.628 -18.271   5.576  0.00  0.00    -0.231 NA
ATOM     21  C   LIG    1       27.567 -17.704   5.030  0.00  0.00    +0.129 A 
ATOM     22  C   LIG    1       29.004 -20.640   6.294  0.00  0.00    +0.030 A 
ATOM     23  N   LIG    1       26.463 -18.505   5.162  0.00  0.00    -0.340 N 
ATOM     24  H   LIG    1       25.550 -18.284   4.785  0.00  0.00    +0.167 HD
ATOM     25  C   LIG    1       28.384 -21.898   6.350  0.00  0.00    +0.010 A 
BRANCH  21  26
ATOM     26  C   LIG    1       27.564 -16.485   4.177  0.00  0.00    +0.145 C 
ATOM     27  N   LIG    1       26.295 -15.737   4.163  0.00  0.00    -0.287 N 
ATOM     28  C   LIG    1       25.228 -16.110   3.366  0.00  0.00    +0.237 C 
ATOM     29  O   LIG    1       25.152 -17.290   3.000  0.00  0.00    -0.274 OA
ATOM     30  C   LIG    1       26.595 -14.411   4.689  0.00  0.00    +0.077 C 
ATOM     31  C   LIG    1       27.675 -14.683   5.733  0.00  0.00    +0.028 C 
ATOM     32  C   LIG    1       27.417 -13.672   3.610  0.00  0.00    +0.023 C 
ATOM     33  C   LIG    1       28.781 -14.359   3.661  0.00  0.00    +0.007 C 
ATOM     34  C   LIG    1       28.561 -15.429   4.732  0.00  0.00    +0.019 C 
BRANCH  28  35
ATOM     35  C   LIG    1       24.098 -15.071   2.985  0.00  0.00    +0.165 C 
BRANCH  35  36
ATOM     36  N   LIG    1       23.391 -14.559   4.164  0.00  0.00    -0.270 N 
ATOM     37  H   LIG    1       23.568 -13.604   4.469  0.00  0.00    +0.153 HD
ATOM     38  C   LIG    1       22.505 -15.258   4.913  0.00  0.00    +0.401 C 
ATOM     39  O   LIG    1       22.295 -16.477   4.812  0.00  0.00    -0.227 OA
BRANCH  38  40
ATOM     40  O   LIG    1       21.987 -14.468   5.874  0.00  0.00    -0.454 OA
ATOM     41  C   LIG    1       21.597 -15.161   7.062  0.00  0.00    +0.282 C 
ENDBRANCH  38  40
ENDBRANCH  35  36
BRANCH  35  42
ATOM     42  C   LIG    1       24.667 -13.830   2.224  0.00  0.00    +0.012 C 
ATOM     43  C   LIG    1       23.926 -13.580   0.895  0.00  0.00    +0.009 C 
ATOM     44  C   LIG    1       26.163 -13.935   1.913  0.00  0.00    +0.009 C 
ENDBRANCH  35  42
ENDBRANCH  28  35
ENDBRANCH  21  26
ENDBRANCH   9  16
BRANCH   1  48
ATOM     45  C   LIG    1       23.490 -32.997   8.741  0.00  0.00    +0.128 A 
ATOM     46  N   LIG    1       23.616 -31.632   8.672  0.00  0.00    -0.340 N 
ATOM     47  H   LIG    1       23.566 -31.009   9.470  0.00  0.00    +0.167 HD
ATOM     48  C   LIG    1       23.887 -31.281   7.369  0.00  0.00    +0.066 A 
ATOM     49  C   LIG    1       23.851 -32.484   6.691  0.00  0.00    +0.139 A 
ATOM     50  N   LIG    1       23.596 -33.528   7.538  0.00  0.00    -0.238 NA
BRANCH  45  53
ATOM     51  C   LIG    1       25.250 -32.998  11.449  0.00  0.00    +0.237 C 
ATOM     52  N   LIG    1       23.911 -32.917  11.133  0.00  0.00    -0.289 N 
ATOM     53  C   LIG    1       23.316 -33.710  10.054  0.00  0.00    +0.143 C 
ATOM     54  C   LIG    1       21.838 -33.824  10.456  0.00  0.00    +0.038 C 
ATOM     55  C   LIG    1       21.600 -32.566  11.250  0.00  0.00    -0.011 C 
ATOM     56  C   LIG    1       20.328 -32.355  12.033  0.00  0.00    +0.009 C 
ATOM     57  C   LIG    1       20.572 -31.555  10.786  0.00  0.00    +0.009 C 
ATOM     58  C   LIG    1       22.915 -32.074  11.774  0.00  0.00    +0.115 C 
ATOM     59  O   LIG    1       26.005 -33.750  10.819  0.00  0.00    -0.274 OA
BRANCH  51  60
ATOM     60  C   LIG    1       25.809 -32.078  12.572  0.00  0.00    +0.165 C 
BRANCH  60  62
ATOM     61  C   LIG    1       26.374 -29.671  12.244  0.00  0.00    +0.401 C 
ATOM     62  N   LIG    1       25.498 -30.703  12.190  0.00  0.00    -0.270 N 
ATOM     63  H   LIG    1       24.605 -30.516  11.729  0.00  0.00    +0.153 HD
ATOM     64  O   LIG    1       27.550 -29.728  12.632  0.00  0.00    -0.227 OA
BRANCH  61  66
ATOM     65  C   LIG    1       24.426 -28.403  12.222  0.00  0.00    +0.282 C 
ATOM     66  O   LIG    1       25.755 -28.584  11.743  0.00  0.00    -0.454 OA
ENDBRANCH  61  66
ENDBRANCH  60  62
BRANCH  60  67
ATOM     67  C   LIG    1       25.169 -32.399  13.946  0.00  0.00    +0.012 C 
ATOM     68  C   LIG    1       25.673 -31.453  15.045  0.00  0.00    +0.009 C 
ATOM     69  C   LIG    1       25.441 -33.825  14.416  0.00  0.00    +0.009 C 
ENDBRANCH  60  67
ENDBRANCH  51  60
ENDBRANCH  45  53
ENDBRANCH   1  48
TORSDOF 12
ENDMDL
MODEL 3
REMARK VINA RESULT:      11.3      1.825      2.570
REMARK  Name = *****
REMARK                            x       y       z     vdW  Elec       q    Type
REMARK                         _______ _______ _______ _____ _____    ______ ____
ROOT
ATOM      1  C   LIG    1       26.746 -21.859   6.046  0.00  0.00    +0.000 A 
ATOM      2  C   LIG    1       25.578 -22.602   5.819  0.00  0.00    +0.020 A 
ATOM      3  C   LIG    1       25.494 -23.880   6.349  0.00  0.00    +0.034 A 
ATOM      4  C   LIG    1       24.340 -24.863   6.251  0.00  0.00    +0.300 C 
ATOM      5  C   LIG    1       24.888 -26.052   7.018  0.00  0.00    +0.034 A 
ATOM      6  C   LIG    1       26.179 -25.775   7.501  0.00  0.00    -0.008 A 
ATOM      7  C   LIG    1       26.868 -26.723   8.230  0.00  0.00    +0.009 A 
ATOM      8  C   LIG    1       26.249 -27.956   8.471  0.00  0.00    +0.009 A 
ATOM      9  C   LIG    1       24.949 -28.260   7.990  0.00  0.00    -0.017 A 
ATOM     10  C   LIG    1       24.273 -27.272   7.251  0.00  0.00    +0.018 A 
ATOM     11  F   LIG    1       24.031 -25.177   4.961  0.00  0.00    -0.195 F 
ATOM     12  F   LIG    1       23.192 -24.376   6.802  0.00  0.00    -0.195 F 
ATOM     13  C   LIG    1       26.552 -24.440   7.094  0.00  0.00    -0.008 A 
ATOM     14  C   LIG    1       27.708 -23.720   7.320  0.00  0.00    +0.009 A 
ATOM     15  C   LIG    1       27.800 -22.427   6.792  0.00  0.00    +0.010 A 
ENDROOT
BRANCH   9  16
ATOM     16  C   LIG    1       24.299 -29.556   8.302  0.00  0.00    -0.016 A 
ATOM     17  C   LIG    1       22.922 -29.591   8.604  0.00  0.00    +0.036 A 
ATOM     18  C   LIG    1       22.383 -30.796   9.044  0.00  0.00    +0.067 A 
ATOM     19  C   LIG    1       23.114 -31.967   9.153  0.00  0.00    +0.089 A 
ATOM     20  N   LIG    1       22.361 -32.955   9.725  0.00  0.00    -0.231 NA
ATOM     21  C   LIG    1       21.224 -32.372  10.061  0.00  0.00    +0.129 A 
ATOM     22  C   LIG    1       24.457 -31.974   8.769  0.00  0.00    +0.030 A 
ATOM     23  N   LIG    1       21.144 -31.113   9.528  0.00  0.00    -0.340 N 
ATOM     24  H   LIG    1       20.375 -30.474   9.688  0.00  0.00    +0.167 HD
ATOM     25  C   LIG    1       25.034 -30.760   8.362  0.00  0.00    +0.010 A 
BRANCH  21  26
ATOM     26  C   LIG    1       20.245 -32.872  11.063  0.00  0.00    +0.145 C 
ATOM     27  N   LIG    1       19.999 -31.967  12.199  0.00  0.00    -0.287 N 
ATOM     28  C   LIG    1       20.848 -31.904  13.289  0.00  0.00    +0.237 C 
ATOM     29  O   LIG    1       22.024 -32.257  13.138  0.00  0.00    -0.274 OA
ATOM     30  C   LIG    1       18.582 -31.624  12.151  0.00  0.00    +0.077 C 
ATOM     31  C   LIG    1       18.282 -31.583  10.654  0.00  0.00    +0.028 C 
ATOM     32  C   LIG    1       17.797 -32.887  12.569  0.00  0.00    +0.023 C 
ATOM     33  C   LIG    1       17.947 -33.820  11.368  0.00  0.00    +0.007 C 
ATOM     34  C   LIG    1       18.830 -32.995  10.430  0.00  0.00    +0.019 C 
BRANCH  28  35
ATOM     35  C   LIG    1       20.348 -31.331  14.676  0.00  0.00    +0.165 C 
BRANCH  35  36
ATOM     36  N   LIG    1       19.479 -30.160  14.514  0.00  0.00    -0.270 N 
ATOM     37  H   LIG    1       18.472 -30.298  14.449  0.00  0.00    +0.153 HD
ATOM     38  C   LIG    1       19.900 -28.875  14.434  0.00  0.00    +0.401 C 
ATOM     39  O   LIG    1       21.083 -28.521  14.314  0.00  0.00    -0.227 OA
BRANCH  38  40
ATOM     40  O   LIG    1       18.841 -28.044  14.364  0.00  0.00    -0.454 OA
ATOM     41  C   LIG    1       17.790 -28.348  15.284  0.00  0.00    +0.282 C 
ENDBRANCH  38  40
ENDBRANCH  35  36
BRANCH  35  42
ATOM     42  C   LIG    1       19.536 -32.387  15.494  0.00  0.00    +0.012 C 
ATOM     43  C   LIG    1       19.800 -33.824  15.001  0.00  0.00    +0.009 C 
ATOM     44  C   LIG    1       18.022 -32.154  15.465  0.00  0.00    +0.009 C 
ENDBRANCH  35  42
ENDBRANCH  28  35
ENDBRANCH  21  26
ENDBRANCH   9  16
BRANCH   1  48
ATOM     45  C   LIG    1       26.537 -18.741   4.190  0.00  0.00    +0.128 A 
ATOM     46  N   LIG    1       26.099 -20.009   4.486  0.00  0.00    -0.340 N 
ATOM     47  H   LIG    1       25.374 -20.499   3.976  0.00  0.00    +0.167 HD
ATOM     48  C   LIG    1       26.854 -20.503   5.525  0.00  0.00    +0.066 A 
ATOM     49  C   LIG    1       27.693 -19.454   5.849  0.00  0.00    +0.139 A 
ATOM     50  N   LIG    1       27.483 -18.376   5.033  0.00  0.00    -0.238 NA
BRANCH  45  53
ATOM     51  C   LIG    1       23.555 -17.753   3.439  0.00  0.00    +0.237 C 
ATOM     52  N   LIG    1       24.818 -17.204   3.424  0.00  0.00    -0.289 N 
ATOM     53  C   LIG    1       25.998 -17.972   3.015  0.00  0.00    +0.143 C 
ATOM     54  C   LIG    1       26.982 -16.900   2.527  0.00  0.00    +0.038 C 
ATOM     55  C   LIG    1       26.599 -15.688   3.338  0.00  0.00    -0.011 C 
ATOM     56  C   LIG    1       27.168 -14.324   3.033  0.00  0.00    +0.009 C 
ATOM     57  C   LIG    1       27.604 -15.049   4.274  0.00  0.00    +0.009 C 
ATOM     58  C   LIG    1       25.181 -15.845   3.793  0.00  0.00    +0.115 C 
ATOM     59  O   LIG    1       23.373 -18.933   3.110  0.00  0.00    -0.274 OA
BRANCH  51  60
ATOM     60  C   LIG    1       22.368 -16.882   3.940  0.00  0.00    +0.165 C 
BRANCH  60  62
ATOM     61  C   LIG    1       20.341 -18.132   3.197  0.00  0.00    +0.401 C 
ATOM     62  N   LIG    1       21.238 -17.783   4.151  0.00  0.00    -0.270 N 
ATOM     63  H   LIG    1       21.178 -18.291   5.036  0.00  0.00    +0.153 HD
ATOM     64  O   LIG    1       20.332 -17.738   2.022  0.00  0.00    -0.227 OA
BRANCH  61  66
ATOM     65  C   LIG    1       18.316 -19.250   2.973  0.00  0.00    +0.282 C 
ATOM     66  O   LIG    1       19.497 -19.030   3.739  0.00  0.00    -0.454 OA
ENDBRANCH  61  66
ENDBRANCH  60  62
BRANCH  60  67
ATOM     67  C   LIG    1       22.712 -16.152   5.263  0.00  0.00    +0.012 C 
ATOM     68  C   LIG    1       21.451 -15.746   6.036  0.00  0.00    +0.009 C 
ATOM     69  C   LIG    1       23.541 -14.889   5.053  0.00  0.00    +0.009 C 
ENDBRANCH  60  67
ENDBRANCH  51  60
ENDBRANCH  45  53
ENDBRANCH   1  48
TORSDOF 12
ENDMDL
MODEL 4
REMARK VINA RESULT:      11.5      1.625      2.292
REMARK  Name = *****
REMARK                            x       y       z     vdW  Elec       q    Type
REMARK                         _______ _______ _______ _____ _____    ______ ____
ROOT
ATOM      1  C   LIG    1       26.983 -21.956   6.116  0.00  0.00    +0.000 A 
ATOM      2  C   LIG    1       25.795 -22.664   5.881  0.00  0.00    +0.020 A 
ATOM      3  C   LIG    1       25.679 -23.948   6.389  0.00  0.00    +0.034 A 
ATOM      4  C   LIG    1       24.499 -24.898   6.279  0.00  0.00    +0.300 C 
ATOM      5  C   LIG    1       25.017 -26.114   7.024  0.00  0.00    +0.034 A 
ATOM      6  C   LIG    1       26.317 -25.880   7.507  0.00  0.00    -0.008 A 
ATOM      7  C   LIG    1       26.982 -26.857   8.218  0.00  0.00    +0.009 A 
ATOM      8  C   LIG    1       26.330 -28.078   8.440  0.00  0.00    +0.009 A 
ATOM      9  C   LIG    1       25.022 -28.339   7.958  0.00  0.00    -0.017 A 
ATOM     10  C   LIG    1       24.370 -27.321   7.238  0.00  0.00    +0.018 A 
ATOM     11  F   LIG    1       24.178 -25.182   4.985  0.00  0.00    -0.195 F 
ATOM     12  F   LIG    1       23.366 -24.389   6.841  0.00  0.00    -0.195 F 
ATOM     13  C   LIG    1       26.723 -24.548   7.121  0.00  0.00    -0.008 A 
ATOM     14  C   LIG    1       27.899 -23.864   7.356  0.00  0.00    +0.009 A 
ATOM     15  C   LIG    1       28.024 -22.565   6.849  0.00  0.00    +0.010 A 
ENDROOT
BRANCH   9  16
ATOM     16  C   LIG    1       24.337 -29.621   8.251  0.00  0.00    -0.016 A 
ATOM     17  C   LIG    1       22.970 -29.622   8.595  0.00  0.00    +0.036 A 
ATOM     18  C   LIG    1       22.405 -30.821   9.015  0.00  0.00    +0.067 A 
ATOM     19  C   LIG    1       23.099 -32.019   9.065  0.00  0.00    +0.089 A 
ATOM     20  N   LIG    1       22.330 -32.999   9.629  0.00  0.00    -0.231 NA
ATOM     21  C   LIG    1       21.225 -32.390  10.019  0.00  0.00    +0.129 A 
ATOM     22  C   LIG    1       24.428 -32.057   8.638  0.00  0.00    +0.030 A 
ATOM     23  N   LIG    1       21.171 -31.113   9.528  0.00  0.00    -0.340 N 
ATOM     24  H   LIG    1       20.429 -30.454   9.731  0.00  0.00    +0.167 HD
ATOM     25  C   LIG    1       25.033 -30.851   8.251  0.00  0.00    +0.010 A 
BRANCH  21  26
ATOM     26  C   LIG    1       20.260 -32.889  11.036  0.00  0.00    +0.145 C 
ATOM     27  N   LIG    1       20.046 -31.992  12.184  0.00  0.00    -0.287 N 
ATOM     28  C   LIG    1       20.917 -31.947  13.257  0.00  0.00    +0.237 C 
ATOM     29  O   LIG    1       22.086 -32.311  13.081  0.00  0.00    -0.274 OA
ATOM     30  C   LIG    1       18.632 -31.634  12.167  0.00  0.00    +0.077 C 
ATOM     31  C   LIG    1       18.302 -31.577  10.677  0.00  0.00    +0.028 C 
ATOM     32  C   LIG    1       17.843 -32.893  12.589  0.00  0.00    +0.023 C 
ATOM     33  C   LIG    1       17.959 -33.817  11.377  0.00  0.00    +0.007 C 
ATOM     34  C   LIG    1       18.832 -32.992  10.429  0.00  0.00    +0.019 C 
BRANCH  28  35
ATOM     35  C   LIG    1       20.450 -31.382  14.659  0.00  0.00    +0.165 C 
BRANCH  35  36
ATOM     36  N   LIG    1       19.669 -30.147  14.530  0.00  0.00    -0.270 N 
ATOM     37  H   LIG    1       18.773 -30.077  15.008  0.00  0.00    +0.153 HD
ATOM     38  C   LIG    1       20.033 -29.061  13.807  0.00  0.00    +0.401 C 
ATOM     39  O   LIG    1       20.990 -29.020  13.018  0.00  0.00    -0.227 OA
BRANCH  38  40
ATOM     40  O   LIG    1       19.126 -28.076  13.963  0.00  0.00    -0.454 OA
ATOM     41  C   LIG    1       19.626 -26.912  14.627  0.00  0.00    +0.282 C 
ENDBRANCH  38  40
ENDBRANCH  35  36
BRANCH  35  42
ATOM     42  C   LIG    1       19.558 -32.402  15.440  0.00  0.00    +0.012 C 
ATOM     43  C   LIG    1       19.645 -33.819  14.842  0.00  0.00    +0.009 C 
ATOM     44  C   LIG    1       18.079 -32.006  15.494  0.00  0.00    +0.009 C 
ENDBRANCH  35  42
ENDBRANCH  28  35
ENDBRANCH  21  26
ENDBRANCH   9  16
BRANCH   1  48
ATOM     45  C   LIG    1       26.863 -18.807   4.307  0.00  0.00    +0.128 A 
ATOM     46  N   LIG    1       26.395 -20.069   4.577  0.00  0.00    -0.340 N 
ATOM     47  H   LIG    1       25.666 -20.536   4.051  0.00  0.00    +0.167 HD
ATOM     48  C   LIG    1       27.126 -20.595   5.617  0.00  0.00    +0.066 A 
ATOM     49  C   LIG    1       27.983 -19.569   5.968  0.00  0.00    +0.139 A 
ATOM     50  N   LIG    1       27.807 -18.474   5.166  0.00  0.00    -0.238 NA
BRANCH  45  53
ATOM     51  C   LIG    1       23.881 -18.280   3.182  0.00  0.00    +0.237 C 
ATOM     52  N   LIG    1       25.003 -17.517   3.421  0.00  0.00    -0.289 N 
ATOM     53  C   LIG    1       26.355 -18.009   3.137  0.00  0.00    +0.143 C 
ATOM     54  C   LIG    1       27.171 -16.727   2.915  0.00  0.00    +0.038 C 
ATOM     55  C   LIG    1       26.451 -15.711   3.763  0.00  0.00    -0.011 C 
ATOM     56  C   LIG    1       26.781 -14.240   3.682  0.00  0.00    +0.009 C 
ATOM     57  C   LIG    1       27.171 -15.021   4.904  0.00  0.00    +0.009 C 
ATOM     58  C   LIG    1       25.040 -16.171   3.969  0.00  0.00    +0.115 C 
ATOM     59  O   LIG    1       23.980 -19.425   2.721  0.00  0.00    -0.274 OA
BRANCH  51  60
ATOM     60  C   LIG    1       22.489 -17.701   3.566  0.00  0.00    +0.165 C 
BRANCH  60  62
ATOM     61  C   LIG    1       22.135 -19.866   4.752  0.00  0.00    +0.401 C 
ATOM     62  N   LIG    1       21.673 -18.822   4.023  0.00  0.00    -0.270 N 
ATOM     63  H   LIG    1       20.659 -18.768   3.903  0.00  0.00    +0.153 HD
ATOM     64  O   LIG    1       23.304 -20.037   5.127  0.00  0.00    -0.227 OA
BRANCH  61  66
ATOM     65  C   LIG    1       21.447 -21.952   5.512  0.00  0.00    +0.282 C 
ATOM     66  O   LIG    1       21.084 -20.655   5.048  0.00  0.00    -0.454 OA
ENDBRANCH  61  66
ENDBRANCH  60  62
BRANCH  60  67
ATOM     67  C   LIG    1       22.601 -16.639   4.689  0.00  0.00    +0.012 C 
ATOM     68  C   LIG    1       21.337 -16.591   5.557  0.00  0.00    +0.009 C 
ATOM     69  C   LIG    1       22.841 -15.229   4.160  0.00  0.00    +0.009 C 
ENDBRANCH  60  67
ENDBRANCH  51  60
ENDBRANCH  45  53
ENDBRANCH   1  48
TORSDOF 12
ENDMDL
MODEL 5
REMARK VINA RESULT:      13.0      2.849      4.809
REMARK  Name = *****
REMARK                            x       y       z     vdW  Elec       q    Type
REMARK                         _______ _______ _______ _____ _____    ______ ____
ROOT
ATOM      1  C   LIG    1       24.809 -21.184   4.220  0.00  0.00    +0.000 A 
ATOM      2  C   LIG    1       25.079 -21.729   5.484  0.00  0.00    +0.020 A 
ATOM      3  C   LIG    1       24.973 -23.101   5.649  0.00  0.00    +0.034 A 
ATOM      4  C   LIG    1       25.225 -23.918   6.904  0.00  0.00    +0.300 C 
ATOM      5  C   LIG    1       24.924 -25.324   6.417  0.00  0.00    +0.034 A 
ATOM      6  C   LIG    1       24.562 -25.309   5.058  0.00  0.00    -0.008 A 
ATOM      7  C   LIG    1       24.246 -26.484   4.409  0.00  0.00    +0.009 A 
ATOM      8  C   LIG    1       24.295 -27.681   5.136  0.00  0.00    +0.009 A 
ATOM      9  C   LIG    1       24.652 -27.720   6.509  0.00  0.00    -0.017 A 
ATOM     10  C   LIG    1       24.970 -26.505   7.142  0.00  0.00    +0.018 A 
ATOM     11  F   LIG    1       24.420 -23.546   7.939  0.00  0.00    -0.195 F 
ATOM     12  F   LIG    1       26.503 -23.791   7.361  0.00  0.00    -0.195 F 
ATOM     13  C   LIG    1       24.595 -23.945   4.584  0.00  0.00    -0.008 A 
ATOM     14  C   LIG    1       24.322 -23.420   3.336  0.00  0.00    +0.009 A 
ATOM     15  C   LIG    1       24.430 -22.036   3.160  0.00  0.00    +0.010 A 
ENDROOT
BRANCH   9  16
ATOM     16  C   LIG    1       24.743 -29.006   7.242  0.00  0.00    -0.016 A 
ATOM     17  C   LIG    1       24.238 -29.101   8.554  0.00  0.00    +0.036 A 
ATOM     18  C   LIG    1       24.482 -30.272   9.263  0.00  0.00    +0.067 A 
ATOM     19  C   LIG    1       25.150 -31.363   8.732  0.00  0.00    +0.089 A 
ATOM     20  N   LIG    1       25.351 -32.318   9.690  0.00  0.00    -0.231 NA
ATOM     21  C   LIG    1       24.913 -31.780  10.813  0.00  0.00    +0.129 A 
ATOM     22  C   LIG    1       25.575 -31.324   7.402  0.00  0.00    +0.030 A 
ATOM     23  N   LIG    1       24.243 -30.611  10.566  0.00  0.00    -0.340 N 
ATOM     24  H   LIG    1       23.855 -30.013  11.286  0.00  0.00    +0.167 HD
ATOM     25  C   LIG    1       25.378 -30.136   6.680  0.00  0.00    +0.010 A 
BRANCH  21  26
ATOM     26  C   LIG    1       25.271 -32.212  12.192  0.00  0.00    +0.145 C 
ATOM     27  N   LIG    1       25.331 -31.129  13.188  0.00  0.00    -0.287 N 
ATOM     28  C   LIG    1       26.439 -30.312  13.323  0.00  0.00    +0.237 C 
ATOM     29  O   LIG    1       27.194 -30.180  12.351  0.00  0.00    -0.274 OA
ATOM     30  C   LIG    1       24.327 -31.444  14.197  0.00  0.00    +0.077 C 
ATOM     31  C   LIG    1       23.213 -32.106  13.389  0.00  0.00    +0.028 C 
ATOM     32  C   LIG    1       24.857 -32.652  15.000  0.00  0.00    +0.023 C 
ATOM     33  C   LIG    1       24.719 -33.823  14.028  0.00  0.00    +0.007 C 
ATOM     34  C   LIG    1       24.165 -33.136  12.778  0.00  0.00    +0.019 C 
BRANCH  28  35
ATOM     35  C   LIG    1       26.700 -29.513  14.663  0.00  0.00    +0.165 C 
BRANCH  35  36
ATOM     36  N   LIG    1       28.128 -29.294  14.912  0.00  0.00    -0.270 N 
ATOM     37  H   LIG    1       28.509 -28.355  14.809  0.00  0.00    +0.153 HD
ATOM     38  C   LIG    1       29.018 -30.250  15.270  0.00  0.00    +0.401 C 
ATOM     39  O   LIG    1       28.788 -31.470  15.272  0.00  0.00    -0.227 OA
BRANCH  38  40
ATOM     40  O   LIG    1       30.227 -29.699  15.492  0.00  0.00    -0.454 OA
ATOM     41  C   LIG    1       31.259 -30.165  14.619  0.00  0.00    +0.282 C 
ENDBRANCH  38  40
ENDBRANCH  35  36
BRANCH  35  42
ATOM     42  C   LIG    1       26.021 -28.104  14.653  0.00  0.00    +0.012 C 
ATOM     43  C   LIG    1       25.046 -27.944  13.470  0.00  0.00    +0.009 C 
ATOM     44  C   LIG    1       27.019 -26.943  14.597  0.00  0.00    +0.009 C 
ENDBRANCH  35  42
ENDBRANCH  28  35
ENDBRANCH  21  26
ENDBRANCH   9  16
BRANCH   1  48
ATOM     45  C   LIG    1       25.553 -17.629   4.345  0.00  0.00    +0.128 A 
ATOM     46  N   LIG    1       25.765 -18.928   4.738  0.00  0.00    -0.340 N 
ATOM     47  H   LIG    1       26.393 -19.207   5.482  0.00  0.00    +0.167 HD
ATOM     48  C   LIG    1       24.937 -19.748   4.008  0.00  0.00    +0.066 A 
ATOM     49  C   LIG    1       24.292 -18.882   3.147  0.00  0.00    +0.139 A 
ATOM     50  N   LIG    1       24.684 -17.588   3.353  0.00  0.00    -0.238 NA
BRANCH  45  53
ATOM     51  C   LIG    1       28.304 -17.408   6.023  0.00  0.00    +0.237 C 
ATOM     52  N   LIG    1       27.669 -16.666   5.051  0.00  0.00    -0.289 N 
ATOM     53  C   LIG    1       26.216 -16.473   5.042  0.00  0.00    +0.143 C 
ATOM     54  C   LIG    1       26.026 -15.154   4.280  0.00  0.00    +0.038 C 
ATOM     55  C   LIG    1       27.215 -15.118   3.355  0.00  0.00    -0.011 C 
ATOM     56  C   LIG    1       27.559 -13.883   2.559  0.00  0.00    +0.009 C 
ATOM     57  C   LIG    1       27.014 -15.092   1.854  0.00  0.00    +0.009 C 
ATOM     58  C   LIG    1       28.293 -15.987   3.927  0.00  0.00    +0.115 C 
ATOM     59  O   LIG    1       27.657 -17.950   6.929  0.00  0.00    -0.274 OA
BRANCH  51  60
ATOM     60  C   LIG    1       29.843 -17.607   5.923  0.00  0.00    +0.165 C 
BRANCH  60  62
ATOM     61  C   LIG    1       30.166 -17.953   8.372  0.00  0.00    +0.401 C 
ATOM     62  N   LIG    1       30.402 -17.267   7.228  0.00  0.00    -0.270 N 
ATOM     63  H   LIG    1       31.122 -16.541   7.276  0.00  0.00    +0.153 HD
ATOM     64  O   LIG    1       29.441 -18.952   8.490  0.00  0.00    -0.227 OA
BRANCH  61  66
ATOM     65  C   LIG    1       32.214 -17.946   9.471  0.00  0.00    +0.282 C 
ATOM     66  O   LIG    1       30.908 -17.392   9.346  0.00  0.00    -0.454 OA
ENDBRANCH  61  66
ENDBRANCH  60  62
BRANCH  60  67
ATOM     67  C   LIG    1       30.208 -19.069   5.559  0.00  0.00    +0.012 C 
ATOM     68  C   LIG    1       29.088 -20.047   5.936  0.00  0.00    +0.009 C 
ATOM     69  C   LIG    1       31.484 -19.556   6.240  0.00  0.00    +0.009 C 
ENDBRANCH  60  67
ENDBRANCH  51  60
ENDBRANCH  45  53
ENDBRANCH   1  48
TORSDOF 12
ENDMDL
