MODEL 1
REMARK VINA RESULT:      -9.2      0.000      0.000
REMARK  Name = *****
REMARK                            x       y       z     vdW  Elec       q    Type
REMARK                         _______ _______ _______ _____ _____    ______ ____
ROOT
ATOM      1  C   LIG    1       26.142 -20.294   6.877  0.00  0.00    +0.078 C 
ENDROOT
BRANCH   1   2
ATOM      2  N   LIG    1       27.480 -20.509   7.435  0.00  0.00    -0.312 N 
ATOM      3  H   LIG    1       27.560 -21.252   8.120  0.00  0.00    +0.149 HD
ATOM      4  C   LIG    1       28.631 -19.929   6.951  0.00  0.00    +0.214 C 
ATOM      5  O   LIG    1       28.671 -19.096   6.052  0.00  0.00    -0.276 OA
BRANCH   4   6
ATOM      6  C   LIG    1       29.887 -20.353   7.653  0.00  0.00    +0.107 C 
BRANCH   6   7
ATOM      7  C   LIG    1       31.048 -19.524   7.129  0.00  0.00    +0.129 C 
BRANCH   7   8
ATOM      8  C   LIG    1       31.657 -18.746   8.256  0.00  0.00    +0.305 C 
ATOM      9  O   LIG    1       31.782 -17.545   8.338  0.00  0.00    -0.251 OA
BRANCH   8  10
ATOM     10  O   LIG    1       32.075 -19.560   9.251  0.00  0.00    -0.481 OA
ATOM     11  H   LIG    1       31.263 -20.019   9.523  0.00  0.00    +0.295 HD
ENDBRANCH   8  10
ENDBRANCH   7   8
ENDBRANCH   6   7
ENDBRANCH   4   6
ENDBRANCH   1   2
BRANCH   1  12
ATOM     12  C   LIG    1       26.116 -20.473   5.323  0.00  0.00    +0.037 C 
BRANCH  12  13
ATOM     13  C   LIG    1       25.019 -19.699   4.540  0.00  0.00    +0.096 C 
ATOM     14  C   LIG    1       25.673 -18.879   3.411  0.00  0.00    +0.019 C 
BRANCH  13  15
ATOM     15  C   LIG    1       23.994 -20.626   3.923  0.00  0.00    +0.310 C 
ATOM     16  O   LIG    1       24.134 -21.206   2.857  0.00  0.00    -0.251 OA
BRANCH  15  17
ATOM     17  O   LIG    1       22.892 -20.729   4.725  0.00  0.00    -0.465 OA
BRANCH  17  19
ATOM     18  C   LIG    1       21.952 -18.505   4.335  0.00  0.00    +0.048 C 
ATOM     19  C   LIG    1       22.429 -19.532   5.350  0.00  0.00    +0.229 C 
ENDBRANCH  17  19
ENDBRANCH  15  17
ENDBRANCH  13  15
ENDBRANCH  12  13
ENDBRANCH   1  12
BRANCH   1  20
ATOM     20  C   LIG    1       25.056 -21.200   7.560  0.00  0.00    +0.057 C 
BRANCH  20  21
ATOM     21  C   LIG    1       25.027 -22.685   7.194  0.00  0.00    -0.046 A 
ATOM     22  C   LIG    1       26.183 -23.476   7.180  0.00  0.00    +0.004 A 
ATOM     23  C   LIG    1       26.127 -24.857   6.869  0.00  0.00    +0.009 A 
ATOM     24  C   LIG    1       24.917 -25.515   6.580  0.00  0.00    -0.018 A 
ATOM     25  C   LIG    1       23.778 -24.691   6.536  0.00  0.00    +0.009 A 
ATOM     26  C   LIG    1       23.833 -23.307   6.809  0.00  0.00    +0.004 A 
BRANCH  24  27
ATOM     27  C   LIG    1       24.831 -26.994   6.356  0.00  0.00    -0.018 A 
ATOM     28  C   LIG    1       24.354 -27.544   5.147  0.00  0.00    +0.008 A 
ATOM     29  C   LIG    1       24.231 -28.930   4.952  0.00  0.00    +0.001 A 
ATOM     30  C   LIG    1       24.593 -29.814   5.960  0.00  0.00    +0.000 A 
ATOM     31  C   LIG    1       25.077 -29.309   7.163  0.00  0.00    +0.001 A 
ATOM     32  C   LIG    1       25.188 -27.923   7.357  0.00  0.00    +0.008 A 
ENDBRANCH  24  27
ENDBRANCH  20  21
ENDBRANCH   1  20
TORSDOF 13
ENDMDL
MODEL 2
REMARK VINA RESULT:      -9.1      1.629      2.720
REMARK  Name = *****
REMARK                            x       y       z     vdW  Elec       q    Type
REMARK                         _______ _______ _______ _____ _____    ______ ____
ROOT
ATOM      1  C   LIG    1       25.015 -21.701   6.515  0.00  0.00    +0.078 C 
ENDROOT
BRANCH   1   2
ATOM      2  N   LIG    1       26.301 -21.006   6.620  0.00  0.00    -0.312 N 
ATOM      3  H   LIG    1       26.582 -20.470   5.807  0.00  0.00    +0.149 HD
ATOM      4  C   LIG    1       27.021 -20.869   7.785  0.00  0.00    +0.214 C 
ATOM      5  O   LIG    1       26.724 -21.383   8.858  0.00  0.00    -0.276 OA
BRANCH   4   6
ATOM      6  C   LIG    1       28.279 -20.062   7.649  0.00  0.00    +0.107 C 
BRANCH   6   7
ATOM      7  C   LIG    1       28.504 -19.745   6.179  0.00  0.00    +0.129 C 
BRANCH   7   8
ATOM      8  C   LIG    1       29.575 -18.705   6.049  0.00  0.00    +0.305 C 
ATOM      9  O   LIG    1       30.585 -18.602   6.709  0.00  0.00    -0.251 OA
BRANCH   8  10
ATOM     10  O   LIG    1       29.302 -17.836   5.050  0.00  0.00    -0.481 OA
ATOM     11  H   LIG    1       29.689 -17.002   5.364  0.00  0.00    +0.295 HD
ENDBRANCH   8  10
ENDBRANCH   7   8
ENDBRANCH   6   7
ENDBRANCH   4   6
ENDBRANCH   1   2
BRANCH   1  12
ATOM     12  C   LIG    1       23.819 -20.706   6.349  0.00  0.00    +0.037 C 
BRANCH  12  13
ATOM     13  C   LIG    1       23.137 -20.647   4.953  0.00  0.00    +0.096 C 
ATOM     14  C   LIG    1       21.748 -21.309   5.031  0.00  0.00    +0.019 C 
BRANCH  13  15
ATOM     15  C   LIG    1       22.961 -19.226   4.462  0.00  0.00    +0.310 C 
ATOM     16  O   LIG    1       22.205 -18.406   4.962  0.00  0.00    -0.251 OA
BRANCH  15  17
ATOM     17  O   LIG    1       23.768 -18.985   3.385  0.00  0.00    -0.465 OA
BRANCH  17  19
ATOM     18  C   LIG    1       25.909 -17.802   3.345  0.00  0.00    +0.048 C 
ATOM     19  C   LIG    1       25.175 -19.112   3.588  0.00  0.00    +0.229 C 
ENDBRANCH  17  19
ENDBRANCH  15  17
ENDBRANCH  13  15
ENDBRANCH  12  13
ENDBRANCH   1  12
BRANCH   1  20
ATOM     20  C   LIG    1       25.008 -22.777   5.371  0.00  0.00    +0.057 C 
BRANCH  20  21
ATOM     21  C   LIG    1       25.078 -24.252   5.772  0.00  0.00    -0.046 A 
ATOM     22  C   LIG    1       25.951 -24.718   6.763  0.00  0.00    +0.004 A 
ATOM     23  C   LIG    1       25.976 -26.083   7.139  0.00  0.00    +0.009 A 
ATOM     24  C   LIG    1       25.119 -27.040   6.562  0.00  0.00    -0.018 A 
ATOM     25  C   LIG    1       24.296 -26.564   5.525  0.00  0.00    +0.009 A 
ATOM     26  C   LIG    1       24.293 -25.212   5.120  0.00  0.00    +0.004 A 
BRANCH  24  27
ATOM     27  C   LIG    1       25.061 -28.462   7.027  0.00  0.00    -0.018 A 
ATOM     28  C   LIG    1       24.356 -29.457   6.315  0.00  0.00    +0.008 A 
ATOM     29  C   LIG    1       24.263 -30.781   6.774  0.00  0.00    +0.001 A 
ATOM     30  C   LIG    1       24.884 -31.158   7.958  0.00  0.00    +0.000 A 
ATOM     31  C   LIG    1       25.596 -30.208   8.682  0.00  0.00    +0.001 A 
ATOM     32  C   LIG    1       25.677 -28.883   8.225  0.00  0.00    +0.008 A 
ENDBRANCH  24  27
ENDBRANCH  20  21
ENDBRANCH   1  20
TORSDOF 13
ENDMDL
MODEL 3
REMARK VINA RESULT:      -9.1      1.814      3.246
REMARK  Name = *****
REMARK                            x       y       z     vdW  Elec       q    Type
REMARK                         _______ _______ _______ _____ _____    ______ ____
ROOT
ATOM      1  C   LIG    1       26.054 -23.434   7.024  0.00  0.00    +0.078 C 
ENDROOT
BRANCH   1   2
ATOM      2  N   LIG    1       26.861 -22.276   6.628  0.00  0.00    -0.312 N 
ATOM      3  H   LIG    1       26.899 -22.083   5.634  0.00  0.00    +0.149 HD
ATOM      4  C   LIG    1       27.376 -21.347   7.504  0.00  0.00    +0.214 C 
ATOM      5  O   LIG    1       27.300 -21.419   8.726  0.00  0.00    -0.276 OA
BRANCH   4   6
ATOM      6  C   LIG    1       28.118 -20.219   6.851  0.00  0.00    +0.107 C 
BRANCH   6   7
ATOM      7  C   LIG    1       29.210 -19.738   7.792  0.00  0.00    +0.129 C 
BRANCH   7   8
ATOM      8  C   LIG    1       30.473 -19.505   7.018  0.00  0.00    +0.305 C 
ATOM      9  O   LIG    1       30.641 -18.738   6.098  0.00  0.00    -0.251 OA
BRANCH   8  10
ATOM     10  O   LIG    1       31.484 -20.275   7.479  0.00  0.00    -0.481 OA
ATOM     11  H   LIG    1       31.142 -20.619   8.320  0.00  0.00    +0.295 HD
ENDBRANCH   8  10
ENDBRANCH   7   8
ENDBRANCH   6   7
ENDBRANCH   4   6
ENDBRANCH   1   2
BRANCH   1  12
ATOM     12  C   LIG    1       24.662 -23.012   7.600  0.00  0.00    +0.037 C 
BRANCH  12  13
ATOM     13  C   LIG    1       23.589 -22.536   6.580  0.00  0.00    +0.096 C 
ATOM     14  C   LIG    1       22.333 -23.420   6.704  0.00  0.00    +0.019 C 
BRANCH  13  15
ATOM     15  C   LIG    1       23.183 -21.096   6.805  0.00  0.00    +0.310 C 
ATOM     16  O   LIG    1       23.497 -20.430   7.780  0.00  0.00    -0.251 OA
BRANCH  15  17
ATOM     17  O   LIG    1       22.422 -20.641   5.764  0.00  0.00    -0.465 OA
BRANCH  17  19
ATOM     18  C   LIG    1       22.324 -18.603   4.413  0.00  0.00    +0.048 C 
ATOM     19  C   LIG    1       23.088 -19.871   4.762  0.00  0.00    +0.229 C 
ENDBRANCH  17  19
ENDBRANCH  15  17
ENDBRANCH  13  15
ENDBRANCH  12  13
ENDBRANCH   1  12
BRANCH   1  20
ATOM     20  C   LIG    1       25.883 -24.472   5.858  0.00  0.00    +0.057 C 
BRANCH  20  21
ATOM     21  C   LIG    1       25.531 -25.914   6.227  0.00  0.00    -0.046 A 
ATOM     22  C   LIG    1       26.174 -26.601   7.265  0.00  0.00    +0.004 A 
ATOM     23  C   LIG    1       25.809 -27.925   7.609  0.00  0.00    +0.009 A 
ATOM     24  C   LIG    1       24.775 -28.617   6.950  0.00  0.00    -0.018 A 
ATOM     25  C   LIG    1       24.187 -27.935   5.868  0.00  0.00    +0.009 A 
ATOM     26  C   LIG    1       24.572 -26.629   5.498  0.00  0.00    +0.004 A 
BRANCH  24  27
ATOM     27  C   LIG    1       24.308 -29.976   7.374  0.00  0.00    -0.018 A 
ATOM     28  C   LIG    1       24.163 -31.040   6.459  0.00  0.00    +0.008 A 
ATOM     29  C   LIG    1       23.683 -32.301   6.848  0.00  0.00    +0.001 A 
ATOM     30  C   LIG    1       23.341 -32.543   8.172  0.00  0.00    +0.000 A 
ATOM     31  C   LIG    1       23.479 -31.521   9.105  0.00  0.00    +0.001 A 
ATOM     32  C   LIG    1       23.950 -30.259   8.710  0.00  0.00    +0.008 A 
ENDBRANCH  24  27
ENDBRANCH  20  21
ENDBRANCH   1  20
TORSDOF 13
ENDMDL
MODEL 4
REMARK VINA RESULT:      -9.0      1.598      2.650
REMARK  Name = *****
REMARK                            x       y       z     vdW  Elec       q    Type
REMARK                         _______ _______ _______ _____ _____    ______ ____
ROOT
ATOM      1  C   LIG    1       24.979 -21.646   6.559  0.00  0.00    +0.078 C 
ENDROOT
BRANCH   1   2
ATOM      2  N   LIG    1       26.258 -20.947   6.714  0.00  0.00    -0.312 N 
ATOM      3  H   LIG    1       26.489 -20.280   5.987  0.00  0.00    +0.149 HD
ATOM      4  C   LIG    1       27.035 -20.985   7.850  0.00  0.00    +0.214 C 
ATOM      5  O   LIG    1       26.800 -21.673   8.837  0.00  0.00    -0.276 OA
BRANCH   4   6
ATOM      6  C   LIG    1       28.272 -20.138   7.788  0.00  0.00    +0.107 C 
BRANCH   6   7
ATOM      7  C   LIG    1       29.490 -21.046   7.793  0.00  0.00    +0.129 C 
BRANCH   7   8
ATOM      8  C   LIG    1       30.669 -20.301   8.344  0.00  0.00    +0.305 C 
ATOM      9  O   LIG    1       30.830 -19.916   9.480  0.00  0.00    -0.251 OA
BRANCH   8  10
ATOM     10  O   LIG    1       31.609 -20.091   7.396  0.00  0.00    -0.481 OA
ATOM     11  H   LIG    1       31.887 -19.174   7.553  0.00  0.00    +0.295 HD
ENDBRANCH   8  10
ENDBRANCH   7   8
ENDBRANCH   6   7
ENDBRANCH   4   6
ENDBRANCH   1   2
BRANCH   1  12
ATOM     12  C   LIG    1       23.786 -20.653   6.366  0.00  0.00    +0.037 C 
BRANCH  12  13
ATOM     13  C   LIG    1       23.129 -20.600   4.957  0.00  0.00    +0.096 C 
ATOM     14  C   LIG    1       21.745 -21.273   5.008  0.00  0.00    +0.019 C 
BRANCH  13  15
ATOM     15  C   LIG    1       22.952 -19.181   4.461  0.00  0.00    +0.310 C 
ATOM     16  O   LIG    1       22.208 -18.356   4.969  0.00  0.00    -0.251 OA
BRANCH  15  17
ATOM     17  O   LIG    1       23.743 -18.949   3.371  0.00  0.00    -0.465 OA
BRANCH  17  19
ATOM     18  C   LIG    1       25.900 -17.794   3.337  0.00  0.00    +0.048 C 
ATOM     19  C   LIG    1       25.152 -19.101   3.547  0.00  0.00    +0.229 C 
ENDBRANCH  17  19
ENDBRANCH  15  17
ENDBRANCH  13  15
ENDBRANCH  12  13
ENDBRANCH   1  12
BRANCH   1  20
ATOM     20  C   LIG    1       25.013 -22.707   5.402  0.00  0.00    +0.057 C 
BRANCH  20  21
ATOM     21  C   LIG    1       25.072 -24.187   5.787  0.00  0.00    -0.046 A 
ATOM     22  C   LIG    1       25.930 -24.668   6.784  0.00  0.00    +0.004 A 
ATOM     23  C   LIG    1       25.945 -26.037   7.145  0.00  0.00    +0.009 A 
ATOM     24  C   LIG    1       25.091 -26.984   6.546  0.00  0.00    -0.018 A 
ATOM     25  C   LIG    1       24.284 -26.493   5.503  0.00  0.00    +0.009 A 
ATOM     26  C   LIG    1       24.293 -25.136   5.114  0.00  0.00    +0.004 A 
BRANCH  24  27
ATOM     27  C   LIG    1       25.021 -28.411   6.994  0.00  0.00    -0.018 A 
ATOM     28  C   LIG    1       25.655 -28.861   8.171  0.00  0.00    +0.008 A 
ATOM     29  C   LIG    1       25.628 -30.208   8.569  0.00  0.00    +0.001 A 
ATOM     30  C   LIG    1       24.952 -31.150   7.804  0.00  0.00    +0.000 A 
ATOM     31  C   LIG    1       24.307 -30.744   6.641  0.00  0.00    +0.001 A 
ATOM     32  C   LIG    1       24.346 -29.398   6.243  0.00  0.00    +0.008 A 
ENDBRANCH  24  27
ENDBRANCH  20  21
ENDBRANCH   1  20
TORSDOF 13
ENDMDL
MODEL 5
REMARK VINA RESULT:      -9.0      3.020      8.032
REMARK  Name = *****
REMARK                            x       y       z     vdW  Elec       q    Type
REMARK                         _______ _______ _______ _____ _____    ______ ____
ROOT
ATOM      1  C   LIG    1       24.019 -23.318   6.246  0.00  0.00    +0.078 C 
ENDROOT
BRANCH   1   2
ATOM      2  N   LIG    1       23.821 -24.733   5.920  0.00  0.00    -0.312 N 
ATOM      3  H   LIG    1       22.860 -25.025   5.782  0.00  0.00    +0.149 HD
ATOM      4  C   LIG    1       24.833 -25.609   5.595  0.00  0.00    +0.214 C 
ATOM      5  O   LIG    1       26.028 -25.339   5.622  0.00  0.00    -0.276 OA
BRANCH   4   6
ATOM      6  C   LIG    1       24.371 -26.992   5.241  0.00  0.00    +0.107 C 
BRANCH   6   7
ATOM      7  C   LIG    1       24.558 -27.896   6.449  0.00  0.00    +0.129 C 
BRANCH   7   8
ATOM      8  C   LIG    1       24.355 -29.325   6.042  0.00  0.00    +0.305 C 
ATOM      9  O   LIG    1       25.103 -30.257   6.232  0.00  0.00    -0.251 OA
BRANCH   8  10
ATOM     10  O   LIG    1       23.173 -29.496   5.409  0.00  0.00    -0.481 OA
ATOM     11  H   LIG    1       22.825 -28.593   5.333  0.00  0.00    +0.295 HD
ENDBRANCH   8  10
ENDBRANCH   7   8
ENDBRANCH   6   7
ENDBRANCH   4   6
ENDBRANCH   1   2
BRANCH   1  12
ATOM     12  C   LIG    1       22.689 -22.500   6.152  0.00  0.00    +0.037 C 
BRANCH  12  13
ATOM     13  C   LIG    1       22.766 -21.099   5.481  0.00  0.00    +0.096 C 
ATOM     14  C   LIG    1       22.972 -20.022   6.562  0.00  0.00    +0.019 C 
BRANCH  13  15
ATOM     15  C   LIG    1       23.903 -21.001   4.488  0.00  0.00    +0.310 C 
ATOM     16  O   LIG    1       23.916 -21.540   3.391  0.00  0.00    -0.251 OA
BRANCH  15  17
ATOM     17  O   LIG    1       24.911 -20.222   4.983  0.00  0.00    -0.465 OA
BRANCH  17  19
ATOM     18  C   LIG    1       25.455 -18.397   3.448  0.00  0.00    +0.048 C 
ATOM     19  C   LIG    1       25.871 -19.731   4.048  0.00  0.00    +0.229 C 
ENDBRANCH  17  19
ENDBRANCH  15  17
ENDBRANCH  13  15
ENDBRANCH  12  13
ENDBRANCH   1  12
BRANCH   1  20
ATOM     20  C   LIG    1       24.700 -23.116   7.646  0.00  0.00    +0.057 C 
BRANCH  20  21
ATOM     21  C   LIG    1       25.885 -22.152   7.736  0.00  0.00    -0.046 A 
ATOM     22  C   LIG    1       25.858 -21.004   8.539  0.00  0.00    +0.004 A 
ATOM     23  C   LIG    1       26.978 -20.143   8.630  0.00  0.00    +0.009 A 
ATOM     24  C   LIG    1       28.182 -20.396   7.944  0.00  0.00    -0.018 A 
ATOM     25  C   LIG    1       28.166 -21.517   7.094  0.00  0.00    +0.009 A 
ATOM     26  C   LIG    1       27.039 -22.358   6.971  0.00  0.00    +0.004 A 
BRANCH  24  27
ATOM     27  C   LIG    1       29.408 -19.553   8.117  0.00  0.00    -0.018 A 
ATOM     28  C   LIG    1       29.435 -18.436   8.979  0.00  0.00    +0.008 A 
ATOM     29  C   LIG    1       30.570 -17.618   9.108  0.00  0.00    +0.001 A 
ATOM     30  C   LIG    1       31.722 -17.900   8.385  0.00  0.00    +0.000 A 
ATOM     31  C   LIG    1       31.736 -18.998   7.533  0.00  0.00    +0.001 A 
ATOM     32  C   LIG    1       30.596 -19.807   7.400  0.00  0.00    +0.008 A 
ENDBRANCH  24  27
ENDBRANCH  20  21
ENDBRANCH   1  20
TORSDOF 13
ENDMDL
MODEL 6
REMARK VINA RESULT:      -8.8      1.589      2.298
REMARK  Name = *****
REMARK                            x       y       z     vdW  Elec       q    Type
REMARK                         _______ _______ _______ _____ _____    ______ ____
ROOT
ATOM      1  C   LIG    1       25.480 -20.528   5.975  0.00  0.00    +0.078 C 
ENDROOT
BRANCH   1   2
ATOM      2  N   LIG    1       26.927 -20.706   6.130  0.00  0.00    -0.312 N 
ATOM      3  H   LIG    1       27.445 -20.877   5.276  0.00  0.00    +0.149 HD
ATOM      4  C   LIG    1       27.625 -20.454   7.289  0.00  0.00    +0.214 C 
ATOM      5  O   LIG    1       27.116 -20.135   8.358  0.00  0.00    -0.276 OA
BRANCH   4   6
ATOM      6  C   LIG    1       29.108 -20.653   7.181  0.00  0.00    +0.107 C 
BRANCH   6   7
ATOM      7  C   LIG    1       29.757 -19.327   6.818  0.00  0.00    +0.129 C 
BRANCH   7   8
ATOM      8  C   LIG    1       31.121 -19.251   7.437  0.00  0.00    +0.305 C 
ATOM      9  O   LIG    1       31.746 -18.253   7.717  0.00  0.00    -0.251 OA
BRANCH   8  10
ATOM     10  O   LIG    1       31.621 -20.482   7.685  0.00  0.00    -0.481 OA
ATOM     11  H   LIG    1       32.462 -20.297   8.134  0.00  0.00    +0.295 HD
ENDBRANCH   8  10
ENDBRANCH   7   8
ENDBRANCH   6   7
ENDBRANCH   4   6
ENDBRANCH   1   2
BRANCH   1  12
ATOM     12  C   LIG    1       25.014 -20.748   4.499  0.00  0.00    +0.037 C 
BRANCH  12  13
ATOM     13  C   LIG    1       24.707 -19.477   3.656  0.00  0.00    +0.096 C 
ATOM     14  C   LIG    1       23.440 -18.792   4.202  0.00  0.00    +0.019 C 
BRANCH  13  15
ATOM     15  C   LIG    1       25.843 -18.477   3.693  0.00  0.00    +0.310 C 
ATOM     16  O   LIG    1       26.951 -18.701   4.158  0.00  0.00    -0.251 OA
BRANCH  15  17
ATOM     17  O   LIG    1       25.461 -17.292   3.129  0.00  0.00    -0.465 OA
BRANCH  17  19
ATOM     18  C   LIG    1       25.526 -14.895   3.612  0.00  0.00    +0.048 C 
ATOM     19  C   LIG    1       26.314 -16.167   3.341  0.00  0.00    +0.229 C 
ENDBRANCH  17  19
ENDBRANCH  15  17
ENDBRANCH  13  15
ENDBRANCH  12  13
ENDBRANCH   1  12
BRANCH   1  20
ATOM     20  C   LIG    1       24.658 -21.433   6.960  0.00  0.00    +0.057 C 
BRANCH  20  21
ATOM     21  C   LIG    1       24.740 -22.951   6.779  0.00  0.00    -0.046 A 
ATOM     22  C   LIG    1       25.949 -23.652   6.877  0.00  0.00    +0.004 A 
ATOM     23  C   LIG    1       25.996 -25.061   6.736  0.00  0.00    +0.009 A 
ATOM     24  C   LIG    1       24.841 -25.835   6.514  0.00  0.00    -0.018 A 
ATOM     25  C   LIG    1       23.648 -25.106   6.354  0.00  0.00    +0.009 A 
ATOM     26  C   LIG    1       23.601 -23.699   6.456  0.00  0.00    +0.004 A 
BRANCH  24  27
ATOM     27  C   LIG    1       24.863 -27.332   6.472  0.00  0.00    -0.018 A 
ATOM     28  C   LIG    1       25.313 -28.107   7.562  0.00  0.00    +0.008 A 
ATOM     29  C   LIG    1       25.377 -29.510   7.507  0.00  0.00    +0.001 A 
ATOM     30  C   LIG    1       24.980 -30.185   6.360  0.00  0.00    +0.000 A 
ATOM     31  C   LIG    1       24.522 -29.455   5.268  0.00  0.00    +0.001 A 
ATOM     32  C   LIG    1       24.470 -28.053   5.324  0.00  0.00    +0.008 A 
ENDBRANCH  24  27
ENDBRANCH  20  21
ENDBRANCH   1  20
TORSDOF 13
ENDMDL
MODEL 7
REMARK VINA RESULT:      -8.7      1.404      5.564
REMARK  Name = *****
REMARK                            x       y       z     vdW  Elec       q    Type
REMARK                         _______ _______ _______ _____ _____    ______ ____
ROOT
ATOM      1  C   LIG    1       26.174 -21.047   6.084  0.00  0.00    +0.078 C 
ENDROOT
BRANCH   1   2
ATOM      2  N   LIG    1       25.558 -20.126   5.125  0.00  0.00    -0.312 N 
ATOM      3  H   LIG    1       25.853 -19.158   5.188  0.00  0.00    +0.149 HD
ATOM      4  C   LIG    1       24.795 -20.517   4.048  0.00  0.00    +0.214 C 
ATOM      5  O   LIG    1       24.462 -21.672   3.807  0.00  0.00    -0.276 OA
BRANCH   4   6
ATOM      6  C   LIG    1       24.326 -19.390   3.174  0.00  0.00    +0.107 C 
BRANCH   6   7
ATOM      7  C   LIG    1       23.727 -18.303   4.053  0.00  0.00    +0.129 C 
BRANCH   7   8
ATOM      8  C   LIG    1       22.362 -18.722   4.508  0.00  0.00    +0.305 C 
ATOM      9  O   LIG    1       21.304 -18.492   3.967  0.00  0.00    -0.251 OA
BRANCH   8  10
ATOM     10  O   LIG    1       22.419 -19.440   5.652  0.00  0.00    -0.481 OA
ATOM     11  H   LIG    1       21.513 -19.770   5.757  0.00  0.00    +0.295 HD
ENDBRANCH   8  10
ENDBRANCH   7   8
ENDBRANCH   6   7
ENDBRANCH   4   6
ENDBRANCH   1   2
BRANCH   1  12
ATOM     12  C   LIG    1       27.194 -20.323   7.024  0.00  0.00    +0.037 C 
BRANCH  12  13
ATOM     13  C   LIG    1       28.691 -20.359   6.605  0.00  0.00    +0.096 C 
ATOM     14  C   LIG    1       29.068 -19.028   5.927  0.00  0.00    +0.019 C 
BRANCH  13  15
ATOM     15  C   LIG    1       29.612 -20.570   7.787  0.00  0.00    +0.310 C 
ATOM     16  O   LIG    1       29.422 -21.382   8.681  0.00  0.00    -0.251 OA
BRANCH  15  17
ATOM     17  O   LIG    1       30.689 -19.731   7.715  0.00  0.00    -0.465 OA
BRANCH  17  19
ATOM     18  C   LIG    1       30.309 -17.993   9.395  0.00  0.00    +0.048 C 
ATOM     19  C   LIG    1       31.159 -19.171   8.941  0.00  0.00    +0.229 C 
ENDBRANCH  17  19
ENDBRANCH  15  17
ENDBRANCH  13  15
ENDBRANCH  12  13
ENDBRANCH   1  12
BRANCH   1  20
ATOM     20  C   LIG    1       25.107 -21.837   6.924  0.00  0.00    +0.057 C 
BRANCH  20  21
ATOM     21  C   LIG    1       25.046 -23.357   6.757  0.00  0.00    -0.046 A 
ATOM     22  C   LIG    1       26.190 -24.163   6.805  0.00  0.00    +0.004 A 
ATOM     23  C   LIG    1       26.105 -25.571   6.679  0.00  0.00    +0.009 A 
ATOM     24  C   LIG    1       24.876 -26.241   6.522  0.00  0.00    -0.018 A 
ATOM     25  C   LIG    1       23.747 -25.409   6.411  0.00  0.00    +0.009 A 
ATOM     26  C   LIG    1       23.830 -24.003   6.498  0.00  0.00    +0.004 A 
BRANCH  24  27
ATOM     27  C   LIG    1       24.763 -27.734   6.496  0.00  0.00    -0.018 A 
ATOM     28  C   LIG    1       24.268 -28.430   5.373  0.00  0.00    +0.008 A 
ATOM     29  C   LIG    1       24.119 -29.827   5.365  0.00  0.00    +0.001 A 
ATOM     30  C   LIG    1       24.473 -30.576   6.479  0.00  0.00    +0.000 A 
ATOM     31  C   LIG    1       24.974 -29.926   7.602  0.00  0.00    +0.001 A 
ATOM     32  C   LIG    1       25.111 -28.529   7.610  0.00  0.00    +0.008 A 
ENDBRANCH  24  27
ENDBRANCH  20  21
ENDBRANCH   1  20
TORSDOF 13
ENDMDL
MODEL 8
REMARK VINA RESULT:      -8.3      1.493      2.433
REMARK  Name = *****
REMARK                            x       y       z     vdW  Elec       q    Type
REMARK                         _______ _______ _______ _____ _____    ______ ____
ROOT
ATOM      1  C   LIG    1       25.097 -22.220   7.308  0.00  0.00    +0.078 C 
ENDROOT
BRANCH   1   2
ATOM      2  N   LIG    1       26.262 -21.518   7.853  0.00  0.00    -0.312 N 
ATOM      3  H   LIG    1       26.549 -21.795   8.785  0.00  0.00    +0.149 HD
ATOM      4  C   LIG    1       27.087 -20.692   7.125  0.00  0.00    +0.214 C 
ATOM      5  O   LIG    1       26.901 -20.369   5.956  0.00  0.00    -0.276 OA
BRANCH   4   6
ATOM      6  C   LIG    1       28.251 -20.138   7.892  0.00  0.00    +0.107 C 
BRANCH   6   7
ATOM      7  C   LIG    1       29.424 -21.098   7.768  0.00  0.00    +0.129 C 
BRANCH   7   8
ATOM      8  C   LIG    1       30.660 -20.454   8.321  0.00  0.00    +0.305 C 
ATOM      9  O   LIG    1       30.916 -20.232   9.483  0.00  0.00    -0.251 OA
BRANCH   8  10
ATOM     10  O   LIG    1       31.531 -20.130   7.340  0.00  0.00    -0.481 OA
ATOM     11  H   LIG    1       31.213 -19.266   7.032  0.00  0.00    +0.295 HD
ENDBRANCH   8  10
ENDBRANCH   7   8
ENDBRANCH   6   7
ENDBRANCH   4   6
ENDBRANCH   1   2
BRANCH   1  12
ATOM     12  C   LIG    1       23.935 -21.238   6.946  0.00  0.00    +0.037 C 
BRANCH  12  13
ATOM     13  C   LIG    1       23.440 -21.239   5.471  0.00  0.00    +0.096 C 
ATOM     14  C   LIG    1       21.977 -21.718   5.420  0.00  0.00    +0.019 C 
BRANCH  13  15
ATOM     15  C   LIG    1       23.514 -19.865   4.841  0.00  0.00    +0.310 C 
ATOM     16  O   LIG    1       24.384 -19.503   4.062  0.00  0.00    -0.251 OA
BRANCH  15  17
ATOM     17  O   LIG    1       22.471 -19.086   5.258  0.00  0.00    -0.465 OA
BRANCH  17  19
ATOM     18  C   LIG    1       20.833 -18.479   3.545  0.00  0.00    +0.048 C 
ATOM     19  C   LIG    1       22.037 -18.054   4.372  0.00  0.00    +0.229 C 
ENDBRANCH  17  19
ENDBRANCH  15  17
ENDBRANCH  13  15
ENDBRANCH  12  13
ENDBRANCH   1  12
BRANCH   1  20
ATOM     20  C   LIG    1       25.464 -23.125   6.079  0.00  0.00    +0.057 C 
BRANCH  20  21
ATOM     21  C   LIG    1       25.272 -24.637   6.218  0.00  0.00    -0.046 A 
ATOM     22  C   LIG    1       24.200 -25.314   5.621  0.00  0.00    +0.004 A 
ATOM     23  C   LIG    1       24.061 -26.718   5.738  0.00  0.00    +0.009 A 
ATOM     24  C   LIG    1       24.991 -27.513   6.434  0.00  0.00    -0.018 A 
ATOM     25  C   LIG    1       26.023 -26.808   7.080  0.00  0.00    +0.009 A 
ATOM     26  C   LIG    1       26.146 -25.404   6.997  0.00  0.00    +0.004 A 
BRANCH  24  27
ATOM     27  C   LIG    1       24.913 -29.009   6.472  0.00  0.00    -0.018 A 
ATOM     28  C   LIG    1       25.374 -29.812   5.408  0.00  0.00    +0.008 A 
ATOM     29  C   LIG    1       25.260 -31.212   5.423  0.00  0.00    +0.001 A 
ATOM     30  C   LIG    1       24.690 -31.857   6.514  0.00  0.00    +0.000 A 
ATOM     31  C   LIG    1       24.233 -31.099   7.586  0.00  0.00    +0.001 A 
ATOM     32  C   LIG    1       24.340 -29.699   7.562  0.00  0.00    +0.008 A 
ENDBRANCH  24  27
ENDBRANCH  20  21
ENDBRANCH   1  20
TORSDOF 13
ENDMDL
MODEL 9
REMARK VINA RESULT:      -8.2      5.891     10.650
REMARK  Name = *****
REMARK                            x       y       z     vdW  Elec       q    Type
REMARK                         _______ _______ _______ _____ _____    ______ ____
ROOT
ATOM      1  C   LIG    1       25.252 -28.843   6.759  0.00  0.00    +0.078 C 
ENDROOT
BRANCH   1   2
ATOM      2  N   LIG    1       25.470 -30.153   6.140  0.00  0.00    -0.312 N 
ATOM      3  H   LIG    1       26.438 -30.436   6.034  0.00  0.00    +0.149 HD
ATOM      4  C   LIG    1       24.479 -31.078   5.899  0.00  0.00    +0.214 C 
ATOM      5  O   LIG    1       23.283 -30.888   6.088  0.00  0.00    -0.276 OA
BRANCH   4   6
ATOM      6  C   LIG    1       24.962 -32.371   5.312  0.00  0.00    +0.107 C 
BRANCH   6   7
ATOM      7  C   LIG    1       26.000 -32.069   4.243  0.00  0.00    +0.129 C 
BRANCH   7   8
ATOM      8  C   LIG    1       25.595 -32.718   2.953  0.00  0.00    +0.305 C 
ATOM      9  O   LIG    1       26.177 -32.673   1.893  0.00  0.00    -0.251 OA
BRANCH   8  10
ATOM     10  O   LIG    1       24.446 -33.417   3.091  0.00  0.00    -0.481 OA
ATOM     11  H   LIG    1       24.325 -33.465   4.053  0.00  0.00    +0.295 HD
ENDBRANCH   8  10
ENDBRANCH   7   8
ENDBRANCH   6   7
ENDBRANCH   4   6
ENDBRANCH   1   2
BRANCH   1  12
ATOM     12  C   LIG    1       25.204 -28.929   8.320  0.00  0.00    +0.037 C 
BRANCH  12  13
ATOM     13  C   LIG    1       26.564 -29.036   9.065  0.00  0.00    +0.096 C 
ATOM     14  C   LIG    1       26.553 -28.107  10.294  0.00  0.00    +0.019 C 
BRANCH  13  15
ATOM     15  C   LIG    1       26.849 -30.446   9.536  0.00  0.00    +0.310 C 
ATOM     16  O   LIG    1       27.696 -30.744  10.365  0.00  0.00    -0.251 OA
BRANCH  15  17
ATOM     17  O   LIG    1       26.024 -31.340   8.911  0.00  0.00    -0.465 OA
BRANCH  17  19
ATOM     18  C   LIG    1       27.330 -33.198   8.002  0.00  0.00    +0.048 C 
ATOM     19  C   LIG    1       26.340 -32.725   9.055  0.00  0.00    +0.229 C 
ENDBRANCH  17  19
ENDBRANCH  15  17
ENDBRANCH  13  15
ENDBRANCH  12  13
ENDBRANCH   1  12
BRANCH   1  20
ATOM     20  C   LIG    1       26.307 -27.777   6.292  0.00  0.00    +0.057 C 
BRANCH  20  21
ATOM     21  C   LIG    1       25.824 -26.344   6.056  0.00  0.00    -0.046 A 
ATOM     22  C   LIG    1       25.333 -25.914   4.816  0.00  0.00    +0.004 A 
ATOM     23  C   LIG    1       24.862 -24.591   4.631  0.00  0.00    +0.009 A 
ATOM     24  C   LIG    1       24.840 -23.646   5.674  0.00  0.00    -0.018 A 
ATOM     25  C   LIG    1       25.397 -24.077   6.891  0.00  0.00    +0.009 A 
ATOM     26  C   LIG    1       25.902 -25.383   7.071  0.00  0.00    +0.004 A 
BRANCH  24  27
ATOM     27  C   LIG    1       24.245 -22.280   5.518  0.00  0.00    -0.018 A 
ATOM     28  C   LIG    1       23.521 -21.654   6.554  0.00  0.00    +0.008 A 
ATOM     29  C   LIG    1       22.925 -20.391   6.394  0.00  0.00    +0.001 A 
ATOM     30  C   LIG    1       23.045 -19.708   5.191  0.00  0.00    +0.000 A 
ATOM     31  C   LIG    1       23.760 -20.288   4.150  0.00  0.00    +0.001 A 
ATOM     32  C   LIG    1       24.345 -21.554   4.311  0.00  0.00    +0.008 A 
ENDBRANCH  24  27
ENDBRANCH  20  21
ENDBRANCH   1  20
TORSDOF 13
ENDMDL
