MODEL 1
REMARK VINA RESULT:      -5.9      0.000      0.000
REMARK  Name = *****
REMARK                            x       y       z     vdW  Elec       q    Type
REMARK                         _______ _______ _______ _____ _____    ______ ____
ROOT
ATOM      1  C   LIG    1       23.205 -30.068   9.853  0.00  0.00    +0.193 C 
ATOM      2  N   LIG    1       24.216 -31.471  10.120  0.00  0.00    +0.246 N 
ATOM      3  C   LIG    1       25.573 -30.662  10.511  0.00  0.00    +0.104 C 
ATOM      4  C   LIG    1       26.146 -31.838   9.934  0.00  0.00    +0.123 C 
ATOM      5  C   LIG    1       25.251 -31.512   8.294  0.00  0.00    +0.082 C 
ATOM      6  C   LIG    1       23.423 -31.756   7.942  0.00  0.00    +0.253 C 
ATOM      7  O   LIG    1       23.510 -31.391   6.534  0.00  0.00    -0.476 OA
ATOM      8  C   LIG    1       24.382 -30.256   6.552  0.00  0.00    +0.167 A 
ATOM      9  C   LIG    1       24.163 -29.075   5.887  0.00  0.00    +0.159 A 
ATOM     10  C   LIG    1       24.808 -27.922   6.364  0.00  0.00    +0.049 A 
ATOM     11  C   LIG    1       25.554 -27.940   7.575  0.00  0.00    +0.008 A 
ATOM     12  C   LIG    1       25.731 -29.139   8.258  0.00  0.00    -0.034 A 
ATOM     13  C   LIG    1       22.619 -32.922   9.237  0.00  0.00    +0.174 C 
ATOM     14  O   LIG    1       21.408 -33.141   9.219  0.00  0.00    -0.293 OA
ATOM     15  C   LIG    1       23.712 -33.824  10.500  0.00  0.00    +0.081 C 
ATOM     16  C   LIG    1       25.310 -30.264   7.596  0.00  0.00    +0.015 A 
ATOM     17  C   LIG    1       25.733 -32.663   7.654  0.00  0.00    +0.070 C 
ATOM     18  C   LIG    1       25.455 -33.240  10.966  0.00  0.00    +0.049 C 
ATOM     19  C   LIG    1       26.026 -29.312   9.748  0.00  0.00    +0.092 C 
ATOM     20  C   LIG    1       24.837 -33.033   8.822  0.00  0.00    +0.134 C 
ENDROOT
BRANCH   4  21
ATOM     21  O   LIG    1       27.542 -31.891   9.834  0.00  0.00    -0.382 OA
ATOM     22  H   LIG    1       27.813 -32.632   9.260  0.00  0.00    +0.210 HD
ENDBRANCH   4  21
BRANCH   9  23
ATOM     23  O   LIG    1       23.270 -28.969   4.872  0.00  0.00    -0.503 OA
ATOM     24  H   LIG    1       22.701 -28.199   5.060  0.00  0.00    +0.292 HD
ENDBRANCH   9  23
BRANCH   2  25
ATOM     25  C   LIG    1       23.386 -31.663  11.719  0.00  0.00    +0.137 C 
BRANCH  25  26
ATOM     26  C   LIG    1       23.944 -30.969  12.950  0.00  0.00    +0.035 C 
ATOM     27  C   LIG    1       23.286 -29.713  13.481  0.00  0.00    +0.009 C 
ATOM     28  C   LIG    1       23.131 -31.004  14.225  0.00  0.00    +0.009 C 
ENDBRANCH  25  26
ENDBRANCH   2  25
TORSDOF 4
ENDMDL
MODEL 2
REMARK VINA RESULT:      -5.7      1.409      2.006
REMARK  Name = *****
REMARK                            x       y       z     vdW  Elec       q    Type
REMARK                         _______ _______ _______ _____ _____    ______ ____
ROOT
ATOM      1  C   LIG    1       22.982 -30.063   9.970  0.00  0.00    +0.193 C 
ATOM      2  N   LIG    1       24.242 -30.759  10.964  0.00  0.00    +0.246 N 
ATOM      3  C   LIG    1       25.374 -29.630  10.666  0.00  0.00    +0.104 C 
ATOM      4  C   LIG    1       26.214 -30.763  10.894  0.00  0.00    +0.123 C 
ATOM      5  C   LIG    1       25.380 -31.710   9.478  0.00  0.00    +0.082 C 
ATOM      6  C   LIG    1       23.668 -32.482   9.495  0.00  0.00    +0.253 C 
ATOM      7  O   LIG    1       23.769 -33.057   8.160  0.00  0.00    -0.476 OA
ATOM      8  C   LIG    1       24.385 -32.007   7.406  0.00  0.00    +0.167 A 
ATOM      9  C   LIG    1       23.971 -31.565   6.175  0.00  0.00    +0.159 A 
ATOM     10  C   LIG    1       24.330 -30.263   5.788  0.00  0.00    +0.049 A 
ATOM     11  C   LIG    1       24.984 -29.378   6.689  0.00  0.00    +0.008 A 
ATOM     12  C   LIG    1       25.360 -29.831   7.950  0.00  0.00    -0.034 A 
ATOM     13  C   LIG    1       23.041 -32.731  11.292  0.00  0.00    +0.174 C 
ATOM     14  O   LIG    1       21.904 -33.153  11.507  0.00  0.00    -0.293 OA
ATOM     15  C   LIG    1       24.212 -32.416  12.751  0.00  0.00    +0.081 C 
ATOM     16  C   LIG    1       25.224 -31.180   8.157  0.00  0.00    +0.015 A 
ATOM     17  C   LIG    1       26.130 -32.882   9.647  0.00  0.00    +0.070 C 
ATOM     18  C   LIG    1       25.762 -31.331  12.620  0.00  0.00    +0.049 C 
ATOM     19  C   LIG    1       25.587 -28.983   9.201  0.00  0.00    +0.092 C 
ATOM     20  C   LIG    1       25.255 -32.623  10.861  0.00  0.00    +0.134 C 
ENDROOT
BRANCH   4  21
ATOM     21  O   LIG    1       27.594 -30.584  10.739  0.00  0.00    -0.382 OA
ATOM     22  H   LIG    1       27.802 -30.329   9.821  0.00  0.00    +0.210 HD
ENDBRANCH   4  21
BRANCH   9  23
ATOM     23  O   LIG    1       23.142 -32.292   5.383  0.00  0.00    -0.503 OA
ATOM     24  H   LIG    1       23.647 -33.058   5.055  0.00  0.00    +0.292 HD
ENDBRANCH   9  23
BRANCH   2  25
ATOM     25  C   LIG    1       23.368 -30.086  12.401  0.00  0.00    +0.137 C 
BRANCH  25  26
ATOM     26  C   LIG    1       23.468 -28.604  12.722  0.00  0.00    +0.035 C 
ATOM     27  C   LIG    1       22.214 -27.789  12.961  0.00  0.00    +0.009 C 
ATOM     28  C   LIG    1       23.101 -28.144  14.116  0.00  0.00    +0.009 C 
ENDBRANCH  25  26
ENDBRANCH   2  25
TORSDOF 4
ENDMDL
MODEL 3
REMARK VINA RESULT:      -5.0      1.923      2.650
REMARK  Name = *****
REMARK                            x       y       z     vdW  Elec       q    Type
REMARK                         _______ _______ _______ _____ _____    ______ ____
ROOT
ATOM      1  C   LIG    1       23.248 -29.370  11.743  0.00  0.00    +0.193 C 
ATOM      2  N   LIG    1       23.216 -31.113  11.898  0.00  0.00    +0.246 N 
ATOM      3  C   LIG    1       24.644 -31.267  12.662  0.00  0.00    +0.104 C 
ATOM      4  C   LIG    1       24.600 -32.518  11.971  0.00  0.00    +0.123 C 
ATOM      5  C   LIG    1       24.476 -31.631  10.299  0.00  0.00    +0.082 C 
ATOM      6  C   LIG    1       22.973 -30.746   9.603  0.00  0.00    +0.253 C 
ATOM      7  O   LIG    1       23.595 -30.411   8.329  0.00  0.00    -0.476 OA
ATOM      8  C   LIG    1       24.909 -29.996   8.715  0.00  0.00    +0.167 A 
ATOM      9  C   LIG    1       25.550 -28.868   8.267  0.00  0.00    +0.159 A 
ATOM     10  C   LIG    1       26.578 -28.335   9.062  0.00  0.00    +0.049 A 
ATOM     11  C   LIG    1       26.860 -28.859  10.355  0.00  0.00    +0.008 A 
ATOM     12  C   LIG    1       26.171 -29.979  10.810  0.00  0.00    -0.034 A 
ATOM     13  C   LIG    1       21.367 -31.310  10.491  0.00  0.00    +0.174 C 
ATOM     14  O   LIG    1       20.286 -30.784  10.227  0.00  0.00    -0.293 OA
ATOM     15  C   LIG    1       21.426 -32.756  11.718  0.00  0.00    +0.081 C 
ATOM     16  C   LIG    1       25.383 -30.607   9.880  0.00  0.00    +0.015 A 
ATOM     17  C   LIG    1       24.388 -32.805   9.537  0.00  0.00    +0.070 C 
ATOM     18  C   LIG    1       23.020 -33.322  12.577  0.00  0.00    +0.049 C 
ATOM     19  C   LIG    1       25.939 -30.385  12.265  0.00  0.00    +0.092 C 
ATOM     20  C   LIG    1       23.178 -32.660  10.442  0.00  0.00    +0.134 C 
ENDROOT
BRANCH   4  21
ATOM     21  O   LIG    1       25.708 -33.364  12.099  0.00  0.00    -0.382 OA
ATOM     22  H   LIG    1       26.486 -32.974  11.658  0.00  0.00    +0.210 HD
ENDBRANCH   4  21
BRANCH   9  23
ATOM     23  O   LIG    1       25.150 -28.199   7.156  0.00  0.00    -0.503 OA
ATOM     24  H   LIG    1       25.397 -28.740   6.383  0.00  0.00    +0.292 HD
ENDBRANCH   9  23
BRANCH   2  25
ATOM     25  C   LIG    1       22.049 -30.889  13.265  0.00  0.00    +0.137 C 
BRANCH  25  26
ATOM     26  C   LIG    1       21.431 -29.524  13.516  0.00  0.00    +0.035 C 
ATOM     27  C   LIG    1       19.928 -29.375  13.621  0.00  0.00    +0.009 C 
ATOM     28  C   LIG    1       20.773 -29.269  14.855  0.00  0.00    +0.009 C 
ENDBRANCH  25  26
ENDBRANCH   2  25
TORSDOF 4
ENDMDL
MODEL 4
REMARK VINA RESULT:      -5.0      2.455      5.432
REMARK  Name = *****
REMARK                            x       y       z     vdW  Elec       q    Type
REMARK                         _______ _______ _______ _____ _____    ______ ____
ROOT
ATOM      1  C   LIG    1       23.641 -29.770   9.147  0.00  0.00    +0.193 C 
ATOM      2  N   LIG    1       24.600 -31.136   9.671  0.00  0.00    +0.246 N 
ATOM      3  C   LIG    1       23.362 -32.163   9.913  0.00  0.00    +0.104 C 
ATOM      4  C   LIG    1       24.286 -32.661  10.884  0.00  0.00    +0.123 C 
ATOM      5  C   LIG    1       24.341 -30.973  11.748  0.00  0.00    +0.082 C 
ATOM      6  C   LIG    1       25.210 -29.424  11.138  0.00  0.00    +0.253 C 
ATOM      7  O   LIG    1       24.883 -28.620  12.308  0.00  0.00    -0.476 OA
ATOM      8  C   LIG    1       23.517 -28.966  12.561  0.00  0.00    +0.167 A 
ATOM      9  C   LIG    1       22.505 -28.074  12.817  0.00  0.00    +0.159 A 
ATOM     10  C   LIG    1       21.186 -28.484  12.563  0.00  0.00    +0.049 A 
ATOM     11  C   LIG    1       20.907 -29.729  11.933  0.00  0.00    +0.008 A 
ATOM     12  C   LIG    1       21.950 -30.604  11.643  0.00  0.00    -0.034 A 
ATOM     13  C   LIG    1       26.540 -29.851   9.822  0.00  0.00    +0.174 C 
ATOM     14  O   LIG    1       27.162 -28.959   9.246  0.00  0.00    -0.293 OA
ATOM     15  C   LIG    1       26.970 -31.666   9.470  0.00  0.00    +0.081 C 
ATOM     16  C   LIG    1       23.171 -30.260  12.164  0.00  0.00    +0.015 A 
ATOM     17  C   LIG    1       25.275 -31.357  12.721  0.00  0.00    +0.070 C 
ATOM     18  C   LIG    1       25.807 -33.105   9.885  0.00  0.00    +0.049 C 
ATOM     19  C   LIG    1       21.963 -31.693  10.571  0.00  0.00    +0.092 C 
ATOM     20  C   LIG    1       25.894 -31.399  11.335  0.00  0.00    +0.134 C 
ENDROOT
BRANCH   4  21
ATOM     21  O   LIG    1       23.858 -33.717  11.698  0.00  0.00    -0.382 OA
ATOM     22  H   LIG    1       24.560 -34.390  11.777  0.00  0.00    +0.210 HD
ENDBRANCH   4  21
BRANCH   9  23
ATOM     23  O   LIG    1       22.745 -26.792  13.192  0.00  0.00    -0.503 OA
ATOM     24  H   LIG    1       22.666 -26.750  14.163  0.00  0.00    +0.292 HD
ENDBRANCH   9  23
BRANCH   2  25
ATOM     25  C   LIG    1       25.015 -31.408   7.928  0.00  0.00    +0.137 C 
BRANCH  25  26
ATOM     26  C   LIG    1       24.011 -32.080   7.007  0.00  0.00    +0.035 C 
ATOM     27  C   LIG    1       24.381 -32.389   5.572  0.00  0.00    +0.009 C 
ATOM     28  C   LIG    1       24.279 -33.504   6.569  0.00  0.00    +0.009 C 
ENDBRANCH  25  26
ENDBRANCH   2  25
TORSDOF 4
ENDMDL
MODEL 5
REMARK VINA RESULT:      -4.9      1.943      2.814
REMARK  Name = *****
REMARK                            x       y       z     vdW  Elec       q    Type
REMARK                         _______ _______ _______ _____ _____    ______ ____
ROOT
ATOM      1  C   LIG    1       23.986 -29.674   9.678  0.00  0.00    +0.193 C 
ATOM      2  N   LIG    1       23.822 -30.764  11.036  0.00  0.00    +0.246 N 
ATOM      3  C   LIG    1       25.412 -30.991  11.298  0.00  0.00    +0.104 C 
ATOM      4  C   LIG    1       24.907 -32.248  11.756  0.00  0.00    +0.123 C 
ATOM      5  C   LIG    1       24.135 -32.596  10.058  0.00  0.00    +0.082 C 
ATOM      6  C   LIG    1       22.598 -31.796   9.335  0.00  0.00    +0.253 C 
ATOM      7  O   LIG    1       22.600 -32.587   8.112  0.00  0.00    -0.476 OA
ATOM      8  C   LIG    1       23.984 -32.604   7.746  0.00  0.00    +0.167 A 
ATOM      9  C   LIG    1       24.477 -32.361   6.488  0.00  0.00    +0.159 A 
ATOM     10  C   LIG    1       25.810 -31.934   6.374  0.00  0.00    +0.049 A 
ATOM     11  C   LIG    1       26.590 -31.630   7.525  0.00  0.00    +0.008 A 
ATOM     12  C   LIG    1       26.059 -31.844   8.794  0.00  0.00    -0.034 A 
ATOM     13  C   LIG    1       21.525 -30.995  10.710  0.00  0.00    +0.174 C 
ATOM     14  O   LIG    1       20.514 -30.353  10.424  0.00  0.00    -0.293 OA
ATOM     15  C   LIG    1       21.969 -31.272  12.534  0.00  0.00    +0.081 C 
ATOM     16  C   LIG    1       24.863 -32.515   8.828  0.00  0.00    +0.015 A 
ATOM     17  C   LIG    1       23.569 -33.825  10.424  0.00  0.00    +0.070 C 
ATOM     18  C   LIG    1       23.699 -31.792  13.112  0.00  0.00    +0.049 C 
ATOM     19  C   LIG    1       26.474 -31.152  10.091  0.00  0.00    +0.092 C 
ATOM     20  C   LIG    1       22.936 -32.687  11.206  0.00  0.00    +0.134 C 
ENDROOT
BRANCH   4  21
ATOM     21  O   LIG    1       25.841 -33.203  12.176  0.00  0.00    -0.382 OA
ATOM     22  H   LIG    1       25.547 -33.622  13.006  0.00  0.00    +0.210 HD
ENDBRANCH   4  21
BRANCH   9  23
ATOM     23  O   LIG    1       23.694 -32.408   5.381  0.00  0.00    -0.503 OA
ATOM     24  H   LIG    1       22.852 -32.830   5.633  0.00  0.00    +0.292 HD
ENDBRANCH   9  23
BRANCH   2  25
ATOM     25  C   LIG    1       23.449 -29.312  12.053  0.00  0.00    +0.137 C 
BRANCH  25  26
ATOM     26  C   LIG    1       24.574 -28.402  12.515  0.00  0.00    +0.035 C 
ATOM     27  C   LIG    1       24.267 -27.162  13.327  0.00  0.00    +0.009 C 
ATOM     28  C   LIG    1       24.894 -28.350  13.993  0.00  0.00    +0.009 C 
ENDBRANCH  25  26
ENDBRANCH   2  25
TORSDOF 4
ENDMDL
MODEL 6
REMARK VINA RESULT:      -4.9      2.151      4.364
REMARK  Name = *****
REMARK                            x       y       z     vdW  Elec       q    Type
REMARK                         _______ _______ _______ _____ _____    ______ ____
ROOT
ATOM      1  C   LIG    1       23.486 -30.026  10.817  0.00  0.00    +0.193 C 
ATOM      2  N   LIG    1       24.154 -31.357   9.897  0.00  0.00    +0.246 N 
ATOM      3  C   LIG    1       24.391 -32.364  11.152  0.00  0.00    +0.104 C 
ATOM      4  C   LIG    1       25.444 -32.797  10.290  0.00  0.00    +0.123 C 
ATOM      5  C   LIG    1       26.197 -31.056  10.276  0.00  0.00    +0.082 C 
ATOM      6  C   LIG    1       25.538 -29.552   9.364  0.00  0.00    +0.253 C 
ATOM      7  O   LIG    1       26.631 -28.672   9.755  0.00  0.00    -0.476 OA
ATOM      8  C   LIG    1       26.826 -28.998  11.135  0.00  0.00    +0.167 A 
ATOM      9  C   LIG    1       26.963 -28.090  12.155  0.00  0.00    +0.159 A 
ATOM     10  C   LIG    1       26.660 -28.514  13.459  0.00  0.00    +0.049 A 
ATOM     11  C   LIG    1       26.099 -29.797  13.708  0.00  0.00    +0.008 A 
ATOM     12  C   LIG    1       25.929 -30.691  12.655  0.00  0.00    -0.034 A 
ATOM     13  C   LIG    1       24.333 -30.067   7.962  0.00  0.00    +0.174 C 
ATOM     14  O   LIG    1       23.737 -29.216   7.302  0.00  0.00    -0.293 OA
ATOM     15  C   LIG    1       24.128 -31.902   7.522  0.00  0.00    +0.081 C 
ATOM     16  C   LIG    1       26.496 -30.315  11.464  0.00  0.00    +0.015 A 
ATOM     17  C   LIG    1       27.246 -31.376   9.402  0.00  0.00    +0.070 C 
ATOM     18  C   LIG    1       24.568 -33.309   8.715  0.00  0.00    +0.049 C 
ATOM     19  C   LIG    1       24.934 -31.849  12.585  0.00  0.00    +0.092 C 
ATOM     20  C   LIG    1       25.904 -31.511   8.704  0.00  0.00    +0.134 C 
ENDROOT
BRANCH   4  21
ATOM     21  O   LIG    1       26.300 -33.796  10.769  0.00  0.00    -0.382 OA
ATOM     22  H   LIG    1       26.631 -33.562  11.656  0.00  0.00    +0.210 HD
ENDBRANCH   4  21
BRANCH   9  23
ATOM     23  O   LIG    1       27.266 -26.786  11.930  0.00  0.00    -0.503 OA
ATOM     24  H   LIG    1       26.946 -26.274  12.696  0.00  0.00    +0.292 HD
ENDBRANCH   9  23
BRANCH   2  25
ATOM     25  C   LIG    1       22.461 -31.744   9.382  0.00  0.00    +0.137 C 
BRANCH  25  26
ATOM     26  C   LIG    1       21.452 -32.235  10.407  0.00  0.00    +0.035 C 
ATOM     27  C   LIG    1       20.049 -31.666  10.428  0.00  0.00    +0.009 C 
ATOM     28  C   LIG    1       20.279 -33.059   9.922  0.00  0.00    +0.009 C 
ENDBRANCH  25  26
ENDBRANCH   2  25
TORSDOF 4
ENDMDL
MODEL 7
REMARK VINA RESULT:      -4.9      2.578      4.239
REMARK  Name = *****
REMARK                            x       y       z     vdW  Elec       q    Type
REMARK                         _______ _______ _______ _____ _____    ______ ____
ROOT
ATOM      1  C   LIG    1       23.026 -29.775  10.944  0.00  0.00    +0.193 C 
ATOM      2  N   LIG    1       23.365 -29.975  12.649  0.00  0.00    +0.246 N 
ATOM      3  C   LIG    1       24.536 -28.850  12.750  0.00  0.00    +0.104 C 
ATOM      4  C   LIG    1       24.970 -29.746  13.775  0.00  0.00    +0.123 C 
ATOM      5  C   LIG    1       25.086 -31.171  12.528  0.00  0.00    +0.082 C 
ATOM      6  C   LIG    1       23.656 -32.116  11.762  0.00  0.00    +0.253 C 
ATOM      7  O   LIG    1       24.494 -33.045  11.017  0.00  0.00    -0.476 OA
ATOM      8  C   LIG    1       25.525 -32.198  10.497  0.00  0.00    +0.167 A 
ATOM      9  C   LIG    1       25.978 -32.200   9.202  0.00  0.00    +0.159 A 
ATOM     10  C   LIG    1       26.605 -31.038   8.722  0.00  0.00    +0.049 A 
ATOM     11  C   LIG    1       26.652 -29.848   9.500  0.00  0.00    +0.008 A 
ATOM     12  C   LIG    1       26.150 -29.853  10.798  0.00  0.00    -0.034 A 
ATOM     13  C   LIG    1       22.052 -31.896  12.793  0.00  0.00    +0.174 C 
ATOM     14  O   LIG    1       20.986 -32.376  12.407  0.00  0.00    -0.293 OA
ATOM     15  C   LIG    1       22.123 -31.012  14.471  0.00  0.00    +0.081 C 
ATOM     16  C   LIG    1       25.805 -31.084  11.293  0.00  0.00    +0.015 A 
ATOM     17  C   LIG    1       25.481 -32.133  13.469  0.00  0.00    +0.070 C 
ATOM     18  C   LIG    1       23.521 -29.827  14.959  0.00  0.00    +0.049 C 
ATOM     19  C   LIG    1       25.644 -28.648  11.591  0.00  0.00    +0.092 C 
ATOM     20  C   LIG    1       24.076 -31.638  13.763  0.00  0.00    +0.134 C 
ENDROOT
BRANCH   4  21
ATOM     21  O   LIG    1       26.172 -29.446  14.427  0.00  0.00    -0.382 OA
ATOM     22  H   LIG    1       26.525 -28.593  14.112  0.00  0.00    +0.210 HD
ENDBRANCH   4  21
BRANCH   9  23
ATOM     23  O   LIG    1       25.740 -33.230   8.351  0.00  0.00    -0.503 OA
ATOM     24  H   LIG    1       26.181 -33.021   7.507  0.00  0.00    +0.292 HD
ENDBRANCH   9  23
BRANCH   2  25
ATOM     25  C   LIG    1       21.860 -29.021  12.978  0.00  0.00    +0.137 C 
BRANCH  25  26
ATOM     26  C   LIG    1       21.887 -27.506  12.875  0.00  0.00    +0.035 C 
ATOM     27  C   LIG    1       20.635 -26.700  13.153  0.00  0.00    +0.009 C 
ATOM     28  C   LIG    1       21.757 -26.697  14.147  0.00  0.00    +0.009 C 
ENDBRANCH  25  26
ENDBRANCH   2  25
TORSDOF 4
ENDMDL
MODEL 8
REMARK VINA RESULT:      -4.9      3.484      5.397
REMARK  Name = *****
REMARK                            x       y       z     vdW  Elec       q    Type
REMARK                         _______ _______ _______ _____ _____    ______ ____
ROOT
ATOM      1  C   LIG    1       23.667 -29.948  14.802  0.00  0.00    +0.193 C 
ATOM      2  N   LIG    1       24.286 -30.635  13.317  0.00  0.00    +0.246 N 
ATOM      3  C   LIG    1       25.104 -29.320  12.818  0.00  0.00    +0.104 C 
ATOM      4  C   LIG    1       24.776 -29.898  11.553  0.00  0.00    +0.123 C 
ATOM      5  C   LIG    1       22.924 -29.806  11.951  0.00  0.00    +0.082 C 
ATOM      6  C   LIG    1       21.972 -30.904  13.140  0.00  0.00    +0.253 C 
ATOM      7  O   LIG    1       20.673 -30.306  12.861  0.00  0.00    -0.476 OA
ATOM      8  C   LIG    1       20.970 -28.907  12.812  0.00  0.00    +0.167 A 
ATOM      9  C   LIG    1       20.252 -27.920  13.440  0.00  0.00    +0.159 A 
ATOM     10  C   LIG    1       20.902 -26.705  13.713  0.00  0.00    +0.049 A 
ATOM     11  C   LIG    1       22.296 -26.543  13.476  0.00  0.00    +0.008 A 
ATOM     12  C   LIG    1       23.017 -27.570  12.876  0.00  0.00    -0.034 A 
ATOM     13  C   LIG    1       22.933 -32.525  13.503  0.00  0.00    +0.174 C 
ATOM     14  O   LIG    1       22.506 -33.338  14.322  0.00  0.00    -0.293 OA
ATOM     15  C   LIG    1       24.507 -32.928  12.522  0.00  0.00    +0.081 C 
ATOM     16  C   LIG    1       22.269 -28.612  12.390  0.00  0.00    +0.015 A 
ATOM     17  C   LIG    1       22.505 -30.400  10.751  0.00  0.00    +0.070 C 
ATOM     18  C   LIG    1       25.531 -31.611  11.620  0.00  0.00    +0.049 C 
ATOM     19  C   LIG    1       24.520 -27.823  12.986  0.00  0.00    +0.092 C 
ATOM     20  C   LIG    1       23.303 -31.384  11.589  0.00  0.00    +0.134 C 
ENDROOT
BRANCH   4  21
ATOM     21  O   LIG    1       25.160 -29.194  10.404  0.00  0.00    -0.382 OA
ATOM     22  H   LIG    1       25.969 -29.582  10.023  0.00  0.00    +0.210 HD
ENDBRANCH   4  21
BRANCH   9  23
ATOM     23  O   LIG    1       18.991 -28.120  13.899  0.00  0.00    -0.503 OA
ATOM     24  H   LIG    1       19.059 -28.577  14.757  0.00  0.00    +0.292 HD
ENDBRANCH   9  23
BRANCH   2  25
ATOM     25  C   LIG    1       25.508 -31.512  14.327  0.00  0.00    +0.137 C 
BRANCH  25  26
ATOM     26  C   LIG    1       26.577 -30.729  15.070  0.00  0.00    +0.035 C 
ATOM     27  C   LIG    1       27.860 -31.410  15.500  0.00  0.00    +0.009 C 
ATOM     28  C   LIG    1       27.880 -30.439  14.358  0.00  0.00    +0.009 C 
ENDBRANCH  25  26
ENDBRANCH   2  25
TORSDOF 4
ENDMDL
MODEL 9
REMARK VINA RESULT:      -4.8      1.855      5.753
REMARK  Name = *****
REMARK                            x       y       z     vdW  Elec       q    Type
REMARK                         _______ _______ _______ _____ _____    ______ ____
ROOT
ATOM      1  C   LIG    1       24.513 -29.395  10.544  0.00  0.00    +0.193 C 
ATOM      2  N   LIG    1       24.813 -30.788   9.529  0.00  0.00    +0.246 N 
ATOM      3  C   LIG    1       23.259 -31.109   9.171  0.00  0.00    +0.104 C 
ATOM      4  C   LIG    1       23.803 -32.428   9.100  0.00  0.00    +0.123 C 
ATOM      5  C   LIG    1       24.391 -32.321  10.900  0.00  0.00    +0.082 C 
ATOM      6  C   LIG    1       25.847 -31.331  11.552  0.00  0.00    +0.253 C 
ATOM      7  O   LIG    1       25.713 -31.789  12.928  0.00  0.00    -0.476 OA
ATOM      8  C   LIG    1       24.298 -31.744  13.143  0.00  0.00    +0.167 A 
ATOM      9  C   LIG    1       23.677 -31.203  14.241  0.00  0.00    +0.159 A 
ATOM     10  C   LIG    1       22.341 -30.791  14.105  0.00  0.00    +0.049 A 
ATOM     11  C   LIG    1       21.688 -30.804  12.841  0.00  0.00    +0.008 A 
ATOM     12  C   LIG    1       22.348 -31.318  11.729  0.00  0.00    -0.034 A 
ATOM     13  C   LIG    1       27.063 -30.878  10.137  0.00  0.00    +0.174 C 
ATOM     14  O   LIG    1       28.040 -30.163  10.354  0.00  0.00    -0.293 OA
ATOM     15  C   LIG    1       26.811 -31.615   8.406  0.00  0.00    +0.081 C 
ATOM     16  C   LIG    1       23.538 -31.949  11.988  0.00  0.00    +0.015 A 
ATOM     17  C   LIG    1       24.987 -33.590  10.917  0.00  0.00    +0.070 C 
ATOM     18  C   LIG    1       25.149 -32.302   7.804  0.00  0.00    +0.049 C 
ATOM     19  C   LIG    1       22.075 -30.984  10.263  0.00  0.00    +0.092 C 
ATOM     20  C   LIG    1       25.704 -32.672   9.943  0.00  0.00    +0.134 C 
ENDROOT
BRANCH   4  21
ATOM     21  O   LIG    1       22.914 -33.479   8.840  0.00  0.00    -0.382 OA
ATOM     22  H   LIG    1       22.378 -33.672   9.631  0.00  0.00    +0.210 HD
ENDBRANCH   4  21
BRANCH   9  23
ATOM     23  O   LIG    1       24.339 -30.953  15.399  0.00  0.00    -0.503 OA
ATOM     24  H   LIG    1       24.705 -31.799  15.716  0.00  0.00    +0.292 HD
ENDBRANCH   9  23
BRANCH   2  25
ATOM     25  C   LIG    1       25.298 -29.630   8.223  0.00  0.00    +0.137 C 
BRANCH  25  26
ATOM     26  C   LIG    1       24.265 -29.143   7.221  0.00  0.00    +0.035 C 
ATOM     27  C   LIG    1       24.542 -27.920   6.373  0.00  0.00    +0.009 C 
ATOM     28  C   LIG    1       24.573 -29.281   5.747  0.00  0.00    +0.009 C 
ENDBRANCH  25  26
ENDBRANCH   2  25
TORSDOF 4
ENDMDL
