MODEL 1
REMARK VINA RESULT:      -4.8      0.000      0.000
REMARK  Name = *****
REMARK                            x       y       z     vdW  Elec       q    Type
REMARK                         _______ _______ _______ _____ _____    ______ ____
ROOT
ATOM      1  C   LIG    1       25.273 -20.723   7.411  0.00  0.00    +0.016 C 
ENDROOT
BRANCH   1   2
ATOM      2  C   LIG    1       24.795 -22.147   7.725  0.00  0.00    +0.081 C 
BRANCH   2   3
ATOM      3  N   LIG    1       23.581 -22.577   7.002  0.00  0.00    -0.316 NA
ATOM      4  H   LIG    1       23.577 -22.097   6.103  0.00  0.00    +0.122 HD
BRANCH   3   5
ATOM      5  C   LIG    1       23.456 -24.021   6.732  0.00  0.00    +0.082 C 
BRANCH   5   6
ATOM      6  C   LIG    1       24.779 -24.776   6.692  0.00  0.00    +0.030 C 
BRANCH   6   7
ATOM      7  C   LIG    1       25.292 -25.087   5.301  0.00  0.00    +0.079 C 
BRANCH   7   8
ATOM      8  N   LIG    1       24.790 -24.071   4.373  0.00  0.00    -0.330 NA
ATOM      9  H   LIG    1       25.153 -23.146   4.618  0.00  0.00    +0.118 HD
ATOM     10  H   LIG    1       23.779 -24.009   4.458  0.00  0.00    +0.118 HD
ENDBRANCH   7   8
ENDBRANCH   6   7
ENDBRANCH   5   6
ENDBRANCH   3   5
ENDBRANCH   2   3
ENDBRANCH   1   2
BRANCH   1  11
ATOM     11  C   LIG    1       26.495 -20.589   6.500  0.00  0.00    +0.016 C 
BRANCH  11  12
ATOM     12  C   LIG    1       26.135 -20.168   5.067  0.00  0.00    +0.081 C 
BRANCH  12  13
ATOM     13  N   LIG    1       25.109 -21.061   4.518  0.00  0.00    -0.316 NA
ATOM     14  H   LIG    1       24.476 -21.345   5.267  0.00  0.00    +0.122 HD
BRANCH  13  15
ATOM     15  C   LIG    1       24.336 -20.395   3.456  0.00  0.00    +0.082 C 
BRANCH  15  16
ATOM     16  C   LIG    1       23.496 -19.256   4.048  0.00  0.00    +0.030 C 
BRANCH  16  17
ATOM     17  C   LIG    1       22.432 -19.724   5.048  0.00  0.00    +0.079 C 
BRANCH  17  18
ATOM     18  N   LIG    1       22.114 -21.141   4.921  0.00  0.00    -0.330 NA
ATOM     19  H   LIG    1       21.102 -21.272   4.896  0.00  0.00    +0.118 HD
ATOM     20  H   LIG    1       22.437 -21.635   5.753  0.00  0.00    +0.118 HD
ENDBRANCH  17  18
ENDBRANCH  16  17
ENDBRANCH  15  16
ENDBRANCH  13  15
ENDBRANCH  12  13
ENDBRANCH  11  12
ENDBRANCH   1  11
TORSDOF 13
ENDMDL
MODEL 2
REMARK VINA RESULT:      -4.8      3.783      5.402
REMARK  Name = *****
REMARK                            x       y       z     vdW  Elec       q    Type
REMARK                         _______ _______ _______ _____ _____    ______ ____
ROOT
ATOM      1  C   LIG    1       25.990 -20.613   6.840  0.00  0.00    +0.016 C 
ENDROOT
BRANCH   1   2
ATOM      2  C   LIG    1       25.150 -21.127   5.664  0.00  0.00    +0.081 C 
BRANCH   2   3
ATOM      3  N   LIG    1       25.231 -22.581   5.421  0.00  0.00    -0.316 NA
ATOM      4  H   LIG    1       25.969 -22.734   4.736  0.00  0.00    +0.122 HD
BRANCH   3   5
ATOM      5  C   LIG    1       25.533 -23.426   6.592  0.00  0.00    +0.082 C 
BRANCH   5   6
ATOM      6  C   LIG    1       25.471 -24.925   6.326  0.00  0.00    +0.030 C 
BRANCH   6   7
ATOM      7  C   LIG    1       24.072 -25.490   6.200  0.00  0.00    +0.079 C 
BRANCH   7   8
ATOM      8  N   LIG    1       23.105 -24.433   6.503  0.00  0.00    -0.330 NA
ATOM      9  H   LIG    1       22.657 -24.599   7.408  0.00  0.00    +0.118 HD
ATOM     10  H   LIG    1       22.359 -24.451   5.813  0.00  0.00    +0.118 HD
ENDBRANCH   7   8
ENDBRANCH   6   7
ENDBRANCH   5   6
ENDBRANCH   3   5
ENDBRANCH   2   3
ENDBRANCH   1   2
BRANCH   1  11
ATOM     11  C   LIG    1       27.449 -20.258   6.546  0.00  0.00    +0.016 C 
BRANCH  11  12
ATOM     12  C   LIG    1       28.449 -21.134   7.315  0.00  0.00    +0.081 C 
BRANCH  12  13
ATOM     13  N   LIG    1       29.219 -20.316   8.259  0.00  0.00    -0.316 NA
ATOM     14  H   LIG    1       29.932 -20.898   8.702  0.00  0.00    +0.122 HD
BRANCH  13  15
ATOM     15  C   LIG    1       29.872 -19.186   7.577  0.00  0.00    +0.082 C 
BRANCH  15  16
ATOM     16  C   LIG    1       30.222 -18.088   8.588  0.00  0.00    +0.030 C 
BRANCH  16  17
ATOM     17  C   LIG    1       31.530 -18.338   9.349  0.00  0.00    +0.079 C 
BRANCH  17  18
ATOM     18  N   LIG    1       32.011 -19.709   9.219  0.00  0.00    -0.330 NA
ATOM     19  H   LIG    1       31.525 -20.314   9.881  0.00  0.00    +0.118 HD
ATOM     20  H   LIG    1       32.997 -19.746   9.482  0.00  0.00    +0.118 HD
ENDBRANCH  17  18
ENDBRANCH  16  17
ENDBRANCH  15  16
ENDBRANCH  13  15
ENDBRANCH  12  13
ENDBRANCH  11  12
ENDBRANCH   1  11
TORSDOF 13
ENDMDL
MODEL 3
REMARK VINA RESULT:      -4.8      3.588      5.446
REMARK  Name = *****
REMARK                            x       y       z     vdW  Elec       q    Type
REMARK                         _______ _______ _______ _____ _____    ______ ____
ROOT
ATOM      1  C   LIG    1       27.340 -20.270   7.879  0.00  0.00    +0.016 C 
ENDROOT
BRANCH   1   2
ATOM      2  C   LIG    1       28.358 -21.412   7.763  0.00  0.00    +0.081 C 
BRANCH   2   3
ATOM      3  N   LIG    1       29.519 -21.135   6.893  0.00  0.00    -0.316 NA
ATOM      4  H   LIG    1       29.290 -21.479   5.962  0.00  0.00    +0.122 HD
BRANCH   3   5
ATOM      5  C   LIG    1       29.912 -19.720   6.756  0.00  0.00    +0.082 C 
BRANCH   5   6
ATOM      6  C   LIG    1       31.274 -19.380   7.349  0.00  0.00    +0.030 C 
BRANCH   6   7
ATOM      7  C   LIG    1       31.360 -19.505   8.856  0.00  0.00    +0.079 C 
BRANCH   7   8
ATOM      8  N   LIG    1       32.025 -20.768   9.188  0.00  0.00    -0.330 NA
ATOM      9  H   LIG    1       32.938 -20.828   8.729  0.00  0.00    +0.118 HD
ATOM     10  H   LIG    1       31.476 -21.542   8.825  0.00  0.00    +0.118 HD
ENDBRANCH   7   8
ENDBRANCH   6   7
ENDBRANCH   5   6
ENDBRANCH   3   5
ENDBRANCH   2   3
ENDBRANCH   1   2
BRANCH   1  11
ATOM     11  C   LIG    1       25.941 -20.639   8.376  0.00  0.00    +0.016 C 
BRANCH  11  12
ATOM     12  C   LIG    1       25.565 -22.101   8.089  0.00  0.00    +0.081 C 
BRANCH  12  13
ATOM     13  N   LIG    1       24.304 -22.164   7.342  0.00  0.00    -0.316 NA
ATOM     14  H   LIG    1       23.601 -22.638   7.911  0.00  0.00    +0.122 HD
BRANCH  13  15
ATOM     15  C   LIG    1       23.821 -20.817   6.996  0.00  0.00    +0.082 C 
BRANCH  15  16
ATOM     16  C   LIG    1       23.099 -20.845   5.643  0.00  0.00    +0.030 C 
BRANCH  16  17
ATOM     17  C   LIG    1       24.025 -21.105   4.449  0.00  0.00    +0.079 C 
BRANCH  17  18
ATOM     18  N   LIG    1       25.428 -20.842   4.749  0.00  0.00    -0.330 NA
ATOM     19  H   LIG    1       25.856 -21.668   5.170  0.00  0.00    +0.118 HD
ATOM     20  H   LIG    1       25.490 -20.107   5.454  0.00  0.00    +0.118 HD
ENDBRANCH  17  18
ENDBRANCH  16  17
ENDBRANCH  15  16
ENDBRANCH  13  15
ENDBRANCH  12  13
ENDBRANCH  11  12
ENDBRANCH   1  11
TORSDOF 13
ENDMDL
MODEL 4
REMARK VINA RESULT:      -4.7      5.343      7.336
REMARK  Name = *****
REMARK                            x       y       z     vdW  Elec       q    Type
REMARK                         _______ _______ _______ _____ _____    ______ ____
ROOT
ATOM      1  C   LIG    1       29.597 -18.991   6.487  0.00  0.00    +0.016 C 
ENDROOT
BRANCH   1   2
ATOM      2  C   LIG    1       28.737 -20.222   6.174  0.00  0.00    +0.081 C 
BRANCH   2   3
ATOM      3  N   LIG    1       27.642 -19.996   5.208  0.00  0.00    -0.316 NA
ATOM      4  H   LIG    1       27.858 -20.537   4.373  0.00  0.00    +0.122 HD
BRANCH   3   5
ATOM      5  C   LIG    1       26.289 -20.384   5.648  0.00  0.00    +0.082 C 
BRANCH   5   6
ATOM      6  C   LIG    1       26.253 -21.242   6.906  0.00  0.00    +0.030 C 
BRANCH   6   7
ATOM      7  C   LIG    1       25.577 -20.595   8.098  0.00  0.00    +0.079 C 
BRANCH   7   8
ATOM      8  N   LIG    1       25.853 -21.398   9.291  0.00  0.00    -0.330 NA
ATOM      9  H   LIG    1       26.859 -21.453   9.466  0.00  0.00    +0.118 HD
ATOM     10  H   LIG    1       25.541 -22.353   9.134  0.00  0.00    +0.118 HD
ENDBRANCH   7   8
ENDBRANCH   6   7
ENDBRANCH   5   6
ENDBRANCH   3   5
ENDBRANCH   2   3
ENDBRANCH   1   2
BRANCH   1  11
ATOM     11  C   LIG    1       31.019 -19.251   6.991  0.00  0.00    +0.016 C 
BRANCH  11  12
ATOM     12  C   LIG    1       31.056 -20.007   8.328  0.00  0.00    +0.081 C 
BRANCH  12  13
ATOM     13  N   LIG    1       31.915 -19.303   9.286  0.00  0.00    -0.316 NA
ATOM     14  H   LIG    1       32.870 -19.654   9.200  0.00  0.00    +0.122 HD
BRANCH  13  15
ATOM     15  C   LIG    1       31.909 -17.851   9.041  0.00  0.00    +0.082 C 
BRANCH  15  16
ATOM     16  C   LIG    1       32.345 -17.099  10.305  0.00  0.00    +0.030 C 
BRANCH  16  17
ATOM     17  C   LIG    1       31.323 -17.161  11.448  0.00  0.00    +0.079 C 
BRANCH  17  18
ATOM     18  N   LIG    1       30.026 -17.674  11.025  0.00  0.00    -0.330 NA
ATOM     19  H   LIG    1       29.278 -17.171  11.503  0.00  0.00    +0.118 HD
ATOM     20  H   LIG    1       29.937 -18.648  11.317  0.00  0.00    +0.118 HD
ENDBRANCH  17  18
ENDBRANCH  16  17
ENDBRANCH  15  16
ENDBRANCH  13  15
ENDBRANCH  12  13
ENDBRANCH  11  12
ENDBRANCH   1  11
TORSDOF 13
ENDMDL
MODEL 5
REMARK VINA RESULT:      -4.7      5.082      7.143
REMARK  Name = *****
REMARK                            x       y       z     vdW  Elec       q    Type
REMARK                         _______ _______ _______ _____ _____    ______ ____
ROOT
ATOM      1  C   LIG    1       29.629 -19.791   7.848  0.00  0.00    +0.016 C 
ENDROOT
BRANCH   1   2
ATOM      2  C   LIG    1       30.809 -20.496   8.529  0.00  0.00    +0.081 C 
BRANCH   2   3
ATOM      3  N   LIG    1       31.861 -19.600   9.052  0.00  0.00    -0.316 NA
ATOM      4  H   LIG    1       32.759 -20.039   8.854  0.00  0.00    +0.122 HD
BRANCH   3   5
ATOM      5  C   LIG    1       31.903 -18.238   8.487  0.00  0.00    +0.082 C 
BRANCH   5   6
ATOM      6  C   LIG    1       31.928 -17.123   9.525  0.00  0.00    +0.030 C 
BRANCH   6   7
ATOM      7  C   LIG    1       30.673 -17.006  10.364  0.00  0.00    +0.079 C 
BRANCH   7   8
ATOM      8  N   LIG    1       30.610 -18.145  11.282  0.00  0.00    -0.330 NA
ATOM      9  H   LIG    1       30.046 -18.900  10.883  0.00  0.00    +0.118 HD
ATOM     10  H   LIG    1       30.138 -17.863  12.137  0.00  0.00    +0.118 HD
ENDBRANCH   7   8
ENDBRANCH   6   7
ENDBRANCH   5   6
ENDBRANCH   3   5
ENDBRANCH   2   3
ENDBRANCH   1   2
BRANCH   1  11
ATOM     11  C   LIG    1       29.527 -19.926   6.327  0.00  0.00    +0.016 C 
BRANCH  11  12
ATOM     12  C   LIG    1       28.083 -19.839   5.810  0.00  0.00    +0.081 C 
BRANCH  12  13
ATOM     13  N   LIG    1       27.279 -20.934   6.363  0.00  0.00    -0.316 NA
ATOM     14  H   LIG    1       27.500 -21.045   7.354  0.00  0.00    +0.122 HD
BRANCH  13  15
ATOM     15  C   LIG    1       25.839 -20.665   6.216  0.00  0.00    +0.082 C 
BRANCH  15  16
ATOM     16  C   LIG    1       25.033 -21.560   7.166  0.00  0.00    +0.030 C 
BRANCH  16  17
ATOM     17  C   LIG    1       25.715 -21.803   8.518  0.00  0.00    +0.079 C 
BRANCH  17  18
ATOM     18  N   LIG    1       26.004 -20.570   9.241  0.00  0.00    -0.330 NA
ATOM     19  H   LIG    1       25.135 -20.081   9.459  0.00  0.00    +0.118 HD
ATOM     20  H   LIG    1       26.532 -19.941   8.635  0.00  0.00    +0.118 HD
ENDBRANCH  17  18
ENDBRANCH  16  17
ENDBRANCH  15  16
ENDBRANCH  13  15
ENDBRANCH  12  13
ENDBRANCH  11  12
ENDBRANCH   1  11
TORSDOF 13
ENDMDL
MODEL 6
REMARK VINA RESULT:      -4.7      3.548      5.699
REMARK  Name = *****
REMARK                            x       y       z     vdW  Elec       q    Type
REMARK                         _______ _______ _______ _____ _____    ______ ____
ROOT
ATOM      1  C   LIG    1       27.405 -20.340   8.119  0.00  0.00    +0.016 C 
ENDROOT
BRANCH   1   2
ATOM      2  C   LIG    1       28.202 -21.495   7.498  0.00  0.00    +0.081 C 
BRANCH   2   3
ATOM      3  N   LIG    1       29.466 -21.106   6.840  0.00  0.00    -0.316 NA
ATOM      4  H   LIG    1       29.435 -21.465   5.888  0.00  0.00    +0.122 HD
BRANCH   3   5
ATOM      5  C   LIG    1       29.743 -19.660   6.757  0.00  0.00    +0.082 C 
BRANCH   5   6
ATOM      6  C   LIG    1       31.143 -19.256   7.204  0.00  0.00    +0.030 C 
BRANCH   6   7
ATOM      7  C   LIG    1       31.349 -19.229   8.704  0.00  0.00    +0.079 C 
BRANCH   7   8
ATOM      8  N   LIG    1       31.867 -20.530   9.133  0.00  0.00    -0.330 NA
ATOM      9  H   LIG    1       31.150 -21.057   9.638  0.00  0.00    +0.118 HD
ATOM     10  H   LIG    1       32.629 -20.388   9.792  0.00  0.00    +0.118 HD
ENDBRANCH   7   8
ENDBRANCH   6   7
ENDBRANCH   5   6
ENDBRANCH   3   5
ENDBRANCH   2   3
ENDBRANCH   1   2
BRANCH   1  11
ATOM     11  C   LIG    1       25.989 -20.659   8.604  0.00  0.00    +0.016 C 
BRANCH  11  12
ATOM     12  C   LIG    1       24.968 -20.757   7.460  0.00  0.00    +0.081 C 
BRANCH  12  13
ATOM     13  N   LIG    1       23.764 -21.461   7.914  0.00  0.00    -0.316 NA
ATOM     14  H   LIG    1       23.040 -20.777   8.137  0.00  0.00    +0.122 HD
BRANCH  13  15
ATOM     15  C   LIG    1       23.261 -22.379   6.878  0.00  0.00    +0.082 C 
BRANCH  15  16
ATOM     16  C   LIG    1       24.100 -23.663   6.856  0.00  0.00    +0.030 C 
BRANCH  16  17
ATOM     17  C   LIG    1       24.940 -23.834   5.584  0.00  0.00    +0.079 C 
BRANCH  17  18
ATOM     18  N   LIG    1       24.624 -22.850   4.556  0.00  0.00    -0.330 NA
ATOM     19  H   LIG    1       23.851 -23.184   3.979  0.00  0.00    +0.118 HD
ATOM     20  H   LIG    1       25.420 -22.754   3.925  0.00  0.00    +0.118 HD
ENDBRANCH  17  18
ENDBRANCH  16  17
ENDBRANCH  15  16
ENDBRANCH  13  15
ENDBRANCH  12  13
ENDBRANCH  11  12
ENDBRANCH   1  11
TORSDOF 13
ENDMDL
MODEL 7
REMARK VINA RESULT:      -4.7      3.744      6.401
REMARK  Name = *****
REMARK                            x       y       z     vdW  Elec       q    Type
REMARK                         _______ _______ _______ _____ _____    ______ ____
ROOT
ATOM      1  C   LIG    1       26.121 -20.759   8.305  0.00  0.00    +0.016 C 
ENDROOT
BRANCH   1   2
ATOM      2  C   LIG    1       27.431 -20.468   7.560  0.00  0.00    +0.081 C 
BRANCH   2   3
ATOM      3  N   LIG    1       28.514 -19.901   8.389  0.00  0.00    -0.316 NA
ATOM      4  H   LIG    1       28.865 -20.650   8.983  0.00  0.00    +0.122 HD
BRANCH   3   5
ATOM      5  C   LIG    1       29.667 -19.336   7.664  0.00  0.00    +0.082 C 
BRANCH   5   6
ATOM      6  C   LIG    1       30.329 -18.149   8.352  0.00  0.00    +0.030 C 
BRANCH   6   7
ATOM      7  C   LIG    1       31.713 -18.424   8.903  0.00  0.00    +0.079 C 
BRANCH   7   8
ATOM      8  N   LIG    1       31.851 -19.863   9.139  0.00  0.00    -0.330 NA
ATOM      9  H   LIG    1       32.431 -20.295   8.416  0.00  0.00    +0.118 HD
ATOM     10  H   LIG    1       30.938 -20.304   9.069  0.00  0.00    +0.118 HD
ENDBRANCH   7   8
ENDBRANCH   6   7
ENDBRANCH   5   6
ENDBRANCH   3   5
ENDBRANCH   2   3
ENDBRANCH   1   2
BRANCH   1  11
ATOM     11  C   LIG    1       25.347 -22.009   7.880  0.00  0.00    +0.016 C 
BRANCH  11  12
ATOM     12  C   LIG    1       26.218 -23.034   7.137  0.00  0.00    +0.081 C 
BRANCH  12  13
ATOM     13  N   LIG    1       25.481 -23.598   6.002  0.00  0.00    -0.316 NA
ATOM     14  H   LIG    1       26.093 -24.235   5.488  0.00  0.00    +0.122 HD
BRANCH  13  15
ATOM     15  C   LIG    1       24.287 -24.332   6.453  0.00  0.00    +0.082 C 
BRANCH  15  16
ATOM     16  C   LIG    1       24.422 -25.822   6.116  0.00  0.00    +0.030 C 
BRANCH  16  17
ATOM     17  C   LIG    1       25.516 -26.129   5.086  0.00  0.00    +0.079 C 
BRANCH  17  18
ATOM     18  N   LIG    1       26.779 -26.524   5.698  0.00  0.00    -0.330 NA
ATOM     19  H   LIG    1       27.490 -25.813   5.523  0.00  0.00    +0.118 HD
ATOM     20  H   LIG    1       27.120 -27.374   5.248  0.00  0.00    +0.118 HD
ENDBRANCH  17  18
ENDBRANCH  16  17
ENDBRANCH  15  16
ENDBRANCH  13  15
ENDBRANCH  12  13
ENDBRANCH  11  12
ENDBRANCH   1  11
TORSDOF 13
ENDMDL
MODEL 8
REMARK VINA RESULT:      -4.7      3.399      5.684
REMARK  Name = *****
REMARK                            x       y       z     vdW  Elec       q    Type
REMARK                         _______ _______ _______ _____ _____    ______ ____
ROOT
ATOM      1  C   LIG    1       25.926 -20.544   7.225  0.00  0.00    +0.016 C 
ENDROOT
BRANCH   1   2
ATOM      2  C   LIG    1       25.707 -21.806   6.381  0.00  0.00    +0.081 C 
BRANCH   2   3
ATOM      3  N   LIG    1       25.239 -21.567   5.001  0.00  0.00    -0.316 NA
ATOM      4  H   LIG    1       24.307 -21.971   4.922  0.00  0.00    +0.122 HD
BRANCH   3   5
ATOM      5  C   LIG    1       25.145 -20.158   4.576  0.00  0.00    +0.082 C 
BRANCH   5   6
ATOM      6  C   LIG    1       23.767 -19.735   4.081  0.00  0.00    +0.030 C 
BRANCH   6   7
ATOM      7  C   LIG    1       22.653 -19.888   5.095  0.00  0.00    +0.079 C 
BRANCH   7   8
ATOM      8  N   LIG    1       22.150 -21.262   5.043  0.00  0.00    -0.330 NA
ATOM      9  H   LIG    1       22.893 -21.929   5.268  0.00  0.00    +0.118 HD
ATOM     10  H   LIG    1       21.857 -21.477   4.093  0.00  0.00    +0.118 HD
ENDBRANCH   7   8
ENDBRANCH   6   7
ENDBRANCH   5   6
ENDBRANCH   3   5
ENDBRANCH   2   3
ENDBRANCH   1   2
BRANCH   1  11
ATOM     11  C   LIG    1       27.327 -20.334   7.804  0.00  0.00    +0.016 C 
BRANCH  11  12
ATOM     12  C   LIG    1       28.447 -20.643   6.799  0.00  0.00    +0.081 C 
BRANCH  12  13
ATOM     13  N   LIG    1       28.591 -19.540   5.843  0.00  0.00    -0.316 NA
ATOM     14  H   LIG    1       27.739 -18.976   5.851  0.00  0.00    +0.122 HD
BRANCH  13  15
ATOM     15  C   LIG    1       29.741 -18.686   6.184  0.00  0.00    +0.082 C 
BRANCH  15  16
ATOM     16  C   LIG    1       30.791 -19.495   6.956  0.00  0.00    +0.030 C 
BRANCH  16  17
ATOM     17  C   LIG    1       31.371 -18.761   8.171  0.00  0.00    +0.079 C 
BRANCH  17  18
ATOM     18  N   LIG    1       31.962 -19.663   9.152  0.00  0.00    -0.330 NA
ATOM     19  H   LIG    1       32.135 -19.164  10.025  0.00  0.00    +0.118 HD
ATOM     20  H   LIG    1       32.878 -19.968   8.820  0.00  0.00    +0.118 HD
ENDBRANCH  17  18
ENDBRANCH  16  17
ENDBRANCH  15  16
ENDBRANCH  13  15
ENDBRANCH  12  13
ENDBRANCH  11  12
ENDBRANCH   1  11
TORSDOF 13
ENDMDL
MODEL 9
REMARK VINA RESULT:      -4.7      5.128      7.347
REMARK  Name = *****
REMARK                            x       y       z     vdW  Elec       q    Type
REMARK                         _______ _______ _______ _____ _____    ______ ____
ROOT
ATOM      1  C   LIG    1       30.140 -20.007   7.393  0.00  0.00    +0.016 C 
ENDROOT
BRANCH   1   2
ATOM      2  C   LIG    1       30.940 -20.510   8.602  0.00  0.00    +0.081 C 
BRANCH   2   3
ATOM      3  N   LIG    1       31.893 -19.539   9.176  0.00  0.00    -0.316 NA
ATOM      4  H   LIG    1       32.831 -19.860   8.943  0.00  0.00    +0.122 HD
BRANCH   3   5
ATOM      5  C   LIG    1       31.773 -18.147   8.704  0.00  0.00    +0.082 C 
BRANCH   5   6
ATOM      6  C   LIG    1       32.099 -17.091   9.754  0.00  0.00    +0.030 C 
BRANCH   6   7
ATOM      7  C   LIG    1       31.490 -17.342  11.118  0.00  0.00    +0.079 C 
BRANCH   7   8
ATOM      8  N   LIG    1       30.071 -17.665  10.950  0.00  0.00    -0.330 NA
ATOM      9  H   LIG    1       29.958 -18.562  10.472  0.00  0.00    +0.118 HD
ATOM     10  H   LIG    1       29.636 -16.969  10.351  0.00  0.00    +0.118 HD
ENDBRANCH   7   8
ENDBRANCH   6   7
ENDBRANCH   5   6
ENDBRANCH   3   5
ENDBRANCH   2   3
ENDBRANCH   1   2
BRANCH   1  11
ATOM     11  C   LIG    1       28.617 -19.991   7.531  0.00  0.00    +0.016 C 
BRANCH  11  12
ATOM     12  C   LIG    1       28.002 -21.398   7.588  0.00  0.00    +0.081 C 
BRANCH  12  13
ATOM     13  N   LIG    1       27.035 -21.485   8.688  0.00  0.00    -0.316 NA
ATOM     14  H   LIG    1       26.881 -20.552   9.073  0.00  0.00    +0.122 HD
BRANCH  13  15
ATOM     15  C   LIG    1       25.751 -22.037   8.226  0.00  0.00    +0.082 C 
BRANCH  15  16
ATOM     16  C   LIG    1       25.993 -23.190   7.243  0.00  0.00    +0.030 C 
BRANCH  16  17
ATOM     17  C   LIG    1       24.742 -23.615   6.464  0.00  0.00    +0.079 C 
BRANCH  17  18
ATOM     18  N   LIG    1       24.873 -23.416   5.025  0.00  0.00    -0.330 NA
ATOM     19  H   LIG    1       24.165 -23.959   4.531  0.00  0.00    +0.118 HD
ATOM     20  H   LIG    1       25.773 -23.785   4.715  0.00  0.00    +0.118 HD
ENDBRANCH  17  18
ENDBRANCH  16  17
ENDBRANCH  15  16
ENDBRANCH  13  15
ENDBRANCH  12  13
ENDBRANCH  11  12
ENDBRANCH   1  11
TORSDOF 13
ENDMDL
