MODEL 1
REMARK VINA RESULT:      -7.3      0.000      0.000
REMARK  Name = *****
REMARK                            x       y       z     vdW  Elec       q    Type
REMARK                         _______ _______ _______ _____ _____    ______ ____
ROOT
ATOM      1  O   LIG    1       27.553 -16.269   3.932  0.00  0.00    -0.245 OA
ATOM      2  C   LIG    1       26.443 -16.156   3.448  0.00  0.00    +0.340 C 
ENDROOT
BRANCH   2   3
ATOM      3  C   LIG    1       25.731 -14.855   3.322  0.00  0.00    +0.059 A 
ATOM      4  C   LIG    1       24.615 -14.625   4.143  0.00  0.00    +0.015 A 
ATOM      5  C   LIG    1       23.900 -13.429   4.035  0.00  0.00    +0.001 A 
ATOM      6  C   LIG    1       24.296 -12.459   3.116  0.00  0.00    +0.000 A 
ATOM      7  C   LIG    1       25.416 -12.672   2.313  0.00  0.00    +0.001 A 
ATOM      8  C   LIG    1       26.133 -13.866   2.418  0.00  0.00    +0.015 A 
ENDBRANCH   2   3
BRANCH   2   9
ATOM      9  O   LIG    1       25.653 -17.162   2.991  0.00  0.00    -0.456 OA
BRANCH   9  10
ATOM     10  C   LIG    1       25.987 -18.476   3.448  0.00  0.00    +0.268 C 
BRANCH  10  11
ATOM     11  C   LIG    1       24.773 -19.134   4.054  0.00  0.00    -0.010 A 
ATOM     12  C   LIG    1       23.507 -18.543   3.932  0.00  0.00    +0.007 A 
ATOM     13  C   LIG    1       22.387 -19.139   4.513  0.00  0.00    +0.000 A 
ATOM     14  C   LIG    1       22.520 -20.330   5.223  0.00  0.00    +0.000 A 
ATOM     15  C   LIG    1       23.774 -20.924   5.356  0.00  0.00    +0.000 A 
ATOM     16  C   LIG    1       24.896 -20.327   4.779  0.00  0.00    +0.007 A 
ENDBRANCH  10  11
ENDBRANCH   9  10
ENDBRANCH   2   9
TORSDOF 4
ENDMDL
MODEL 2
REMARK VINA RESULT:      -6.5      0.780      5.843
REMARK  Name = *****
REMARK                            x       y       z     vdW  Elec       q    Type
REMARK                         _______ _______ _______ _____ _____    ______ ____
ROOT
ATOM      1  O   LIG    1       26.881 -19.179   4.215  0.00  0.00    -0.245 OA
ATOM      2  C   LIG    1       25.840 -18.647   3.880  0.00  0.00    +0.340 C 
ENDROOT
BRANCH   2   3
ATOM      3  C   LIG    1       24.495 -19.184   4.222  0.00  0.00    +0.059 A 
ATOM      4  C   LIG    1       24.412 -20.477   4.762  0.00  0.00    +0.015 A 
ATOM      5  C   LIG    1       23.166 -21.031   5.069  0.00  0.00    +0.001 A 
ATOM      6  C   LIG    1       22.003 -20.298   4.845  0.00  0.00    +0.000 A 
ATOM      7  C   LIG    1       22.078 -19.004   4.331  0.00  0.00    +0.001 A 
ATOM      8  C   LIG    1       23.322 -18.447   4.021  0.00  0.00    +0.015 A 
ENDBRANCH   2   3
BRANCH   2   9
ATOM      9  O   LIG    1       25.712 -17.529   3.119  0.00  0.00    -0.456 OA
BRANCH   9  10
ATOM     10  C   LIG    1       26.597 -16.450   3.440  0.00  0.00    +0.268 C 
BRANCH  10  11
ATOM     11  C   LIG    1       25.871 -15.135   3.314  0.00  0.00    -0.010 A 
ATOM     12  C   LIG    1       24.657 -14.924   3.985  0.00  0.00    +0.007 A 
ATOM     13  C   LIG    1       23.973 -13.715   3.849  0.00  0.00    +0.000 A 
ATOM     14  C   LIG    1       24.492 -12.706   3.041  0.00  0.00    +0.000 A 
ATOM     15  C   LIG    1       25.694 -12.906   2.365  0.00  0.00    +0.000 A 
ATOM     16  C   LIG    1       26.377 -14.116   2.496  0.00  0.00    +0.007 A 
ENDBRANCH  10  11
ENDBRANCH   9  10
ENDBRANCH   2   9
TORSDOF 4
ENDMDL
MODEL 3
REMARK VINA RESULT:      -6.5      0.778      5.854
REMARK  Name = *****
REMARK                            x       y       z     vdW  Elec       q    Type
REMARK                         _______ _______ _______ _____ _____    ______ ____
ROOT
ATOM      1  O   LIG    1       26.981 -19.101   4.312  0.00  0.00    -0.245 OA
ATOM      2  C   LIG    1       25.920 -18.642   3.934  0.00  0.00    +0.340 C 
ENDROOT
BRANCH   2   3
ATOM      3  C   LIG    1       24.601 -19.257   4.244  0.00  0.00    +0.059 A 
ATOM      4  C   LIG    1       23.444 -18.491   4.036  0.00  0.00    +0.015 A 
ATOM      5  C   LIG    1       22.187 -19.020   4.343  0.00  0.00    +0.001 A 
ATOM      6  C   LIG    1       22.080 -20.313   4.852  0.00  0.00    +0.000 A 
ATOM      7  C   LIG    1       23.223 -21.088   5.041  0.00  0.00    +0.001 A 
ATOM      8  C   LIG    1       24.481 -20.562   4.736  0.00  0.00    +0.015 A 
ENDBRANCH   2   3
BRANCH   2   9
ATOM      9  O   LIG    1       25.746 -17.548   3.148  0.00  0.00    -0.456 OA
BRANCH   9  10
ATOM     10  C   LIG    1       26.614 -16.441   3.415  0.00  0.00    +0.268 C 
BRANCH  10  11
ATOM     11  C   LIG    1       25.850 -15.148   3.294  0.00  0.00    -0.010 A 
ATOM     12  C   LIG    1       26.341 -14.101   2.501  0.00  0.00    +0.007 A 
ATOM     13  C   LIG    1       25.645 -12.895   2.408  0.00  0.00    +0.000 A 
ATOM     14  C   LIG    1       24.454 -12.721   3.108  0.00  0.00    +0.000 A 
ATOM     15  C   LIG    1       23.958 -13.752   3.903  0.00  0.00    +0.000 A 
ATOM     16  C   LIG    1       24.655 -14.957   4.002  0.00  0.00    +0.007 A 
ENDBRANCH  10  11
ENDBRANCH   9  10
ENDBRANCH   2   9
TORSDOF 4
ENDMDL
MODEL 4
REMARK VINA RESULT:      -6.5      0.767      5.862
REMARK  Name = *****
REMARK                            x       y       z     vdW  Elec       q    Type
REMARK                         _______ _______ _______ _____ _____    ______ ____
ROOT
ATOM      1  O   LIG    1       26.918 -19.105   4.213  0.00  0.00    -0.245 OA
ATOM      2  C   LIG    1       25.861 -18.609   3.872  0.00  0.00    +0.340 C 
ENDROOT
BRANCH   2   3
ATOM      3  C   LIG    1       24.534 -19.203   4.190  0.00  0.00    +0.059 A 
ATOM      4  C   LIG    1       23.389 -18.411   4.007  0.00  0.00    +0.015 A 
ATOM      5  C   LIG    1       22.126 -18.919   4.322  0.00  0.00    +0.001 A 
ATOM      6  C   LIG    1       22.000 -20.217   4.813  0.00  0.00    +0.000 A 
ATOM      7  C   LIG    1       23.130 -21.018   4.976  0.00  0.00    +0.001 A 
ATOM      8  C   LIG    1       24.394 -20.512   4.663  0.00  0.00    +0.015 A 
ENDBRANCH   2   3
BRANCH   2   9
ATOM      9  O   LIG    1       25.698 -17.485   3.126  0.00  0.00    -0.456 OA
BRANCH   9  10
ATOM     10  C   LIG    1       26.582 -16.400   3.428  0.00  0.00    +0.268 C 
BRANCH  10  11
ATOM     11  C   LIG    1       25.850 -15.089   3.297  0.00  0.00    -0.010 A 
ATOM     12  C   LIG    1       24.641 -14.876   3.975  0.00  0.00    +0.007 A 
ATOM     13  C   LIG    1       23.952 -13.672   3.834  0.00  0.00    +0.000 A 
ATOM     14  C   LIG    1       24.461 -12.668   3.014  0.00  0.00    +0.000 A 
ATOM     15  C   LIG    1       25.659 -12.869   2.331  0.00  0.00    +0.000 A 
ATOM     16  C   LIG    1       26.347 -14.076   2.466  0.00  0.00    +0.007 A 
ENDBRANCH  10  11
ENDBRANCH   9  10
ENDBRANCH   2   9
TORSDOF 4
ENDMDL
MODEL 5
REMARK VINA RESULT:      -6.4      1.620      2.668
REMARK  Name = *****
REMARK                            x       y       z     vdW  Elec       q    Type
REMARK                         _______ _______ _______ _____ _____    ______ ____
ROOT
ATOM      1  O   LIG    1       22.457 -15.177   5.506  0.00  0.00    -0.245 OA
ATOM      2  C   LIG    1       23.119 -15.568   4.564  0.00  0.00    +0.340 C 
ENDROOT
BRANCH   2   3
ATOM      3  C   LIG    1       24.162 -14.744   3.894  0.00  0.00    +0.059 A 
ATOM      4  C   LIG    1       23.831 -13.434   3.513  0.00  0.00    +0.015 A 
ATOM      5  C   LIG    1       24.770 -12.636   2.854  0.00  0.00    +0.001 A 
ATOM      6  C   LIG    1       26.041 -13.138   2.578  0.00  0.00    +0.000 A 
ATOM      7  C   LIG    1       26.384 -14.430   2.974  0.00  0.00    +0.001 A 
ATOM      8  C   LIG    1       25.447 -15.231   3.632  0.00  0.00    +0.015 A 
ENDBRANCH   2   3
BRANCH   2   9
ATOM      9  O   LIG    1       23.007 -16.769   3.939  0.00  0.00    -0.456 OA
BRANCH   9  10
ATOM     10  C   LIG    1       22.204 -17.748   4.606  0.00  0.00    +0.268 C 
BRANCH  10  11
ATOM     11  C   LIG    1       22.937 -19.064   4.660  0.00  0.00    -0.010 A 
ATOM     12  C   LIG    1       22.625 -20.015   5.643  0.00  0.00    +0.007 A 
ATOM     13  C   LIG    1       23.320 -21.223   5.707  0.00  0.00    +0.000 A 
ATOM     14  C   LIG    1       24.335 -21.494   4.792  0.00  0.00    +0.000 A 
ATOM     15  C   LIG    1       24.658 -20.555   3.814  0.00  0.00    +0.000 A 
ATOM     16  C   LIG    1       23.967 -19.344   3.751  0.00  0.00    +0.007 A 
ENDBRANCH  10  11
ENDBRANCH   9  10
ENDBRANCH   2   9
TORSDOF 4
ENDMDL
MODEL 6
REMARK VINA RESULT:      -6.2      1.220      6.231
REMARK  Name = *****
REMARK                            x       y       z     vdW  Elec       q    Type
REMARK                         _______ _______ _______ _____ _____    ______ ____
ROOT
ATOM      1  O   LIG    1       25.376 -19.737   2.480  0.00  0.00    -0.245 OA
ATOM      2  C   LIG    1       25.015 -19.161   3.490  0.00  0.00    +0.340 C 
ENDROOT
BRANCH   2   3
ATOM      3  C   LIG    1       24.588 -19.866   4.729  0.00  0.00    +0.059 A 
ATOM      4  C   LIG    1       23.213 -20.003   4.976  0.00  0.00    +0.015 A 
ATOM      5  C   LIG    1       22.768 -20.631   6.143  0.00  0.00    +0.001 A 
ATOM      6  C   LIG    1       23.691 -21.129   7.062  0.00  0.00    +0.000 A 
ATOM      7  C   LIG    1       25.058 -21.018   6.812  0.00  0.00    +0.001 A 
ATOM      8  C   LIG    1       25.506 -20.389   5.647  0.00  0.00    +0.015 A 
ENDBRANCH   2   3
BRANCH   2   9
ATOM      9  O   LIG    1       24.895 -17.819   3.657  0.00  0.00    -0.456 OA
BRANCH   9  10
ATOM     10  C   LIG    1       26.052 -17.042   3.328  0.00  0.00    +0.268 C 
BRANCH  10  11
ATOM     11  C   LIG    1       25.704 -15.575   3.334  0.00  0.00    -0.010 A 
ATOM     12  C   LIG    1       24.512 -15.127   3.921  0.00  0.00    +0.007 A 
ATOM     13  C   LIG    1       24.179 -13.772   3.905  0.00  0.00    +0.000 A 
ATOM     14  C   LIG    1       25.031 -12.851   3.300  0.00  0.00    +0.000 A 
ATOM     15  C   LIG    1       26.216 -13.285   2.709  0.00  0.00    +0.000 A 
ATOM     16  C   LIG    1       26.549 -14.640   2.720  0.00  0.00    +0.007 A 
ENDBRANCH  10  11
ENDBRANCH   9  10
ENDBRANCH   2   9
TORSDOF 4
ENDMDL
MODEL 7
REMARK VINA RESULT:      -5.9      1.866      6.260
REMARK  Name = *****
REMARK                            x       y       z     vdW  Elec       q    Type
REMARK                         _______ _______ _______ _____ _____    ______ ____
ROOT
ATOM      1  O   LIG    1       21.969 -16.171   5.280  0.00  0.00    -0.245 OA
ATOM      2  C   LIG    1       22.841 -16.621   4.560  0.00  0.00    +0.340 C 
ENDROOT
BRANCH   2   3
ATOM      3  C   LIG    1       23.108 -18.076   4.404  0.00  0.00    +0.059 A 
ATOM      4  C   LIG    1       22.254 -18.983   5.051  0.00  0.00    +0.015 A 
ATOM      5  C   LIG    1       22.486 -20.358   4.955  0.00  0.00    +0.001 A 
ATOM      6  C   LIG    1       23.565 -20.832   4.211  0.00  0.00    +0.000 A 
ATOM      7  C   LIG    1       24.404 -19.939   3.547  0.00  0.00    +0.001 A 
ATOM      8  C   LIG    1       24.175 -18.564   3.641  0.00  0.00    +0.015 A 
ENDBRANCH   2   3
BRANCH   2   9
ATOM      9  O   LIG    1       23.733 -15.906   3.826  0.00  0.00    -0.456 OA
BRANCH   9  10
ATOM     10  C   LIG    1       23.902 -14.537   4.209  0.00  0.00    +0.268 C 
BRANCH  10  11
ATOM     11  C   LIG    1       25.348 -14.138   4.064  0.00  0.00    -0.010 A 
ATOM     12  C   LIG    1       26.020 -14.318   2.846  0.00  0.00    +0.007 A 
ATOM     13  C   LIG    1       27.365 -13.971   2.719  0.00  0.00    +0.000 A 
ATOM     14  C   LIG    1       28.055 -13.443   3.807  0.00  0.00    +0.000 A 
ATOM     15  C   LIG    1       27.401 -13.264   5.025  0.00  0.00    +0.000 A 
ATOM     16  C   LIG    1       26.057 -13.615   5.155  0.00  0.00    +0.007 A 
ENDBRANCH  10  11
ENDBRANCH   9  10
ENDBRANCH   2   9
TORSDOF 4
ENDMDL
MODEL 8
REMARK VINA RESULT:      -5.9      1.488      6.468
REMARK  Name = *****
REMARK                            x       y       z     vdW  Elec       q    Type
REMARK                         _______ _______ _______ _____ _____    ______ ____
ROOT
ATOM      1  O   LIG    1       21.430 -17.421   4.383  0.00  0.00    -0.245 OA
ATOM      2  C   LIG    1       22.623 -17.657   4.334  0.00  0.00    +0.340 C 
ENDROOT
BRANCH   2   3
ATOM      3  C   LIG    1       23.199 -19.015   4.527  0.00  0.00    +0.059 A 
ATOM      4  C   LIG    1       22.569 -19.884   5.432  0.00  0.00    +0.015 A 
ATOM      5  C   LIG    1       23.095 -21.158   5.665  0.00  0.00    +0.001 A 
ATOM      6  C   LIG    1       24.245 -21.571   4.994  0.00  0.00    +0.000 A 
ATOM      7  C   LIG    1       24.863 -20.722   4.076  0.00  0.00    +0.001 A 
ATOM      8  C   LIG    1       24.341 -19.448   3.842  0.00  0.00    +0.015 A 
ENDBRANCH   2   3
BRANCH   2   9
ATOM      9  O   LIG    1       23.619 -16.754   4.148  0.00  0.00    -0.456 OA
BRANCH   9  10
ATOM     10  C   LIG    1       23.297 -15.394   4.458  0.00  0.00    +0.268 C 
BRANCH  10  11
ATOM     11  C   LIG    1       24.262 -14.466   3.765  0.00  0.00    -0.010 A 
ATOM     12  C   LIG    1       23.815 -13.260   3.206  0.00  0.00    +0.007 A 
ATOM     13  C   LIG    1       24.703 -12.412   2.544  0.00  0.00    +0.000 A 
ATOM     14  C   LIG    1       26.047 -12.761   2.430  0.00  0.00    +0.000 A 
ATOM     15  C   LIG    1       26.503 -13.960   2.976  0.00  0.00    +0.000 A 
ATOM     16  C   LIG    1       25.614 -14.811   3.635  0.00  0.00    +0.007 A 
ENDBRANCH  10  11
ENDBRANCH   9  10
ENDBRANCH   2   9
TORSDOF 4
ENDMDL
MODEL 9
REMARK VINA RESULT:      -5.8      1.758      2.763
REMARK  Name = *****
REMARK                            x       y       z     vdW  Elec       q    Type
REMARK                         _______ _______ _______ _____ _____    ______ ____
ROOT
ATOM      1  O   LIG    1       23.116 -14.191   4.013  0.00  0.00    -0.245 OA
ATOM      2  C   LIG    1       24.121 -14.876   4.028  0.00  0.00    +0.340 C 
ENDROOT
BRANCH   2   3
ATOM      3  C   LIG    1       25.499 -14.315   4.001  0.00  0.00    +0.059 A 
ATOM      4  C   LIG    1       26.221 -14.380   2.799  0.00  0.00    +0.015 A 
ATOM      5  C   LIG    1       27.529 -13.892   2.738  0.00  0.00    +0.001 A 
ATOM      6  C   LIG    1       28.118 -13.334   3.871  0.00  0.00    +0.000 A 
ATOM      7  C   LIG    1       27.400 -13.246   5.063  0.00  0.00    +0.001 A 
ATOM      8  C   LIG    1       26.092 -13.733   5.127  0.00  0.00    +0.015 A 
ENDBRANCH   2   3
BRANCH   2   9
ATOM      9  O   LIG    1       24.174 -16.234   4.027  0.00  0.00    -0.456 OA
BRANCH   9  10
ATOM     10  C   LIG    1       22.927 -16.909   4.218  0.00  0.00    +0.268 C 
BRANCH  10  11
ATOM     11  C   LIG    1       23.153 -18.397   4.291  0.00  0.00    -0.010 A 
ATOM     12  C   LIG    1       22.349 -19.202   5.112  0.00  0.00    +0.007 A 
ATOM     13  C   LIG    1       22.575 -20.576   5.197  0.00  0.00    +0.000 A 
ATOM     14  C   LIG    1       23.606 -21.161   4.467  0.00  0.00    +0.000 A 
ATOM     15  C   LIG    1       24.416 -20.371   3.652  0.00  0.00    +0.000 A 
ATOM     16  C   LIG    1       24.195 -18.996   3.569  0.00  0.00    +0.007 A 
ENDBRANCH  10  11
ENDBRANCH   9  10
ENDBRANCH   2   9
TORSDOF 4
ENDMDL
