MODEL 1
REMARK VINA RESULT:       6.8      0.000      0.000
REMARK  Name = *****
REMARK                            x       y       z     vdW  Elec       q    Type
REMARK                         _______ _______ _______ _____ _____    ______ ____
ROOT
ATOM      1  C   LIG    1       23.855 -16.904   4.078  0.00  0.00    +0.062 A 
ATOM      2  C   LIG    1       22.622 -16.638   4.725  0.00  0.00    +0.131 A 
ATOM      3  C   LIG    1       21.663 -17.674   4.813  0.00  0.00    +0.048 A 
ATOM      4  C   LIG    1       21.923 -18.957   4.348  0.00  0.00    +0.032 A 
ATOM      5  C   LIG    1       23.129 -19.222   3.728  0.00  0.00    +0.106 A 
ATOM      6  C   LIG    1       24.076 -18.205   3.558  0.00  0.00    +0.043 A 
ENDROOT
BRANCH   1  13
ATOM      7  C   LIG    1       25.932 -12.650   2.851  0.00  0.00    +0.132 A 
ATOM      8  N   LIG    1       25.889 -13.955   3.303  0.00  0.00    -0.210 N 
ATOM      9  C   LIG    1       27.170 -14.324   3.597  0.00  0.00    +0.152 A 
ATOM     10  C   LIG    1       27.432 -15.635   4.079  0.00  0.00    +0.278 C 
ATOM     11  N   LIG    1       26.287 -16.395   4.235  0.00  0.00    -0.304 N 
ATOM     12  H   LIG    1       26.426 -17.336   4.582  0.00  0.00    +0.171 HD
ATOM     13  C   LIG    1       25.022 -15.951   3.906  0.00  0.00    +0.165 C 
ATOM     14  O   LIG    1       28.542 -16.085   4.335  0.00  0.00    -0.266 OA
ATOM     15  C   LIG    1       27.953 -13.220   3.334  0.00  0.00    +0.071 A 
ATOM     16  C   LIG    1       29.412 -13.012   3.468  0.00  0.00    +0.068 C 
ATOM     17  N   LIG    1       24.799 -14.753   3.439  0.00  0.00    -0.146 NA
ATOM     18  N   LIG    1       27.167 -12.185   2.895  0.00  0.00    -0.235 NA
BRANCH   7  19
ATOM     19  C   LIG    1       24.728 -11.900   2.379  0.00  0.00    +0.076 C 
BRANCH  19  21
ATOM     20  C   LIG    1       23.917 -11.575   4.794  0.00  0.00    +0.004 C 
ATOM     21  C   LIG    1       23.549 -11.954   3.363  0.00  0.00    +0.004 C 
ENDBRANCH  19  21
ENDBRANCH   7  19
ENDBRANCH   1  13
BRANCH   5  22
ATOM     22  S   LIG    1       23.447 -20.886   3.178  0.00  0.00    +0.061 S 
ATOM     23  O   LIG    1       24.318 -20.795   2.026  0.00  0.00    -0.153 OA
ATOM     24  O   LIG    1       22.190 -21.564   3.116  0.00  0.00    -0.153 OA
BRANCH  22  25
ATOM     25  N   LIG    1       24.372 -21.525   4.461  0.00  0.00    -0.174 NA
ATOM     26  C   LIG    1       25.854 -21.506   4.203  0.00  0.00    +0.124 C 
ATOM     27  C   LIG    1       26.522 -20.190   4.648  0.00  0.00    +0.101 C 
ATOM     28  N   LIG    1       26.251 -19.795   6.048  0.00  0.00    -0.300 NA
ATOM     29  C   LIG    1       24.783 -19.763   6.238  0.00  0.00    +0.101 C 
ATOM     30  C   LIG    1       24.068 -21.076   5.857  0.00  0.00    +0.124 C 
BRANCH  28  31
ATOM     31  C   LIG    1       26.892 -20.650   7.058  0.00  0.00    +0.081 C 
ATOM     32  C   LIG    1       28.365 -20.939   6.792  0.00  0.00    +0.020 C 
ENDBRANCH  28  31
ENDBRANCH  22  25
ENDBRANCH   5  22
BRANCH   2  33
ATOM     33  O   LIG    1       22.400 -15.396   5.285  0.00  0.00    -0.491 OA
BRANCH  33  34
ATOM     34  C   LIG    1       21.946 -15.378   6.654  0.00  0.00    +0.226 C 
ATOM     35  C   LIG    1       21.142 -14.124   6.929  0.00  0.00    +0.048 C 
ENDBRANCH  33  34
ENDBRANCH   2  33
TORSDOF 8
ENDMDL
