MODEL 1
REMARK VINA RESULT:     -10.6      0.000      0.000
REMARK  Name = *****
REMARK                            x       y       z     vdW  Elec       q    Type
REMARK                         _______ _______ _______ _____ _____    ______ ____
ROOT
ATOM      1  C   LIG    1       28.084 -20.957   7.083  0.00  0.00    +0.032 A 
ATOM      2  C   LIG    1       29.064 -21.441   7.956  0.00  0.00    +0.100 A 
ATOM      3  C   LIG    1       30.304 -20.787   8.017  0.00  0.00    +0.318 A 
ATOM      4  C   LIG    1       30.586 -19.685   7.218  0.00  0.00    +0.237 A 
ATOM      5  C   LIG    1       29.606 -19.223   6.342  0.00  0.00    +0.166 A 
ATOM      6  C   LIG    1       28.364 -19.849   6.263  0.00  0.00    +0.061 A 
ENDROOT
BRANCH   3   7
ATOM      7  N   LIG    1       31.307 -21.305   8.921  0.00  0.00    +0.084 N 
ATOM      8  O   LIG    1       31.189 -22.490   9.261  0.00  0.00    -0.576 OA
ATOM      9  O   LIG    1       32.146 -20.507   9.360  0.00  0.00    +0.042 OA
ENDBRANCH   3   7
BRANCH   1  10
ATOM     10  C   LIG    1       26.765 -21.625   6.917  0.00  0.00    +0.194 C 
ATOM     11  O   LIG    1       26.640 -22.773   7.342  0.00  0.00    -0.287 OA
BRANCH  10  16
ATOM     12  C   LIG    1       22.087 -19.190   4.507  0.00  0.00    +0.044 C 
ATOM     13  C   LIG    1       23.318 -19.788   5.126  0.00  0.00    -0.050 A 
ATOM     14  C   LIG    1       23.267 -20.313   6.422  0.00  0.00    +0.004 A 
ATOM     15  C   LIG    1       24.400 -20.899   6.993  0.00  0.00    +0.012 A 
ATOM     16  C   LIG    1       25.599 -20.966   6.273  0.00  0.00    +0.022 A 
ATOM     17  C   LIG    1       25.645 -20.477   4.964  0.00  0.00    +0.012 A 
ATOM     18  C   LIG    1       24.510 -19.886   4.398  0.00  0.00    +0.004 A 
ENDBRANCH  10  16
ENDBRANCH   1  10
BRANCH   4  19
ATOM     19  O   LIG    1       31.800 -19.062   7.233  0.00  0.00    -0.499 OA
ATOM     20  H   LIG    1       32.418 -19.694   7.655  0.00  0.00    +0.292 HD
ENDBRANCH   4  19
BRANCH   5  21
ATOM     21  O   LIG    1       29.919 -18.145   5.560  0.00  0.00    -0.503 OA
ATOM     22  H   LIG    1       30.402 -18.457   4.773  0.00  0.00    +0.292 HD
ENDBRANCH   5  21
TORSDOF 5
ENDMDL
MODEL 2
REMARK VINA RESULT:      -9.8      2.088      2.889
REMARK  Name = *****
REMARK                            x       y       z     vdW  Elec       q    Type
REMARK                         _______ _______ _______ _____ _____    ______ ____
ROOT
ATOM      1  C   LIG    1       27.530 -20.727   7.779  0.00  0.00    +0.032 A 
ATOM      2  C   LIG    1       28.659 -21.126   8.503  0.00  0.00    +0.100 A 
ATOM      3  C   LIG    1       29.925 -20.699   8.077  0.00  0.00    +0.318 A 
ATOM      4  C   LIG    1       30.085 -19.907   6.946  0.00  0.00    +0.237 A 
ATOM      5  C   LIG    1       28.954 -19.529   6.226  0.00  0.00    +0.166 A 
ATOM      6  C   LIG    1       27.682 -19.934   6.627  0.00  0.00    +0.061 A 
ENDROOT
BRANCH   3   7
ATOM      7  N   LIG    1       31.082 -21.126   8.834  0.00  0.00    +0.084 N 
ATOM      8  O   LIG    1       31.106 -22.313   9.186  0.00  0.00    -0.576 OA
ATOM      9  O   LIG    1       31.906 -20.260   9.153  0.00  0.00    +0.042 OA
ENDBRANCH   3   7
BRANCH   1  10
ATOM     10  C   LIG    1       26.157 -21.182   8.130  0.00  0.00    +0.194 C 
ATOM     11  O   LIG    1       25.509 -20.504   8.925  0.00  0.00    -0.287 OA
BRANCH  10  16
ATOM     12  C   LIG    1       23.916 -25.981   5.771  0.00  0.00    +0.044 C 
ATOM     13  C   LIG    1       24.474 -24.743   6.412  0.00  0.00    -0.050 A 
ATOM     14  C   LIG    1       25.850 -24.629   6.638  0.00  0.00    +0.004 A 
ATOM     15  C   LIG    1       26.380 -23.467   7.206  0.00  0.00    +0.012 A 
ATOM     16  C   LIG    1       25.538 -22.404   7.556  0.00  0.00    +0.022 A 
ATOM     17  C   LIG    1       24.167 -22.498   7.297  0.00  0.00    +0.012 A 
ATOM     18  C   LIG    1       23.639 -23.665   6.733  0.00  0.00    +0.004 A 
ENDBRANCH  10  16
ENDBRANCH   1  10
BRANCH   4  19
ATOM     19  O   LIG    1       31.312 -19.517   6.493  0.00  0.00    -0.499 OA
ATOM     20  H   LIG    1       31.153 -18.715   5.953  0.00  0.00    +0.292 HD
ENDBRANCH   4  19
BRANCH   5  21
ATOM     21  O   LIG    1       29.145 -18.760   5.111  0.00  0.00    -0.503 OA
ATOM     22  H   LIG    1       29.076 -17.821   5.360  0.00  0.00    +0.292 HD
ENDBRANCH   5  21
TORSDOF 5
ENDMDL
MODEL 3
REMARK VINA RESULT:      -9.7      2.076      2.803
REMARK  Name = *****
REMARK                            x       y       z     vdW  Elec       q    Type
REMARK                         _______ _______ _______ _____ _____    ______ ____
ROOT
ATOM      1  C   LIG    1       27.578 -20.717   7.671  0.00  0.00    +0.032 A 
ATOM      2  C   LIG    1       28.698 -21.114   8.411  0.00  0.00    +0.100 A 
ATOM      3  C   LIG    1       29.964 -20.643   8.034  0.00  0.00    +0.318 A 
ATOM      4  C   LIG    1       30.135 -19.810   6.934  0.00  0.00    +0.237 A 
ATOM      5  C   LIG    1       29.014 -19.434   6.198  0.00  0.00    +0.166 A 
ATOM      6  C   LIG    1       27.742 -19.882   6.550  0.00  0.00    +0.061 A 
ENDROOT
BRANCH   3   7
ATOM      7  N   LIG    1       31.110 -21.069   8.807  0.00  0.00    +0.084 N 
ATOM      8  O   LIG    1       31.131 -22.255   9.161  0.00  0.00    -0.576 OA
ATOM      9  O   LIG    1       31.930 -20.201   9.137  0.00  0.00    +0.042 OA
ENDBRANCH   3   7
BRANCH   1  10
ATOM     10  C   LIG    1       26.209 -21.214   7.969  0.00  0.00    +0.194 C 
ATOM     11  O   LIG    1       25.504 -20.550   8.727  0.00  0.00    -0.287 OA
BRANCH  10  16
ATOM     12  C   LIG    1       23.884 -26.071   5.818  0.00  0.00    +0.044 C 
ATOM     13  C   LIG    1       24.507 -24.809   6.343  0.00  0.00    -0.050 A 
ATOM     14  C   LIG    1       23.697 -23.732   6.721  0.00  0.00    +0.004 A 
ATOM     15  C   LIG    1       24.268 -22.567   7.239  0.00  0.00    +0.012 A 
ATOM     16  C   LIG    1       25.657 -22.464   7.386  0.00  0.00    +0.022 A 
ATOM     17  C   LIG    1       26.467 -23.552   7.045  0.00  0.00    +0.012 A 
ATOM     18  C   LIG    1       25.892 -24.716   6.520  0.00  0.00    +0.004 A 
ENDBRANCH  10  16
ENDBRANCH   1  10
BRANCH   4  19
ATOM     19  O   LIG    1       31.363 -19.376   6.528  0.00  0.00    -0.499 OA
ATOM     20  H   LIG    1       31.990 -20.091   6.767  0.00  0.00    +0.292 HD
ENDBRANCH   4  19
BRANCH   5  21
ATOM     21  O   LIG    1       29.215 -18.624   5.113  0.00  0.00    -0.503 OA
ATOM     22  H   LIG    1       28.361 -18.239   4.845  0.00  0.00    +0.292 HD
ENDBRANCH   5  21
TORSDOF 5
ENDMDL
MODEL 4
REMARK VINA RESULT:      -9.7      3.883      6.448
REMARK  Name = *****
REMARK                            x       y       z     vdW  Elec       q    Type
REMARK                         _______ _______ _______ _____ _____    ______ ____
ROOT
ATOM      1  C   LIG    1       25.378 -22.748   7.535  0.00  0.00    +0.032 A 
ATOM      2  C   LIG    1       26.075 -23.912   7.192  0.00  0.00    +0.100 A 
ATOM      3  C   LIG    1       25.378 -24.968   6.587  0.00  0.00    +0.318 A 
ATOM      4  C   LIG    1       24.012 -24.893   6.339  0.00  0.00    +0.237 A 
ATOM      5  C   LIG    1       23.328 -23.734   6.699  0.00  0.00    +0.166 A 
ATOM      6  C   LIG    1       23.994 -22.666   7.298  0.00  0.00    +0.061 A 
ENDROOT
BRANCH   3   7
ATOM      7  N   LIG    1       26.113 -26.166   6.245  0.00  0.00    +0.084 N 
ATOM      8  O   LIG    1       26.386 -26.326   5.048  0.00  0.00    -0.576 OA
ATOM      9  O   LIG    1       26.330 -26.981   7.152  0.00  0.00    +0.042 OA
ENDBRANCH   3   7
BRANCH   1  10
ATOM     10  C   LIG    1       26.030 -21.605   8.230  0.00  0.00    +0.194 C 
ATOM     11  O   LIG    1       25.689 -21.360   9.386  0.00  0.00    -0.287 OA
BRANCH  10  16
ATOM     12  C   LIG    1       30.070 -18.411   5.567  0.00  0.00    +0.044 C 
ATOM     13  C   LIG    1       29.019 -19.210   6.283  0.00  0.00    -0.050 A 
ATOM     14  C   LIG    1       27.881 -19.646   5.596  0.00  0.00    +0.004 A 
ATOM     15  C   LIG    1       26.914 -20.416   6.247  0.00  0.00    +0.012 A 
ATOM     16  C   LIG    1       27.074 -20.760   7.595  0.00  0.00    +0.022 A 
ATOM     17  C   LIG    1       28.228 -20.360   8.275  0.00  0.00    +0.012 A 
ATOM     18  C   LIG    1       29.192 -19.583   7.621  0.00  0.00    +0.004 A 
ENDBRANCH  10  16
ENDBRANCH   1  10
BRANCH   4  19
ATOM     19  O   LIG    1       23.310 -25.926   5.790  0.00  0.00    -0.499 OA
ATOM     20  H   LIG    1       22.627 -26.165   6.451  0.00  0.00    +0.292 HD
ENDBRANCH   4  19
BRANCH   5  21
ATOM     21  O   LIG    1       21.983 -23.695   6.454  0.00  0.00    -0.503 OA
ATOM     22  H   LIG    1       21.545 -24.379   6.993  0.00  0.00    +0.292 HD
ENDBRANCH   5  21
TORSDOF 5
ENDMDL
MODEL 5
REMARK VINA RESULT:      -9.6      1.762      2.460
REMARK  Name = *****
REMARK                            x       y       z     vdW  Elec       q    Type
REMARK                         _______ _______ _______ _____ _____    ______ ____
ROOT
ATOM      1  C   LIG    1       28.952 -19.884   7.031  0.00  0.00    +0.032 A 
ATOM      2  C   LIG    1       29.464 -21.015   7.676  0.00  0.00    +0.100 A 
ATOM      3  C   LIG    1       30.574 -20.871   8.522  0.00  0.00    +0.318 A 
ATOM      4  C   LIG    1       31.185 -19.638   8.719  0.00  0.00    +0.237 A 
ATOM      5  C   LIG    1       30.674 -18.523   8.060  0.00  0.00    +0.166 A 
ATOM      6  C   LIG    1       29.570 -18.634   7.216  0.00  0.00    +0.061 A 
ENDROOT
BRANCH   3   7
ATOM      7  N   LIG    1       31.093 -22.052   9.176  0.00  0.00    +0.084 N 
ATOM      8  O   LIG    1       30.431 -22.499  10.121  0.00  0.00    -0.576 OA
ATOM      9  O   LIG    1       32.200 -22.468   8.807  0.00  0.00    +0.042 OA
ENDBRANCH   3   7
BRANCH   1  10
ATOM     10  C   LIG    1       27.814 -19.959   6.075  0.00  0.00    +0.194 C 
ATOM     11  O   LIG    1       27.912 -19.350   5.011  0.00  0.00    -0.287 OA
BRANCH  10  16
ATOM     12  C   LIG    1       22.885 -22.858   7.030  0.00  0.00    +0.044 C 
ATOM     13  C   LIG    1       24.181 -22.140   6.786  0.00  0.00    -0.050 A 
ATOM     14  C   LIG    1       24.356 -21.386   5.620  0.00  0.00    +0.004 A 
ATOM     15  C   LIG    1       25.548 -20.690   5.400  0.00  0.00    +0.012 A 
ATOM     16  C   LIG    1       26.580 -20.740   6.345  0.00  0.00    +0.022 A 
ATOM     17  C   LIG    1       26.395 -21.461   7.529  0.00  0.00    +0.012 A 
ATOM     18  C   LIG    1       25.202 -22.162   7.743  0.00  0.00    +0.004 A 
ENDBRANCH  10  16
ENDBRANCH   1  10
BRANCH   4  19
ATOM     19  O   LIG    1       32.290 -19.486   9.505  0.00  0.00    -0.499 OA
ATOM     20  H   LIG    1       32.386 -18.522   9.645  0.00  0.00    +0.292 HD
ENDBRANCH   4  19
BRANCH   5  21
ATOM     21  O   LIG    1       31.305 -17.326   8.263  0.00  0.00    -0.503 OA
ATOM     22  H   LIG    1       31.571 -17.266   9.199  0.00  0.00    +0.292 HD
ENDBRANCH   5  21
TORSDOF 5
ENDMDL
MODEL 6
REMARK VINA RESULT:      -9.1      2.060      3.308
REMARK  Name = *****
REMARK                            x       y       z     vdW  Elec       q    Type
REMARK                         _______ _______ _______ _____ _____    ______ ____
ROOT
ATOM      1  C   LIG    1       29.068 -19.586   6.896  0.00  0.00    +0.032 A 
ATOM      2  C   LIG    1       29.472 -18.382   7.485  0.00  0.00    +0.100 A 
ATOM      3  C   LIG    1       30.560 -18.390   8.371  0.00  0.00    +0.318 A 
ATOM      4  C   LIG    1       31.231 -19.565   8.690  0.00  0.00    +0.237 A 
ATOM      5  C   LIG    1       30.810 -20.758   8.108  0.00  0.00    +0.166 A 
ATOM      6  C   LIG    1       29.735 -20.781   7.221  0.00  0.00    +0.061 A 
ENDROOT
BRANCH   3   7
ATOM      7  N   LIG    1       30.960 -17.138   8.975  0.00  0.00    +0.084 N 
ATOM      8  O   LIG    1       32.114 -16.754   8.744  0.00  0.00    -0.576 OA
ATOM      9  O   LIG    1       30.158 -16.596   9.747  0.00  0.00    +0.042 OA
ENDBRANCH   3   7
BRANCH   1  10
ATOM     10  C   LIG    1       27.891 -19.674   5.991  0.00  0.00    +0.194 C 
ATOM     11  O   LIG    1       27.969 -19.140   4.886  0.00  0.00    -0.287 OA
BRANCH  10  16
ATOM     12  C   LIG    1       22.903 -22.338   7.271  0.00  0.00    +0.044 C 
ATOM     13  C   LIG    1       24.214 -21.678   6.956  0.00  0.00    -0.050 A 
ATOM     14  C   LIG    1       24.534 -21.349   5.634  0.00  0.00    +0.004 A 
ATOM     15  C   LIG    1       25.738 -20.706   5.337  0.00  0.00    +0.012 A 
ATOM     16  C   LIG    1       26.639 -20.383   6.360  0.00  0.00    +0.022 A 
ATOM     17  C   LIG    1       26.306 -20.675   7.686  0.00  0.00    +0.012 A 
ATOM     18  C   LIG    1       25.101 -21.324   7.980  0.00  0.00    +0.004 A 
ENDBRANCH  10  16
ENDBRANCH   1  10
BRANCH   4  19
ATOM     19  O   LIG    1       32.265 -19.598   9.581  0.00  0.00    -0.499 OA
ATOM     20  H   LIG    1       32.336 -20.531   9.871  0.00  0.00    +0.292 HD
ENDBRANCH   4  19
BRANCH   5  21
ATOM     21  O   LIG    1       31.482 -21.899   8.452  0.00  0.00    -0.503 OA
ATOM     22  H   LIG    1       32.433 -21.768   8.279  0.00  0.00    +0.292 HD
ENDBRANCH   5  21
TORSDOF 5
ENDMDL
MODEL 7
REMARK VINA RESULT:      -9.1      2.522      3.314
REMARK  Name = *****
REMARK                            x       y       z     vdW  Elec       q    Type
REMARK                         _______ _______ _______ _____ _____    ______ ____
ROOT
ATOM      1  C   LIG    1       26.861 -20.976   7.467  0.00  0.00    +0.032 A 
ATOM      2  C   LIG    1       27.939 -21.150   8.343  0.00  0.00    +0.100 A 
ATOM      3  C   LIG    1       29.167 -20.544   8.039  0.00  0.00    +0.318 A 
ATOM      4  C   LIG    1       29.343 -19.795   6.882  0.00  0.00    +0.237 A 
ATOM      5  C   LIG    1       28.266 -19.642   6.011  0.00  0.00    +0.166 A 
ATOM      6  C   LIG    1       27.033 -20.227   6.288  0.00  0.00    +0.061 A 
ENDROOT
BRANCH   3   7
ATOM      7  N   LIG    1       30.271 -20.740   8.953  0.00  0.00    +0.084 N 
ATOM      8  O   LIG    1       30.862 -19.720   9.334  0.00  0.00    -0.576 OA
ATOM      9  O   LIG    1       30.600 -21.905   9.208  0.00  0.00    +0.042 OA
ENDBRANCH   3   7
BRANCH   1  10
ATOM     10  C   LIG    1       25.543 -21.629   7.687  0.00  0.00    +0.194 C 
ATOM     11  O   LIG    1       24.691 -21.013   8.325  0.00  0.00    -0.287 OA
BRANCH  10  16
ATOM     12  C   LIG    1       24.060 -26.885   5.740  0.00  0.00    +0.044 C 
ATOM     13  C   LIG    1       24.469 -25.521   6.215  0.00  0.00    -0.050 A 
ATOM     14  C   LIG    1       23.509 -24.514   6.365  0.00  0.00    +0.004 A 
ATOM     15  C   LIG    1       23.877 -23.251   6.837  0.00  0.00    +0.012 A 
ATOM     16  C   LIG    1       25.211 -22.979   7.163  0.00  0.00    +0.022 A 
ATOM     17  C   LIG    1       26.167 -23.994   7.050  0.00  0.00    +0.012 A 
ATOM     18  C   LIG    1       25.796 -25.256   6.572  0.00  0.00    +0.004 A 
ENDBRANCH  10  16
ENDBRANCH   1  10
BRANCH   4  19
ATOM     19  O   LIG    1       30.541 -19.233   6.548  0.00  0.00    -0.499 OA
ATOM     20  H   LIG    1       30.339 -18.311   6.286  0.00  0.00    +0.292 HD
ENDBRANCH   4  19
BRANCH   5  21
ATOM     21  O   LIG    1       28.474 -18.909   4.874  0.00  0.00    -0.503 OA
ATOM     22  H   LIG    1       27.829 -19.187   4.199  0.00  0.00    +0.292 HD
ENDBRANCH   5  21
TORSDOF 5
ENDMDL
MODEL 8
REMARK VINA RESULT:      -9.1      5.632      7.675
REMARK  Name = *****
REMARK                            x       y       z     vdW  Elec       q    Type
REMARK                         _______ _______ _______ _____ _____    ______ ____
ROOT
ATOM      1  C   LIG    1       25.238 -25.106   6.595  0.00  0.00    +0.032 A 
ATOM      2  C   LIG    1       25.983 -24.063   7.159  0.00  0.00    +0.100 A 
ATOM      3  C   LIG    1       25.328 -22.873   7.510  0.00  0.00    +0.318 A 
ATOM      4  C   LIG    1       23.967 -22.698   7.292  0.00  0.00    +0.237 A 
ATOM      5  C   LIG    1       23.241 -23.738   6.717  0.00  0.00    +0.166 A 
ATOM      6  C   LIG    1       23.862 -24.934   6.362  0.00  0.00    +0.061 A 
ENDROOT
BRANCH   3   7
ATOM      7  N   LIG    1       26.115 -21.805   8.086  0.00  0.00    +0.084 N 
ATOM      8  O   LIG    1       27.165 -21.510   7.499  0.00  0.00    -0.576 OA
ATOM      9  O   LIG    1       25.734 -21.335   9.166  0.00  0.00    +0.042 OA
ENDBRANCH   3   7
BRANCH   1  10
ATOM     10  C   LIG    1       25.864 -26.378   6.144  0.00  0.00    +0.194 C 
ATOM     11  O   LIG    1       26.865 -26.310   5.433  0.00  0.00    -0.287 OA
BRANCH  10  16
ATOM     12  C   LIG    1       23.998 -31.633   7.730  0.00  0.00    +0.044 C 
ATOM     13  C   LIG    1       24.444 -30.261   7.313  0.00  0.00    -0.050 A 
ATOM     14  C   LIG    1       25.223 -29.484   8.179  0.00  0.00    +0.004 A 
ATOM     15  C   LIG    1       25.668 -28.220   7.786  0.00  0.00    +0.012 A 
ATOM     16  C   LIG    1       25.340 -27.716   6.521  0.00  0.00    +0.022 A 
ATOM     17  C   LIG    1       24.595 -28.504   5.638  0.00  0.00    +0.012 A 
ATOM     18  C   LIG    1       24.146 -29.768   6.038  0.00  0.00    +0.004 A 
ENDBRANCH  10  16
ENDBRANCH   1  10
BRANCH   4  19
ATOM     19  O   LIG    1       23.322 -21.533   7.588  0.00  0.00    -0.499 OA
ATOM     20  H   LIG    1       22.426 -21.793   7.888  0.00  0.00    +0.292 HD
ENDBRANCH   4  19
BRANCH   5  21
ATOM     21  O   LIG    1       21.905 -23.531   6.503  0.00  0.00    -0.503 OA
ATOM     22  H   LIG    1       21.398 -24.159   7.051  0.00  0.00    +0.292 HD
ENDBRANCH   5  21
TORSDOF 5
ENDMDL
MODEL 9
REMARK VINA RESULT:      -9.0      6.304      8.386
REMARK  Name = *****
REMARK                            x       y       z     vdW  Elec       q    Type
REMARK                         _______ _______ _______ _____ _____    ______ ____
ROOT
ATOM      1  C   LIG    1       25.350 -27.601   6.441  0.00  0.00    +0.032 A 
ATOM      2  C   LIG    1       25.863 -27.917   7.704  0.00  0.00    +0.100 A 
ATOM      3  C   LIG    1       25.520 -29.145   8.289  0.00  0.00    +0.318 A 
ATOM      4  C   LIG    1       24.671 -30.043   7.653  0.00  0.00    +0.237 A 
ATOM      5  C   LIG    1       24.156 -29.710   6.403  0.00  0.00    +0.166 A 
ATOM      6  C   LIG    1       24.481 -28.499   5.794  0.00  0.00    +0.061 A 
ENDROOT
BRANCH   3   7
ATOM      7  N   LIG    1       26.055 -29.452   9.597  0.00  0.00    +0.084 N 
ATOM      8  O   LIG    1       25.231 -29.653  10.500  0.00  0.00    -0.576 OA
ATOM      9  O   LIG    1       27.284 -29.397   9.738  0.00  0.00    +0.042 OA
ENDBRANCH   3   7
BRANCH   1  10
ATOM     10  C   LIG    1       25.618 -26.298   5.776  0.00  0.00    +0.194 C 
ATOM     11  O   LIG    1       26.303 -26.299   4.754  0.00  0.00    -0.287 OA
BRANCH  10  16
ATOM     12  C   LIG    1       23.391 -21.272   7.619  0.00  0.00    +0.044 C 
ATOM     13  C   LIG    1       23.985 -22.577   7.175  0.00  0.00    -0.050 A 
ATOM     14  C   LIG    1       23.153 -23.619   6.751  0.00  0.00    +0.004 A 
ATOM     15  C   LIG    1       23.700 -24.826   6.308  0.00  0.00    +0.012 A 
ATOM     16  C   LIG    1       25.089 -25.006   6.283  0.00  0.00    +0.022 A 
ATOM     17  C   LIG    1       25.926 -23.954   6.670  0.00  0.00    +0.012 A 
ATOM     18  C   LIG    1       25.374 -22.749   7.119  0.00  0.00    +0.004 A 
ENDBRANCH  10  16
ENDBRANCH   1  10
BRANCH   4  19
ATOM     19  O   LIG    1       24.294 -31.224   8.225  0.00  0.00    -0.499 OA
ATOM     20  H   LIG    1       23.314 -31.226   8.210  0.00  0.00    +0.292 HD
ENDBRANCH   4  19
BRANCH   5  21
ATOM     21  O   LIG    1       23.313 -30.609   5.809  0.00  0.00    -0.503 OA
ATOM     22  H   LIG    1       23.799 -31.083   5.110  0.00  0.00    +0.292 HD
ENDBRANCH   5  21
TORSDOF 5
ENDMDL
