MODEL 1
REMARK VINA RESULT:      -3.8      0.000      0.000
REMARK  Name = *****
REMARK                            x       y       z     vdW  Elec       q    Type
REMARK                         _______ _______ _______ _____ _____    ______ ____
ROOT
ATOM      1  N   LIG    1       22.947 -16.813   4.404  0.00  0.00    -0.312 N 
ATOM      2  C   LIG    1       23.949 -17.628   3.961  0.00  0.00    +0.165 A 
ATOM      3  N   LIG    1       25.196 -17.286   3.611  0.00  0.00    -0.216 NA
ATOM      4  C   LIG    1       25.911 -18.377   3.263  0.00  0.00    +0.225 A 
ATOM      5  N   LIG    1       25.521 -19.673   3.259  0.00  0.00    -0.219 NA
ATOM      6  C   LIG    1       24.257 -19.964   3.642  0.00  0.00    +0.147 A 
ATOM      7  C   LIG    1       23.399 -18.905   3.986  0.00  0.00    +0.147 A 
ATOM      8  N   LIG    1       22.075 -18.862   4.364  0.00  0.00    -0.231 NA
ATOM      9  C   LIG    1       21.837 -17.589   4.614  0.00  0.00    +0.201 A 
ENDROOT
BRANCH   6  10
ATOM     10  N   LIG    1       23.874 -21.298   3.677  0.00  0.00    -0.341 N 
ATOM     11  H   LIG    1       23.048 -21.494   3.126  0.00  0.00    +0.144 HD
ATOM     12  H   LIG    1       24.661 -21.926   3.600  0.00  0.00    +0.144 HD
ENDBRANCH   6  10
BRANCH   1  13
ATOM     13  C   LIG    1       23.051 -15.386   4.649  0.00  0.00    +0.156 C 
BRANCH  13  15
ATOM     14  C   LIG    1       23.692 -13.527   3.086  0.00  0.00    +0.039 C 
ATOM     15  C   LIG    1       24.204 -14.740   3.861  0.00  0.00    +0.136 C 
BRANCH  15  16
ATOM     16  O   LIG    1       25.186 -14.318   4.815  0.00  0.00    -0.363 OA
BRANCH  16  17
ATOM     17  C   LIG    1       26.092 -13.315   4.340  0.00  0.00    +0.286 C 
BRANCH  17  18
ATOM     18  P   LIG    1       27.295 -14.087   3.252  0.00  0.00    +0.353 P 
ATOM     19  O   LIG    1       26.913 -14.301   1.835  0.00  0.00    -0.256 OA
BRANCH  18  20
ATOM     20  O   LIG    1       27.791 -15.441   3.957  0.00  0.00    -0.323 OA
ATOM     21  H   LIG    1       27.489 -16.246   3.511  0.00  0.00    +0.220 HD
ENDBRANCH  18  20
BRANCH  18  22
ATOM     22  O   LIG    1       28.625 -13.188   3.366  0.00  0.00    -0.323 OA
ATOM     23  H   LIG    1       28.967 -12.919   2.497  0.00  0.00    +0.220 HD
ENDBRANCH  18  22
ENDBRANCH  17  18
ENDBRANCH  16  17
ENDBRANCH  15  16
ENDBRANCH  13  15
ENDBRANCH   1  13
TORSDOF 8
ENDMDL
MODEL 2
REMARK VINA RESULT:      -3.8      0.882      1.962
REMARK  Name = *****
REMARK                            x       y       z     vdW  Elec       q    Type
REMARK                         _______ _______ _______ _____ _____    ______ ____
ROOT
ATOM      1  N   LIG    1       24.117 -16.894   3.941  0.00  0.00    -0.312 N 
ATOM      2  C   LIG    1       23.496 -18.071   4.247  0.00  0.00    +0.165 A 
ATOM      3  N   LIG    1       22.291 -18.245   4.806  0.00  0.00    -0.216 NA
ATOM      4  C   LIG    1       22.002 -19.559   4.918  0.00  0.00    +0.225 A 
ATOM      5  N   LIG    1       22.745 -20.621   4.528  0.00  0.00    -0.219 NA
ATOM      6  C   LIG    1       23.945 -20.386   3.949  0.00  0.00    +0.147 A 
ATOM      7  C   LIG    1       24.378 -19.056   3.818  0.00  0.00    +0.147 A 
ATOM      8  N   LIG    1       25.539 -18.496   3.329  0.00  0.00    -0.231 NA
ATOM      9  C   LIG    1       25.345 -17.194   3.411  0.00  0.00    +0.201 A 
ENDROOT
BRANCH   6  10
ATOM     10  N   LIG    1       24.685 -21.476   3.512  0.00  0.00    -0.341 N 
ATOM     11  H   LIG    1       25.257 -21.276   2.701  0.00  0.00    +0.144 HD
ATOM     12  H   LIG    1       25.101 -21.990   4.276  0.00  0.00    +0.144 HD
ENDBRANCH   6  10
BRANCH   1  13
ATOM     13  C   LIG    1       23.559 -15.563   4.105  0.00  0.00    +0.156 C 
BRANCH  13  15
ATOM     14  C   LIG    1       23.782 -13.243   3.170  0.00  0.00    +0.039 C 
ATOM     15  C   LIG    1       24.547 -14.460   3.685  0.00  0.00    +0.136 C 
BRANCH  15  16
ATOM     16  O   LIG    1       25.297 -14.095   4.850  0.00  0.00    -0.363 OA
BRANCH  16  17
ATOM     17  C   LIG    1       26.398 -13.213   4.604  0.00  0.00    +0.286 C 
BRANCH  17  18
ATOM     18  P   LIG    1       27.507 -13.985   3.421  0.00  0.00    +0.353 P 
ATOM     19  O   LIG    1       27.016 -14.186   2.036  0.00  0.00    -0.256 OA
BRANCH  18  20
ATOM     20  O   LIG    1       28.046 -15.348   4.077  0.00  0.00    -0.323 OA
ATOM     21  H   LIG    1       28.423 -15.233   4.961  0.00  0.00    +0.220 HD
ENDBRANCH  18  20
BRANCH  18  22
ATOM     22  O   LIG    1       28.849 -13.097   3.438  0.00  0.00    -0.323 OA
ATOM     23  H   LIG    1       29.423 -13.306   4.194  0.00  0.00    +0.220 HD
ENDBRANCH  18  22
ENDBRANCH  17  18
ENDBRANCH  16  17
ENDBRANCH  15  16
ENDBRANCH  13  15
ENDBRANCH   1  13
TORSDOF 8
ENDMDL
MODEL 3
REMARK VINA RESULT:      -3.7      1.937      3.472
REMARK  Name = *****
REMARK                            x       y       z     vdW  Elec       q    Type
REMARK                         _______ _______ _______ _____ _____    ______ ____
ROOT
ATOM      1  N   LIG    1       25.491 -18.653   3.759  0.00  0.00    -0.312 N 
ATOM      2  C   LIG    1       24.163 -18.777   4.052  0.00  0.00    +0.165 A 
ATOM      3  N   LIG    1       23.162 -17.958   3.704  0.00  0.00    -0.216 NA
ATOM      4  C   LIG    1       21.979 -18.435   4.146  0.00  0.00    +0.225 A 
ATOM      5  N   LIG    1       21.733 -19.578   4.827  0.00  0.00    -0.219 NA
ATOM      6  C   LIG    1       22.779 -20.379   5.134  0.00  0.00    +0.147 A 
ATOM      7  C   LIG    1       24.071 -19.967   4.766  0.00  0.00    +0.147 A 
ATOM      8  N   LIG    1       25.319 -20.517   4.966  0.00  0.00    -0.231 NA
ATOM      9  C   LIG    1       26.149 -19.704   4.342  0.00  0.00    +0.201 A 
ENDROOT
BRANCH   6  10
ATOM     10  N   LIG    1       22.518 -21.571   5.796  0.00  0.00    -0.341 N 
ATOM     11  H   LIG    1       22.753 -22.393   5.254  0.00  0.00    +0.144 HD
ATOM     12  H   LIG    1       22.796 -21.541   6.767  0.00  0.00    +0.144 HD
ENDBRANCH   6  10
BRANCH   1  13
ATOM     13  C   LIG    1       26.093 -17.617   2.939  0.00  0.00    +0.156 C 
BRANCH  13  15
ATOM     14  C   LIG    1       27.773 -16.184   4.137  0.00  0.00    +0.039 C 
ATOM     15  C   LIG    1       26.309 -16.307   3.719  0.00  0.00    +0.136 C 
BRANCH  15  16
ATOM     16  O   LIG    1       25.971 -15.228   2.840  0.00  0.00    -0.363 OA
BRANCH  16  17
ATOM     17  C   LIG    1       26.005 -13.929   3.442  0.00  0.00    +0.286 C 
BRANCH  17  18
ATOM     18  P   LIG    1       24.320 -13.369   3.709  0.00  0.00    +0.353 P 
ATOM     19  O   LIG    1       24.100 -12.259   4.668  0.00  0.00    -0.256 OA
BRANCH  18  20
ATOM     20  O   LIG    1       23.428 -14.657   4.059  0.00  0.00    -0.323 OA
ATOM     21  H   LIG    1       23.248 -15.226   3.297  0.00  0.00    +0.220 HD
ENDBRANCH  18  20
BRANCH  18  22
ATOM     22  O   LIG    1       23.747 -12.999   2.252  0.00  0.00    -0.323 OA
ATOM     23  H   LIG    1       24.452 -12.780   1.620  0.00  0.00    +0.220 HD
ENDBRANCH  18  22
ENDBRANCH  17  18
ENDBRANCH  16  17
ENDBRANCH  15  16
ENDBRANCH  13  15
ENDBRANCH   1  13
TORSDOF 8
ENDMDL
MODEL 4
REMARK VINA RESULT:      -3.5      4.163      6.305
REMARK  Name = *****
REMARK                            x       y       z     vdW  Elec       q    Type
REMARK                         _______ _______ _______ _____ _____    ______ ____
ROOT
ATOM      1  N   LIG    1       25.109 -16.525   3.589  0.00  0.00    -0.312 N 
ATOM      2  C   LIG    1       25.675 -15.312   3.320  0.00  0.00    +0.165 A 
ATOM      3  N   LIG    1       26.901 -15.062   2.843  0.00  0.00    -0.216 NA
ATOM      4  C   LIG    1       27.086 -13.735   2.672  0.00  0.00    +0.225 A 
ATOM      5  N   LIG    1       26.211 -12.728   2.897  0.00  0.00    -0.219 NA
ATOM      6  C   LIG    1       24.979 -13.039   3.360  0.00  0.00    +0.147 A 
ATOM      7  C   LIG    1       24.681 -14.387   3.621  0.00  0.00    +0.147 A 
ATOM      8  N   LIG    1       23.563 -15.015   4.128  0.00  0.00    -0.231 NA
ATOM      9  C   LIG    1       23.853 -16.301   4.089  0.00  0.00    +0.201 A 
ENDROOT
BRANCH   6  10
ATOM     10  N   LIG    1       24.071 -12.006   3.550  0.00  0.00    -0.341 N 
ATOM     11  H   LIG    1       23.146 -12.325   3.811  0.00  0.00    +0.144 HD
ATOM     12  H   LIG    1       24.471 -11.230   4.058  0.00  0.00    +0.144 HD
ENDBRANCH   6  10
BRANCH   1  13
ATOM     13  C   LIG    1       25.713 -17.823   3.347  0.00  0.00    +0.156 C 
BRANCH  13  15
ATOM     14  C   LIG    1       24.698 -19.945   2.466  0.00  0.00    +0.039 C 
ATOM     15  C   LIG    1       24.747 -18.983   3.651  0.00  0.00    +0.136 C 
BRANCH  15  16
ATOM     16  O   LIG    1       25.254 -19.668   4.802  0.00  0.00    -0.363 OA
BRANCH  16  17
ATOM     17  C   LIG    1       24.770 -21.006   4.967  0.00  0.00    +0.286 C 
BRANCH  17  18
ATOM     18  P   LIG    1       23.134 -20.944   5.705  0.00  0.00    +0.353 P 
ATOM     19  O   LIG    1       22.962 -21.520   7.062  0.00  0.00    -0.256 OA
BRANCH  18  20
ATOM     20  O   LIG    1       22.098 -21.565   4.648  0.00  0.00    -0.323 OA
ATOM     21  H   LIG    1       21.279 -21.056   4.559  0.00  0.00    +0.220 HD
ENDBRANCH  18  20
BRANCH  18  22
ATOM     22  O   LIG    1       22.698 -19.395   5.672  0.00  0.00    -0.323 OA
ATOM     23  H   LIG    1       22.260 -19.115   6.493  0.00  0.00    +0.220 HD
ENDBRANCH  18  22
ENDBRANCH  17  18
ENDBRANCH  16  17
ENDBRANCH  15  16
ENDBRANCH  13  15
ENDBRANCH   1  13
TORSDOF 8
ENDMDL
MODEL 5
REMARK VINA RESULT:      -3.4      1.070      1.772
REMARK  Name = *****
REMARK                            x       y       z     vdW  Elec       q    Type
REMARK                         _______ _______ _______ _____ _____    ______ ____
ROOT
ATOM      1  N   LIG    1       23.666 -17.304   4.033  0.00  0.00    -0.312 N 
ATOM      2  C   LIG    1       24.044 -18.617   4.045  0.00  0.00    +0.165 A 
ATOM      3  N   LIG    1       25.256 -19.128   3.793  0.00  0.00    -0.216 NA
ATOM      4  C   LIG    1       25.249 -20.470   3.940  0.00  0.00    +0.225 A 
ATOM      5  N   LIG    1       24.223 -21.271   4.309  0.00  0.00    -0.219 NA
ATOM      6  C   LIG    1       23.025 -20.699   4.571  0.00  0.00    +0.147 A 
ATOM      7  C   LIG    1       22.895 -19.310   4.410  0.00  0.00    +0.147 A 
ATOM      8  N   LIG    1       21.826 -18.450   4.547  0.00  0.00    -0.231 NA
ATOM      9  C   LIG    1       22.327 -17.251   4.320  0.00  0.00    +0.201 A 
ENDROOT
BRANCH   6  10
ATOM     10  N   LIG    1       21.986 -21.519   4.990  0.00  0.00    -0.341 N 
ATOM     11  H   LIG    1       22.117 -22.492   4.743  0.00  0.00    +0.144 HD
ATOM     12  H   LIG    1       21.677 -21.300   5.927  0.00  0.00    +0.144 HD
ENDBRANCH   6  10
BRANCH   1  13
ATOM     13  C   LIG    1       24.537 -16.165   3.802  0.00  0.00    +0.156 C 
BRANCH  13  15
ATOM     14  C   LIG    1       23.539 -14.396   5.278  0.00  0.00    +0.039 C 
ATOM     15  C   LIG    1       23.772 -14.830   3.833  0.00  0.00    +0.136 C 
BRANCH  15  16
ATOM     16  O   LIG    1       24.588 -13.858   3.168  0.00  0.00    -0.363 OA
BRANCH  16  17
ATOM     17  C   LIG    1       25.635 -13.301   3.972  0.00  0.00    +0.286 C 
BRANCH  17  18
ATOM     18  P   LIG    1       27.214 -13.907   3.369  0.00  0.00    +0.353 P 
ATOM     19  O   LIG    1       27.840 -15.047   4.081  0.00  0.00    -0.256 OA
BRANCH  18  20
ATOM     20  O   LIG    1       28.205 -12.649   3.252  0.00  0.00    -0.323 OA
ATOM     21  H   LIG    1       27.753 -11.793   3.270  0.00  0.00    +0.220 HD
ENDBRANCH  18  20
BRANCH  18  22
ATOM     22  O   LIG    1       26.985 -14.249   1.813  0.00  0.00    -0.323 OA
ATOM     23  H   LIG    1       27.092 -15.196   1.621  0.00  0.00    +0.220 HD
ENDBRANCH  18  22
ENDBRANCH  17  18
ENDBRANCH  16  17
ENDBRANCH  15  16
ENDBRANCH  13  15
ENDBRANCH   1  13
TORSDOF 8
ENDMDL
MODEL 6
REMARK VINA RESULT:      -3.2      4.244      6.585
REMARK  Name = *****
REMARK                            x       y       z     vdW  Elec       q    Type
REMARK                         _______ _______ _______ _____ _____    ______ ____
ROOT
ATOM      1  N   LIG    1       25.432 -16.793   3.560  0.00  0.00    -0.312 N 
ATOM      2  C   LIG    1       25.147 -15.463   3.690  0.00  0.00    +0.165 A 
ATOM      3  N   LIG    1       23.955 -14.893   3.912  0.00  0.00    -0.216 NA
ATOM      4  C   LIG    1       24.079 -13.553   4.019  0.00  0.00    +0.225 A 
ATOM      5  N   LIG    1       25.204 -12.804   3.952  0.00  0.00    -0.219 NA
ATOM      6  C   LIG    1       26.383 -13.434   3.747  0.00  0.00    +0.147 A 
ATOM      7  C   LIG    1       26.379 -14.828   3.574  0.00  0.00    +0.147 A 
ATOM      8  N   LIG    1       27.378 -15.739   3.309  0.00  0.00    -0.231 NA
ATOM      9  C   LIG    1       26.774 -16.912   3.314  0.00  0.00    +0.201 A 
ENDROOT
BRANCH   6  10
ATOM     10  N   LIG    1       27.539 -12.666   3.721  0.00  0.00    -0.341 N 
ATOM     11  H   LIG    1       28.053 -12.740   2.851  0.00  0.00    +0.144 HD
ATOM     12  H   LIG    1       27.400 -11.747   4.118  0.00  0.00    +0.144 HD
ENDBRANCH   6  10
BRANCH   1  13
ATOM     13  C   LIG    1       24.488 -17.888   3.702  0.00  0.00    +0.156 C 
BRANCH  13  15
ATOM     14  C   LIG    1       26.076 -19.659   4.507  0.00  0.00    +0.039 C 
ATOM     15  C   LIG    1       25.125 -19.253   3.383  0.00  0.00    +0.136 C 
BRANCH  15  16
ATOM     16  O   LIG    1       24.060 -20.206   3.290  0.00  0.00    -0.363 OA
BRANCH  16  17
ATOM     17  C   LIG    1       24.076 -21.225   4.296  0.00  0.00    +0.286 C 
BRANCH  17  18
ATOM     18  P   LIG    1       22.750 -20.908   5.465  0.00  0.00    +0.353 P 
ATOM     19  O   LIG    1       22.975 -21.269   6.886  0.00  0.00    -0.256 OA
BRANCH  18  20
ATOM     20  O   LIG    1       21.413 -21.571   4.876  0.00  0.00    -0.323 OA
ATOM     21  H   LIG    1       21.132 -22.369   5.348  0.00  0.00    +0.220 HD
ENDBRANCH  18  20
BRANCH  18  22
ATOM     22  O   LIG    1       22.398 -19.345   5.311  0.00  0.00    -0.323 OA
ATOM     23  H   LIG    1       21.443 -19.173   5.357  0.00  0.00    +0.220 HD
ENDBRANCH  18  22
ENDBRANCH  17  18
ENDBRANCH  16  17
ENDBRANCH  15  16
ENDBRANCH  13  15
ENDBRANCH   1  13
TORSDOF 8
ENDMDL
MODEL 7
REMARK VINA RESULT:      -2.9      3.656      5.670
REMARK  Name = *****
REMARK                            x       y       z     vdW  Elec       q    Type
REMARK                         _______ _______ _______ _____ _____    ______ ____
ROOT
ATOM      1  N   LIG    1       24.815 -16.989   3.715  0.00  0.00    -0.312 N 
ATOM      2  C   LIG    1       25.525 -15.824   3.633  0.00  0.00    +0.165 A 
ATOM      3  N   LIG    1       26.809 -15.665   3.287  0.00  0.00    -0.216 NA
ATOM      4  C   LIG    1       27.144 -14.357   3.283  0.00  0.00    +0.225 A 
ATOM      5  N   LIG    1       26.360 -13.287   3.550  0.00  0.00    -0.219 NA
ATOM      6  C   LIG    1       25.065 -13.505   3.873  0.00  0.00    +0.147 A 
ATOM      7  C   LIG    1       24.607 -14.831   3.955  0.00  0.00    +0.147 A 
ATOM      8  N   LIG    1       23.389 -15.379   4.295  0.00  0.00    -0.231 NA
ATOM      9  C   LIG    1       23.548 -16.679   4.134  0.00  0.00    +0.201 A 
ENDROOT
BRANCH   6  10
ATOM     10  N   LIG    1       24.254 -12.402   4.105  0.00  0.00    -0.341 N 
ATOM     11  H   LIG    1       24.216 -12.128   5.079  0.00  0.00    +0.144 HD
ATOM     12  H   LIG    1       24.376 -11.681   3.409  0.00  0.00    +0.144 HD
ENDBRANCH   6  10
BRANCH   1  13
ATOM     13  C   LIG    1       25.304 -18.314   3.377  0.00  0.00    +0.156 C 
BRANCH  13  15
ATOM     14  C   LIG    1       23.800 -20.272   3.840  0.00  0.00    +0.039 C 
ATOM     15  C   LIG    1       24.890 -19.371   4.417  0.00  0.00    +0.136 C 
BRANCH  15  16
ATOM     16  O   LIG    1       26.053 -20.155   4.710  0.00  0.00    -0.363 OA
BRANCH  16  17
ATOM     17  C   LIG    1       26.313 -20.344   6.106  0.00  0.00    +0.286 C 
BRANCH  17  18
ATOM     18  P   LIG    1       28.089 -20.388   6.365  0.00  0.00    +0.353 P 
ATOM     19  O   LIG    1       28.662 -21.566   7.062  0.00  0.00    -0.256 OA
BRANCH  18  20
ATOM     20  O   LIG    1       28.514 -19.006   7.062  0.00  0.00    -0.323 OA
ATOM     21  H   LIG    1       28.969 -18.393   6.466  0.00  0.00    +0.220 HD
ENDBRANCH  18  20
BRANCH  18  22
ATOM     22  O   LIG    1       28.747 -20.200   4.908  0.00  0.00    -0.323 OA
ATOM     23  H   LIG    1       28.626 -19.301   4.559  0.00  0.00    +0.220 HD
ENDBRANCH  18  22
ENDBRANCH  17  18
ENDBRANCH  16  17
ENDBRANCH  15  16
ENDBRANCH  13  15
ENDBRANCH   1  13
TORSDOF 8
ENDMDL
MODEL 8
REMARK VINA RESULT:      -2.7      3.775      5.774
REMARK  Name = *****
REMARK                            x       y       z     vdW  Elec       q    Type
REMARK                         _______ _______ _______ _____ _____    ______ ____
ROOT
ATOM      1  N   LIG    1       24.886 -14.115   3.374  0.00  0.00    -0.312 N 
ATOM      2  C   LIG    1       25.905 -13.695   4.182  0.00  0.00    +0.165 A 
ATOM      3  N   LIG    1       25.874 -13.477   5.503  0.00  0.00    -0.216 NA
ATOM      4  C   LIG    1       27.090 -13.106   5.955  0.00  0.00    +0.225 A 
ATOM      5  N   LIG    1       28.242 -12.971   5.258  0.00  0.00    -0.219 NA
ATOM      6  C   LIG    1       28.222 -13.224   3.930  0.00  0.00    +0.147 A 
ATOM      7  C   LIG    1       27.000 -13.576   3.332  0.00  0.00    +0.147 A 
ATOM      8  N   LIG    1       26.641 -13.846   2.029  0.00  0.00    -0.231 NA
ATOM      9  C   LIG    1       25.364 -14.172   2.092  0.00  0.00    +0.201 A 
ENDROOT
BRANCH   6  10
ATOM     10  N   LIG    1       29.414 -13.125   3.226  0.00  0.00    -0.341 N 
ATOM     11  H   LIG    1       30.235 -13.270   3.802  0.00  0.00    +0.144 HD
ATOM     12  H   LIG    1       29.371 -13.585   2.328  0.00  0.00    +0.144 HD
ENDBRANCH   6  10
BRANCH   1  13
ATOM     13  C   LIG    1       23.548 -14.477   3.805  0.00  0.00    +0.156 C 
BRANCH  13  15
ATOM     14  C   LIG    1       22.122 -16.043   5.155  0.00  0.00    +0.039 C 
ATOM     15  C   LIG    1       23.531 -15.777   4.629  0.00  0.00    +0.136 C 
BRANCH  15  16
ATOM     16  O   LIG    1       23.923 -16.840   3.753  0.00  0.00    -0.363 OA
BRANCH  16  17
ATOM     17  C   LIG    1       23.302 -18.102   4.024  0.00  0.00    +0.286 C 
BRANCH  17  18
ATOM     18  P   LIG    1       24.516 -19.407   3.804  0.00  0.00    +0.353 P 
ATOM     19  O   LIG    1       24.208 -20.486   2.834  0.00  0.00    -0.256 OA
BRANCH  18  20
ATOM     20  O   LIG    1       24.881 -19.984   5.257  0.00  0.00    -0.323 OA
ATOM     21  H   LIG    1       25.299 -19.334   5.841  0.00  0.00    +0.220 HD
ENDBRANCH  18  20
BRANCH  18  22
ATOM     22  O   LIG    1       25.892 -18.662   3.427  0.00  0.00    -0.323 OA
ATOM     23  H   LIG    1       25.921 -18.384   2.496  0.00  0.00    +0.220 HD
ENDBRANCH  18  22
ENDBRANCH  17  18
ENDBRANCH  16  17
ENDBRANCH  15  16
ENDBRANCH  13  15
ENDBRANCH   1  13
TORSDOF 8
ENDMDL
MODEL 9
REMARK VINA RESULT:      -2.6      2.684      3.691
REMARK  Name = *****
REMARK                            x       y       z     vdW  Elec       q    Type
REMARK                         _______ _______ _______ _____ _____    ______ ____
ROOT
ATOM      1  N   LIG    1       26.822 -17.647   3.711  0.00  0.00    -0.312 N 
ATOM      2  C   LIG    1       27.358 -18.555   4.580  0.00  0.00    +0.165 A 
ATOM      3  N   LIG    1       28.550 -18.508   5.190  0.00  0.00    -0.216 NA
ATOM      4  C   LIG    1       28.710 -19.570   6.008  0.00  0.00    +0.225 A 
ATOM      5  N   LIG    1       27.841 -20.575   6.262  0.00  0.00    -0.219 NA
ATOM      6  C   LIG    1       26.643 -20.561   5.635  0.00  0.00    +0.147 A 
ATOM      7  C   LIG    1       26.375 -19.528   4.722  0.00  0.00    +0.147 A 
ATOM      8  N   LIG    1       25.297 -19.259   3.906  0.00  0.00    -0.231 NA
ATOM      9  C   LIG    1       25.597 -18.117   3.317  0.00  0.00    +0.201 A 
ENDROOT
BRANCH   6  10
ATOM     10  N   LIG    1       25.738 -21.571   5.932  0.00  0.00    -0.341 N 
ATOM     11  H   LIG    1       25.454 -21.586   6.903  0.00  0.00    +0.144 HD
ATOM     12  H   LIG    1       25.024 -21.669   5.223  0.00  0.00    +0.144 HD
ENDBRANCH   6  10
BRANCH   1  13
ATOM     13  C   LIG    1       27.423 -16.388   3.311  0.00  0.00    +0.156 C 
BRANCH  13  15
ATOM     14  C   LIG    1       27.909 -14.060   4.118  0.00  0.00    +0.039 C 
ATOM     15  C   LIG    1       26.893 -15.199   4.133  0.00  0.00    +0.136 C 
BRANCH  15  16
ATOM     16  O   LIG    1       25.677 -14.764   3.514  0.00  0.00    -0.363 OA
BRANCH  16  17
ATOM     17  C   LIG    1       24.905 -13.841   4.290  0.00  0.00    +0.286 C 
BRANCH  17  18
ATOM     18  P   LIG    1       24.246 -12.574   3.201  0.00  0.00    +0.353 P 
ATOM     19  O   LIG    1       23.503 -11.447   3.816  0.00  0.00    -0.256 OA
BRANCH  18  20
ATOM     20  O   LIG    1       23.393 -13.310   2.058  0.00  0.00    -0.323 OA
ATOM     21  H   LIG    1       23.272 -12.779   1.258  0.00  0.00    +0.220 HD
ENDBRANCH  18  20
BRANCH  18  22
ATOM     22  O   LIG    1       25.498 -12.044   2.341  0.00  0.00    -0.323 OA
ATOM     23  H   LIG    1       25.972 -12.764   1.892  0.00  0.00    +0.220 HD
ENDBRANCH  18  22
ENDBRANCH  17  18
ENDBRANCH  16  17
ENDBRANCH  15  16
ENDBRANCH  13  15
ENDBRANCH   1  13
TORSDOF 8
ENDMDL
