MODEL 1
REMARK VINA RESULT:      -5.2      0.000      0.000
REMARK  Name = *****
REMARK                            x       y       z     vdW  Elec       q    Type
REMARK                         _______ _______ _______ _____ _____    ______ ____
ROOT
ATOM      1  C   LIG    1       25.109 -17.960   3.354  0.00  0.00    +0.027 C 
ATOM      2  C   LIG    1       24.175 -19.138   3.662  0.00  0.00    +0.086 C 
ATOM      3  N   LIG    1       23.184 -18.849   4.739  0.00  0.00    -0.298 NA
ATOM      4  C   LIG    1       22.339 -17.694   4.437  0.00  0.00    +0.105 C 
ATOM      5  C   LIG    1       22.339 -20.049   4.935  0.00  0.00    +0.112 C 
ATOM      6  C   LIG    1       23.174 -21.308   5.206  0.00  0.00    +0.176 C 
ATOM      7  O   LIG    1       24.097 -21.571   4.144  0.00  0.00    -0.369 OA
ATOM      8  C   LIG    1       24.989 -20.456   3.925  0.00  0.00    +0.165 C 
ENDROOT
BRANCH   8   9
ATOM      9  C   LIG    1       26.098 -20.477   4.970  0.00  0.00    -0.017 A 
ATOM     10  C   LIG    1       25.972 -21.347   6.068  0.00  0.00    +0.006 A 
ATOM     11  C   LIG    1       26.951 -21.402   7.062  0.00  0.00    +0.000 A 
ATOM     12  C   LIG    1       28.070 -20.578   6.982  0.00  0.00    +0.000 A 
ATOM     13  C   LIG    1       28.204 -19.695   5.913  0.00  0.00    +0.000 A 
ATOM     14  C   LIG    1       27.223 -19.642   4.918  0.00  0.00    +0.006 A 
ENDBRANCH   8   9
TORSDOF 1
ENDMDL
MODEL 2
REMARK VINA RESULT:      -4.4      0.136      1.291
REMARK  Name = *****
REMARK                            x       y       z     vdW  Elec       q    Type
REMARK                         _______ _______ _______ _____ _____    ______ ____
ROOT
ATOM      1  C   LIG    1       25.102 -17.970   3.352  0.00  0.00    +0.027 C 
ATOM      2  C   LIG    1       24.174 -19.146   3.683  0.00  0.00    +0.086 C 
ATOM      3  N   LIG    1       23.181 -18.841   4.753  0.00  0.00    -0.298 NA
ATOM      4  C   LIG    1       22.330 -17.696   4.428  0.00  0.00    +0.105 C 
ATOM      5  C   LIG    1       22.343 -20.041   4.973  0.00  0.00    +0.112 C 
ATOM      6  C   LIG    1       23.183 -21.290   5.269  0.00  0.00    +0.176 C 
ATOM      7  O   LIG    1       24.109 -21.569   4.213  0.00  0.00    -0.369 OA
ATOM      8  C   LIG    1       24.995 -20.454   3.972  0.00  0.00    +0.165 C 
ENDROOT
BRANCH   8   9
ATOM      9  C   LIG    1       26.104 -20.448   5.017  0.00  0.00    -0.017 A 
ATOM     10  C   LIG    1       27.201 -19.587   4.829  0.00  0.00    +0.006 A 
ATOM     11  C   LIG    1       28.252 -19.545   5.748  0.00  0.00    +0.000 A 
ATOM     12  C   LIG    1       28.229 -20.372   6.867  0.00  0.00    +0.000 A 
ATOM     13  C   LIG    1       27.162 -21.244   7.062  0.00  0.00    +0.000 A 
ATOM     14  C   LIG    1       26.110 -21.286   6.141  0.00  0.00    +0.006 A 
ENDBRANCH   8   9
TORSDOF 1
ENDMDL
MODEL 3
REMARK VINA RESULT:      -4.4      1.258      1.519
REMARK  Name = *****
REMARK                            x       y       z     vdW  Elec       q    Type
REMARK                         _______ _______ _______ _____ _____    ______ ____
ROOT
ATOM      1  C   LIG    1       24.487 -19.971   2.774  0.00  0.00    +0.027 C 
ATOM      2  C   LIG    1       23.910 -20.410   4.127  0.00  0.00    +0.086 C 
ATOM      3  N   LIG    1       23.165 -19.331   4.836  0.00  0.00    -0.298 NA
ATOM      4  C   LIG    1       22.057 -18.792   4.047  0.00  0.00    +0.105 C 
ATOM      5  C   LIG    1       22.652 -19.875   6.113  0.00  0.00    +0.112 C 
ATOM      6  C   LIG    1       23.763 -20.502   6.966  0.00  0.00    +0.176 C 
ATOM      7  O   LIG    1       24.442 -21.549   6.265  0.00  0.00    -0.369 OA
ATOM      8  C   LIG    1       25.013 -21.079   5.025  0.00  0.00    +0.165 C 
ENDROOT
BRANCH   8   9
ATOM      9  C   LIG    1       26.318 -20.346   5.309  0.00  0.00    -0.017 A 
ATOM     10  C   LIG    1       27.064 -20.715   6.443  0.00  0.00    +0.006 A 
ATOM     11  C   LIG    1       28.262 -20.072   6.761  0.00  0.00    +0.000 A 
ATOM     12  C   LIG    1       28.731 -19.040   5.954  0.00  0.00    +0.000 A 
ATOM     13  C   LIG    1       27.998 -18.646   4.838  0.00  0.00    +0.000 A 
ATOM     14  C   LIG    1       26.799 -19.291   4.521  0.00  0.00    +0.006 A 
ENDBRANCH   8   9
TORSDOF 1
ENDMDL
MODEL 4
REMARK VINA RESULT:      -4.2      1.681      4.305
REMARK  Name = *****
REMARK                            x       y       z     vdW  Elec       q    Type
REMARK                         _______ _______ _______ _____ _____    ______ ____
ROOT
ATOM      1  C   LIG    1       22.042 -19.479   4.596  0.00  0.00    +0.027 C 
ATOM      2  C   LIG    1       23.456 -20.075   4.618  0.00  0.00    +0.086 C 
ATOM      3  N   LIG    1       24.035 -20.186   5.988  0.00  0.00    -0.298 NA
ATOM      4  C   LIG    1       23.211 -20.991   6.890  0.00  0.00    +0.105 C 
ATOM      5  C   LIG    1       25.386 -20.781   5.880  0.00  0.00    +0.112 C 
ATOM      6  C   LIG    1       26.285 -20.007   4.906  0.00  0.00    +0.176 C 
ATOM      7  O   LIG    1       25.712 -19.939   3.596  0.00  0.00    -0.369 OA
ATOM      8  C   LIG    1       24.405 -19.324   3.616  0.00  0.00    +0.165 C 
ENDROOT
BRANCH   8   9
ATOM      9  C   LIG    1       24.554 -17.810   3.690  0.00  0.00    -0.017 A 
ATOM     10  C   LIG    1       25.779 -17.235   3.303  0.00  0.00    +0.006 A 
ATOM     11  C   LIG    1       25.978 -15.854   3.360  0.00  0.00    +0.000 A 
ATOM     12  C   LIG    1       24.959 -15.023   3.816  0.00  0.00    +0.000 A 
ATOM     13  C   LIG    1       23.746 -15.574   4.222  0.00  0.00    +0.000 A 
ATOM     14  C   LIG    1       23.548 -16.957   4.164  0.00  0.00    +0.006 A 
ENDBRANCH   8   9
TORSDOF 1
ENDMDL
MODEL 5
REMARK VINA RESULT:      -3.8      0.875      1.622
REMARK  Name = *****
REMARK                            x       y       z     vdW  Elec       q    Type
REMARK                         _______ _______ _______ _____ _____    ______ ____
ROOT
ATOM      1  C   LIG    1       26.038 -17.365   3.343  0.00  0.00    +0.027 C 
ATOM      2  C   LIG    1       24.783 -18.247   3.375  0.00  0.00    +0.086 C 
ATOM      3  N   LIG    1       23.716 -17.735   4.282  0.00  0.00    -0.298 NA
ATOM      4  C   LIG    1       23.284 -16.379   3.942  0.00  0.00    +0.105 C 
ATOM      5  C   LIG    1       22.561 -18.659   4.219  0.00  0.00    +0.112 C 
ATOM      6  C   LIG    1       22.961 -20.109   4.518  0.00  0.00    +0.176 C 
ATOM      7  O   LIG    1       23.969 -20.579   3.616  0.00  0.00    -0.369 OA
ATOM      8  C   LIG    1       25.150 -19.749   3.657  0.00  0.00    +0.165 C 
ENDROOT
BRANCH   8   9
ATOM      9  C   LIG    1       25.990 -20.117   4.875  0.00  0.00    -0.017 A 
ATOM     10  C   LIG    1       27.312 -19.641   4.949  0.00  0.00    +0.006 A 
ATOM     11  C   LIG    1       28.132 -19.954   6.034  0.00  0.00    +0.000 A 
ATOM     12  C   LIG    1       27.648 -20.758   7.062  0.00  0.00    +0.000 A 
ATOM     13  C   LIG    1       26.350 -21.256   6.998  0.00  0.00    +0.000 A 
ATOM     14  C   LIG    1       25.529 -20.942   5.910  0.00  0.00    +0.006 A 
ENDBRANCH   8   9
TORSDOF 1
ENDMDL
MODEL 6
REMARK VINA RESULT:      -3.4      4.521      6.308
REMARK  Name = *****
REMARK                            x       y       z     vdW  Elec       q    Type
REMARK                         _______ _______ _______ _____ _____    ______ ____
ROOT
ATOM      1  C   LIG    1       26.113 -13.668   5.786  0.00  0.00    +0.027 C 
ATOM      2  C   LIG    1       25.785 -13.210   4.358  0.00  0.00    +0.086 C 
ATOM      3  N   LIG    1       24.404 -12.668   4.207  0.00  0.00    -0.298 NA
ATOM      4  C   LIG    1       24.137 -11.538   5.097  0.00  0.00    +0.105 C 
ATOM      5  C   LIG    1       24.213 -12.253   2.799  0.00  0.00    +0.112 C 
ATOM      6  C   LIG    1       24.529 -13.385   1.812  0.00  0.00    +0.176 C 
ATOM      7  O   LIG    1       25.868 -13.866   1.967  0.00  0.00    -0.369 OA
ATOM      8  C   LIG    1       26.115 -14.334   3.311  0.00  0.00    +0.165 C 
ENDROOT
BRANCH   8   9
ATOM      9  C   LIG    1       25.533 -15.733   3.479  0.00  0.00    -0.017 A 
ATOM     10  C   LIG    1       26.350 -16.841   3.188  0.00  0.00    +0.006 A 
ATOM     11  C   LIG    1       25.869 -18.145   3.313  0.00  0.00    +0.000 A 
ATOM     12  C   LIG    1       24.557 -18.366   3.722  0.00  0.00    +0.000 A 
ATOM     13  C   LIG    1       23.727 -17.283   3.996  0.00  0.00    +0.000 A 
ATOM     14  C   LIG    1       24.210 -15.977   3.871  0.00  0.00    +0.006 A 
ENDBRANCH   8   9
TORSDOF 1
ENDMDL
MODEL 7
REMARK VINA RESULT:      -3.3      1.606      4.748
REMARK  Name = *****
REMARK                            x       y       z     vdW  Elec       q    Type
REMARK                         _______ _______ _______ _____ _____    ______ ____
ROOT
ATOM      1  C   LIG    1       22.375 -20.589   5.609  0.00  0.00    +0.027 C 
ATOM      2  C   LIG    1       23.789 -20.639   5.014  0.00  0.00    +0.086 C 
ATOM      3  N   LIG    1       24.870 -20.524   6.034  0.00  0.00    -0.298 NA
ATOM      4  C   LIG    1       24.795 -21.564   7.061  0.00  0.00    +0.105 C 
ATOM      5  C   LIG    1       26.178 -20.596   5.344  0.00  0.00    +0.112 C 
ATOM      6  C   LIG    1       26.298 -19.561   4.219  0.00  0.00    +0.176 C 
ATOM      7  O   LIG    1       25.260 -19.713   3.244  0.00  0.00    -0.369 OA
ATOM      8  C   LIG    1       23.949 -19.606   3.840  0.00  0.00    +0.165 C 
ENDROOT
BRANCH   8   9
ATOM      9  C   LIG    1       23.605 -18.138   4.059  0.00  0.00    -0.017 A 
ATOM     10  C   LIG    1       24.557 -17.165   3.705  0.00  0.00    +0.006 A 
ATOM     11  C   LIG    1       24.302 -15.805   3.892  0.00  0.00    +0.000 A 
ATOM     12  C   LIG    1       23.094 -15.394   4.448  0.00  0.00    +0.000 A 
ATOM     13  C   LIG    1       22.146 -16.343   4.822  0.00  0.00    +0.000 A 
ATOM     14  C   LIG    1       22.402 -17.704   4.634  0.00  0.00    +0.006 A 
ENDBRANCH   8   9
TORSDOF 1
ENDMDL
MODEL 8
REMARK VINA RESULT:      -2.4      1.525      5.036
REMARK  Name = *****
REMARK                            x       y       z     vdW  Elec       q    Type
REMARK                         _______ _______ _______ _____ _____    ______ ____
ROOT
ATOM      1  C   LIG    1       23.399 -21.193   7.043  0.00  0.00    +0.027 C 
ATOM      2  C   LIG    1       24.316 -21.228   5.814  0.00  0.00    +0.086 C 
ATOM      3  N   LIG    1       25.446 -20.257   5.885  0.00  0.00    -0.298 NA
ATOM      4  C   LIG    1       26.292 -20.455   7.062  0.00  0.00    +0.105 C 
ATOM      5  C   LIG    1       26.260 -20.392   4.656  0.00  0.00    +0.112 C 
ATOM      6  C   LIG    1       25.417 -20.244   3.382  0.00  0.00    +0.176 C 
ATOM      7  O   LIG    1       24.356 -21.205   3.334  0.00  0.00    -0.369 OA
ATOM      8  C   LIG    1       23.489 -21.101   4.484  0.00  0.00    +0.165 C 
ENDROOT
BRANCH   8   9
ATOM      9  C   LIG    1       22.521 -19.940   4.291  0.00  0.00    -0.017 A 
ATOM     10  C   LIG    1       22.961 -18.639   4.599  0.00  0.00    +0.006 A 
ATOM     11  C   LIG    1       22.117 -17.537   4.452  0.00  0.00    +0.000 A 
ATOM     12  C   LIG    1       20.811 -17.717   4.004  0.00  0.00    +0.000 A 
ATOM     13  C   LIG    1       20.350 -18.998   3.712  0.00  0.00    +0.000 A 
ATOM     14  C   LIG    1       21.197 -20.101   3.859  0.00  0.00    +0.006 A 
ENDBRANCH   8   9
TORSDOF 1
ENDMDL
MODEL 9
REMARK VINA RESULT:      -2.4      1.431      2.447
REMARK  Name = *****
REMARK                            x       y       z     vdW  Elec       q    Type
REMARK                         _______ _______ _______ _____ _____    ______ ____
ROOT
ATOM      1  C   LIG    1       23.102 -19.429   6.362  0.00  0.00    +0.027 C 
ATOM      2  C   LIG    1       23.439 -19.688   4.888  0.00  0.00    +0.086 C 
ATOM      3  N   LIG    1       23.043 -21.045   4.415  0.00  0.00    -0.298 NA
ATOM      4  C   LIG    1       21.615 -21.311   4.585  0.00  0.00    +0.105 C 
ATOM      5  C   LIG    1       23.408 -21.170   2.985  0.00  0.00    +0.112 C 
ATOM      6  C   LIG    1       24.888 -20.852   2.734  0.00  0.00    +0.176 C 
ATOM      7  O   LIG    1       25.230 -19.535   3.178  0.00  0.00    -0.369 OA
ATOM      8  C   LIG    1       24.944 -19.353   4.582  0.00  0.00    +0.165 C 
ENDROOT
BRANCH   8   9
ATOM      9  C   LIG    1       26.054 -19.983   5.415  0.00  0.00    -0.017 A 
ATOM     10  C   LIG    1       27.373 -19.531   5.230  0.00  0.00    +0.006 A 
ATOM     11  C   LIG    1       28.433 -20.078   5.956  0.00  0.00    +0.000 A 
ATOM     12  C   LIG    1       28.193 -21.095   6.875  0.00  0.00    +0.000 A 
ATOM     13  C   LIG    1       26.898 -21.570   7.059  0.00  0.00    +0.000 A 
ATOM     14  C   LIG    1       25.838 -21.022   6.331  0.00  0.00    +0.006 A 
ENDBRANCH   8   9
TORSDOF 1
ENDMDL
