MODEL 1
REMARK VINA RESULT:      -9.8      0.000      0.000
REMARK  Name = *****
REMARK                            x       y       z     vdW  Elec       q    Type
REMARK                         _______ _______ _______ _____ _____    ______ ____
ROOT
ATOM      1  C   LIG    1       25.748 -21.301   6.573  0.00  0.00    +0.044 C 
ATOM      2  C   LIG    1       25.119 -22.617   6.044  0.00  0.00    +0.006 C 
ATOM      3  C   LIG    1       23.626 -22.561   6.381  0.00  0.00    -0.001 C 
ATOM      4  C   LIG    1       23.154 -24.011   6.529  0.00  0.00    +0.034 C 
ATOM      5  C   LIG    1       24.421 -24.824   6.561  0.00  0.00    -0.073 C 
ATOM      6  C   LIG    1       24.452 -26.150   6.337  0.00  0.00    -0.027 C 
ATOM      7  C   LIG    1       23.574 -21.765   7.676  0.00  0.00    +0.036 C 
ATOM      8  C   LIG    1       25.609 -23.912   6.696  0.00  0.00    +0.035 C 
ATOM      9  C   LIG    1       24.668 -20.707   7.532  0.00  0.00    +0.122 C 
ENDROOT
BRANCH   1  11
ATOM     10  C   LIG    1       28.090 -20.544   7.374  0.00  0.00    +0.000 C 
ATOM     11  C   LIG    1       27.201 -21.475   6.981  0.00  0.00    -0.022 C 
BRANCH  10  12
ATOM     12  C   LIG    1       29.534 -20.837   7.737  0.00  0.00    +0.141 C 
BRANCH  12  13
ATOM     13  C   LIG    1       30.416 -19.619   8.102  0.00  0.00    +0.030 C 
ATOM     14  C   LIG    1       31.299 -19.221   6.902  0.00  0.00    +0.011 C 
BRANCH  13  15
ATOM     15  C   LIG    1       29.639 -18.400   8.610  0.00  0.00    +0.095 C 
BRANCH  15  18
ATOM     16  C   LIG    1       31.430 -16.486  11.802  0.00  0.00    +0.106 C 
ATOM     17  C   LIG    1       30.820 -17.167  10.655  0.00  0.00    -0.106 C 
ATOM     18  C   LIG    1       30.310 -17.715   9.733  0.00  0.00    -0.102 C 
ENDBRANCH  15  18
ENDBRANCH  13  15
ENDBRANCH  12  13
BRANCH  12  19
ATOM     19  O   LIG    1       29.576 -21.735   8.853  0.00  0.00    -0.388 OA
ATOM     20  H   LIG    1       28.961 -22.473   8.681  0.00  0.00    +0.210 HD
ENDBRANCH  12  19
ENDBRANCH  10  12
ENDBRANCH   1  11
BRANCH   9  21
ATOM     21  O   LIG    1       25.117 -20.332   8.822  0.00  0.00    -0.391 OA
ATOM     22  H   LIG    1       26.033 -20.018   8.725  0.00  0.00    +0.210 HD
ENDBRANCH   9  21
BRANCH   6  23
ATOM     23  C   LIG    1       25.706 -26.957   6.160  0.00  0.00    +0.028 C 
BRANCH  23  24
ATOM     24  C   LIG    1       25.497 -28.226   5.330  0.00  0.00    +0.015 C 
BRANCH  24  25
ATOM     25  C   LIG    1       24.291 -29.028   5.801  0.00  0.00    +0.121 C 
BRANCH  25  26
ATOM     26  C   LIG    1       24.556 -30.507   5.876  0.00  0.00    +0.307 C 
ATOM     27  O   LIG    1       25.511 -31.076   5.367  0.00  0.00    -0.251 OA
BRANCH  26  28
ATOM     28  O   LIG    1       23.617 -31.091   6.670  0.00  0.00    -0.457 OA
BRANCH  28  29
ATOM     29  C   LIG    1       24.109 -31.478   7.943  0.00  0.00    +0.311 C 
BRANCH  29  30
ATOM     30  C   LIG    1       23.665 -30.629   9.139  0.00  0.00    +0.200 C 
ATOM     31  O   LIG    1       22.490 -30.549   9.495  0.00  0.00    -0.288 OA
BRANCH  30  32
ATOM     32  C   LIG    1       24.711 -29.814   9.825  0.00  0.00    +0.021 A 
ATOM     33  C   LIG    1       24.660 -29.557  11.202  0.00  0.00    +0.011 A 
ATOM     34  C   LIG    1       25.655 -28.798  11.818  0.00  0.00    +0.001 A 
ATOM     35  C   LIG    1       26.698 -28.271  11.061  0.00  0.00    +0.000 A 
ATOM     36  C   LIG    1       26.750 -28.508   9.687  0.00  0.00    +0.001 A 
ATOM     37  C   LIG    1       25.761 -29.280   9.071  0.00  0.00    +0.011 A 
ENDBRANCH  30  32
ENDBRANCH  29  30
ENDBRANCH  28  29
ENDBRANCH  26  28
ENDBRANCH  25  26
ENDBRANCH  24  25
ENDBRANCH  23  24
ENDBRANCH   6  23
TORSDOF 15
ENDMDL
MODEL 2
REMARK VINA RESULT:      -9.4      0.853      1.322
REMARK  Name = *****
REMARK                            x       y       z     vdW  Elec       q    Type
REMARK                         _______ _______ _______ _____ _____    ______ ____
ROOT
ATOM      1  C   LIG    1       25.858 -21.307   6.640  0.00  0.00    +0.044 C 
ATOM      2  C   LIG    1       25.247 -22.628   6.104  0.00  0.00    +0.006 C 
ATOM      3  C   LIG    1       23.745 -22.573   6.399  0.00  0.00    -0.001 C 
ATOM      4  C   LIG    1       23.272 -24.023   6.545  0.00  0.00    +0.034 C 
ATOM      5  C   LIG    1       24.540 -24.833   6.617  0.00  0.00    -0.073 C 
ATOM      6  C   LIG    1       24.579 -26.160   6.403  0.00  0.00    -0.027 C 
ATOM      7  C   LIG    1       23.656 -21.768   7.687  0.00  0.00    +0.036 C 
ATOM      8  C   LIG    1       25.721 -23.917   6.778  0.00  0.00    +0.035 C 
ATOM      9  C   LIG    1       24.751 -20.708   7.565  0.00  0.00    +0.122 C 
ENDROOT
BRANCH   1  11
ATOM     10  C   LIG    1       28.208 -20.531   7.397  0.00  0.00    +0.000 C 
ATOM     11  C   LIG    1       27.300 -21.474   7.089  0.00  0.00    -0.022 C 
BRANCH  10  12
ATOM     12  C   LIG    1       29.638 -20.822   7.813  0.00  0.00    +0.141 C 
BRANCH  12  13
ATOM     13  C   LIG    1       30.498 -19.604   8.231  0.00  0.00    +0.030 C 
ATOM     14  C   LIG    1       31.464 -19.217   7.093  0.00  0.00    +0.011 C 
BRANCH  13  15
ATOM     15  C   LIG    1       29.692 -18.379   8.677  0.00  0.00    +0.095 C 
BRANCH  15  18
ATOM     16  C   LIG    1       31.399 -16.396  11.872  0.00  0.00    +0.106 C 
ATOM     17  C   LIG    1       30.810 -17.085  10.720  0.00  0.00    -0.106 C 
ATOM     18  C   LIG    1       30.321 -17.651   9.796  0.00  0.00    -0.102 C 
ENDBRANCH  15  18
ENDBRANCH  13  15
ENDBRANCH  12  13
BRANCH  12  19
ATOM     19  O   LIG    1       29.642 -21.735   8.917  0.00  0.00    -0.388 OA
ATOM     20  H   LIG    1       29.795 -22.637   8.574  0.00  0.00    +0.210 HD
ENDBRANCH  12  19
ENDBRANCH  10  12
ENDBRANCH   1  11
BRANCH   9  21
ATOM     21  O   LIG    1       25.164 -20.324   8.864  0.00  0.00    -0.391 OA
ATOM     22  H   LIG    1       24.364 -20.062   9.352  0.00  0.00    +0.210 HD
ENDBRANCH   9  21
BRANCH   6  23
ATOM     23  C   LIG    1       25.839 -26.966   6.266  0.00  0.00    +0.028 C 
BRANCH  23  24
ATOM     24  C   LIG    1       25.646 -28.262   5.476  0.00  0.00    +0.015 C 
BRANCH  24  25
ATOM     25  C   LIG    1       24.203 -28.747   5.513  0.00  0.00    +0.121 C 
BRANCH  25  26
ATOM     26  C   LIG    1       24.021 -30.007   6.316  0.00  0.00    +0.307 C 
ATOM     27  O   LIG    1       24.077 -31.142   5.864  0.00  0.00    -0.251 OA
BRANCH  26  28
ATOM     28  O   LIG    1       23.874 -29.683   7.630  0.00  0.00    -0.457 OA
BRANCH  28  29
ATOM     29  C   LIG    1       24.362 -30.676   8.519  0.00  0.00    +0.311 C 
BRANCH  29  30
ATOM     30  C   LIG    1       25.745 -30.432   9.129  0.00  0.00    +0.200 C 
ATOM     31  O   LIG    1       26.750 -31.040   8.759  0.00  0.00    -0.288 OA
BRANCH  30  32
ATOM     32  C   LIG    1       25.831 -29.472  10.270  0.00  0.00    +0.021 A 
ATOM     33  C   LIG    1       26.863 -28.529  10.365  0.00  0.00    +0.011 A 
ATOM     34  C   LIG    1       26.914 -27.641  11.439  0.00  0.00    +0.001 A 
ATOM     35  C   LIG    1       25.946 -27.701  12.438  0.00  0.00    +0.000 A 
ATOM     36  C   LIG    1       24.923 -28.645  12.361  0.00  0.00    +0.001 A 
ATOM     37  C   LIG    1       24.863 -29.527  11.278  0.00  0.00    +0.011 A 
ENDBRANCH  30  32
ENDBRANCH  29  30
ENDBRANCH  28  29
ENDBRANCH  26  28
ENDBRANCH  25  26
ENDBRANCH  24  25
ENDBRANCH  23  24
ENDBRANCH   6  23
TORSDOF 15
ENDMDL
MODEL 3
REMARK VINA RESULT:      -9.4      2.546      9.069
REMARK  Name = *****
REMARK                            x       y       z     vdW  Elec       q    Type
REMARK                         _______ _______ _______ _____ _____    ______ ____
ROOT
ATOM      1  C   LIG    1       25.277 -29.630   8.358  0.00  0.00    +0.044 C 
ATOM      2  C   LIG    1       24.676 -28.547   7.423  0.00  0.00    +0.006 C 
ATOM      3  C   LIG    1       24.256 -29.259   6.134  0.00  0.00    -0.001 C 
ATOM      4  C   LIG    1       24.335 -28.219   5.011  0.00  0.00    +0.034 C 
ATOM      5  C   LIG    1       25.062 -27.050   5.624  0.00  0.00    -0.073 C 
ATOM      6  C   LIG    1       25.040 -25.812   5.100  0.00  0.00    -0.027 C 
ATOM      7  C   LIG    1       25.265 -30.388   5.994  0.00  0.00    +0.036 C 
ATOM      8  C   LIG    1       25.633 -27.448   6.957  0.00  0.00    +0.035 C 
ATOM      9  C   LIG    1       25.530 -30.857   7.425  0.00  0.00    +0.122 C 
ENDROOT
BRANCH   1  11
ATOM     10  C   LIG    1       26.231 -28.674  10.565  0.00  0.00    +0.000 C 
ATOM     11  C   LIG    1       26.343 -29.070   9.284  0.00  0.00    -0.022 C 
BRANCH  10  12
ATOM     12  C   LIG    1       27.371 -28.104  11.388  0.00  0.00    +0.141 C 
BRANCH  12  13
ATOM     13  C   LIG    1       27.036 -27.692  12.843  0.00  0.00    +0.030 C 
ATOM     14  C   LIG    1       26.741 -26.181  12.916  0.00  0.00    +0.011 C 
BRANCH  13  15
ATOM     15  C   LIG    1       25.888 -28.484  13.479  0.00  0.00    +0.095 C 
BRANCH  15  18
ATOM     16  C   LIG    1       22.310 -26.428  13.288  0.00  0.00    +0.106 C 
ATOM     17  C   LIG    1       23.566 -27.183  13.350  0.00  0.00    -0.106 C 
ATOM     18  C   LIG    1       24.592 -27.780  13.406  0.00  0.00    -0.102 C 
ENDBRANCH  15  18
ENDBRANCH  13  15
ENDBRANCH  12  13
BRANCH  12  19
ATOM     19  O   LIG    1       28.438 -29.058  11.458  0.00  0.00    -0.388 OA
ATOM     20  H   LIG    1       28.731 -29.129  12.387  0.00  0.00    +0.210 HD
ENDBRANCH  12  19
ENDBRANCH  10  12
ENDBRANCH   1  11
BRANCH   9  21
ATOM     21  O   LIG    1       26.824 -31.432   7.487  0.00  0.00    -0.391 OA
ATOM     22  H   LIG    1       26.732 -32.296   7.925  0.00  0.00    +0.210 HD
ENDBRANCH   9  21
BRANCH   6  23
ATOM     23  C   LIG    1       25.576 -24.587   5.781  0.00  0.00    +0.028 C 
BRANCH  23  24
ATOM     24  C   LIG    1       24.745 -24.153   6.991  0.00  0.00    +0.015 C 
BRANCH  24  25
ATOM     25  C   LIG    1       23.325 -23.766   6.603  0.00  0.00    +0.121 C 
BRANCH  25  26
ATOM     26  C   LIG    1       22.999 -22.328   6.904  0.00  0.00    +0.307 C 
ATOM     27  O   LIG    1       22.961 -21.837   8.023  0.00  0.00    -0.251 OA
BRANCH  26  28
ATOM     28  O   LIG    1       22.842 -21.650   5.735  0.00  0.00    -0.457 OA
BRANCH  28  29
ATOM     29  C   LIG    1       23.549 -20.421   5.690  0.00  0.00    +0.311 C 
BRANCH  29  30
ATOM     30  C   LIG    1       24.944 -20.453   5.057  0.00  0.00    +0.200 C 
ATOM     31  O   LIG    1       25.120 -20.614   3.849  0.00  0.00    -0.288 OA
BRANCH  30  32
ATOM     32  C   LIG    1       26.116 -20.365   5.978  0.00  0.00    +0.021 A 
ATOM     33  C   LIG    1       25.986 -20.573   7.358  0.00  0.00    +0.011 A 
ATOM     34  C   LIG    1       27.100 -20.491   8.194  0.00  0.00    +0.001 A 
ATOM     35  C   LIG    1       28.348 -20.180   7.661  0.00  0.00    +0.000 A 
ATOM     36  C   LIG    1       28.485 -19.957   6.292  0.00  0.00    +0.001 A 
ATOM     37  C   LIG    1       27.372 -20.052   5.451  0.00  0.00    +0.011 A 
ENDBRANCH  30  32
ENDBRANCH  29  30
ENDBRANCH  28  29
ENDBRANCH  26  28
ENDBRANCH  25  26
ENDBRANCH  24  25
ENDBRANCH  23  24
ENDBRANCH   6  23
TORSDOF 15
ENDMDL
MODEL 4
REMARK VINA RESULT:      -9.2      3.568      9.315
REMARK  Name = *****
REMARK                            x       y       z     vdW  Elec       q    Type
REMARK                         _______ _______ _______ _____ _____    ______ ____
ROOT
ATOM      1  C   LIG    1       24.656 -30.183   9.842  0.00  0.00    +0.044 C 
ATOM      2  C   LIG    1       24.283 -29.802   8.385  0.00  0.00    +0.006 C 
ATOM      3  C   LIG    1       24.117 -31.115   7.613  0.00  0.00    -0.001 C 
ATOM      4  C   LIG    1       24.447 -30.809   6.148  0.00  0.00    +0.034 C 
ATOM      5  C   LIG    1       25.060 -29.433   6.174  0.00  0.00    -0.073 C 
ATOM      6  C   LIG    1       25.173 -28.657   5.083  0.00  0.00    -0.027 C 
ATOM      7  C   LIG    1       25.108 -32.058   8.279  0.00  0.00    +0.036 C 
ATOM      8  C   LIG    1       25.339 -29.027   7.595  0.00  0.00    +0.035 C 
ATOM      9  C   LIG    1       25.065 -31.688   9.762  0.00  0.00    +0.122 C 
ENDROOT
BRANCH   1  11
ATOM     10  C   LIG    1       25.518 -28.717  11.792  0.00  0.00    +0.000 C 
ATOM     11  C   LIG    1       25.523 -29.131  10.512  0.00  0.00    -0.022 C 
BRANCH  10  12
ATOM     12  C   LIG    1       26.423 -27.632  12.345  0.00  0.00    +0.141 C 
BRANCH  12  13
ATOM     13  C   LIG    1       26.038 -27.047  13.726  0.00  0.00    +0.030 C 
ATOM     14  C   LIG    1       27.305 -26.698  14.531  0.00  0.00    +0.011 C 
BRANCH  13  15
ATOM     15  C   LIG    1       25.104 -25.833  13.663  0.00  0.00    +0.095 C 
BRANCH  15  18
ATOM     16  C   LIG    1       21.135 -26.848  13.134  0.00  0.00    +0.106 C 
ATOM     17  C   LIG    1       22.543 -26.498  13.349  0.00  0.00    -0.106 C 
ATOM     18  C   LIG    1       23.683 -26.206  13.508  0.00  0.00    -0.102 C 
ENDBRANCH  15  18
ENDBRANCH  13  15
ENDBRANCH  12  13
BRANCH  12  19
ATOM     19  O   LIG    1       27.761 -28.134  12.461  0.00  0.00    -0.388 OA
ATOM     20  H   LIG    1       28.247 -27.912  11.644  0.00  0.00    +0.210 HD
ENDBRANCH  12  19
ENDBRANCH  10  12
ENDBRANCH   1  11
BRANCH   9  21
ATOM     21  O   LIG    1       26.306 -32.029  10.355  0.00  0.00    -0.391 OA
ATOM     22  H   LIG    1       26.996 -31.864   9.689  0.00  0.00    +0.210 HD
ENDBRANCH   9  21
BRANCH   6  23
ATOM     23  C   LIG    1       25.588 -27.214   5.101  0.00  0.00    +0.028 C 
BRANCH  23  24
ATOM     24  C   LIG    1       24.404 -26.243   5.109  0.00  0.00    +0.015 C 
BRANCH  24  25
ATOM     25  C   LIG    1       24.117 -25.700   6.501  0.00  0.00    +0.121 C 
BRANCH  25  26
ATOM     26  C   LIG    1       23.601 -24.286   6.492  0.00  0.00    +0.307 C 
ATOM     27  O   LIG    1       22.467 -23.951   6.805  0.00  0.00    -0.251 OA
BRANCH  26  28
ATOM     28  O   LIG    1       24.616 -23.441   6.165  0.00  0.00    -0.457 OA
BRANCH  28  29
ATOM     29  C   LIG    1       25.191 -22.783   7.282  0.00  0.00    +0.311 C 
BRANCH  29  30
ATOM     30  C   LIG    1       24.974 -21.269   7.375  0.00  0.00    +0.200 C 
ATOM     31  O   LIG    1       25.152 -20.636   8.416  0.00  0.00    -0.288 OA
BRANCH  30  32
ATOM     32  C   LIG    1       24.447 -20.577   6.161  0.00  0.00    +0.021 A 
ATOM     33  C   LIG    1       25.278 -20.249   5.080  0.00  0.00    +0.011 A 
ATOM     34  C   LIG    1       24.757 -19.609   3.956  0.00  0.00    +0.001 A 
ATOM     35  C   LIG    1       23.407 -19.272   3.910  0.00  0.00    +0.000 A 
ATOM     36  C   LIG    1       22.575 -19.580   4.986  0.00  0.00    +0.001 A 
ATOM     37  C   LIG    1       23.093 -20.234   6.108  0.00  0.00    +0.011 A 
ENDBRANCH  30  32
ENDBRANCH  29  30
ENDBRANCH  28  29
ENDBRANCH  26  28
ENDBRANCH  25  26
ENDBRANCH  24  25
ENDBRANCH  23  24
ENDBRANCH   6  23
TORSDOF 15
ENDMDL
MODEL 5
REMARK VINA RESULT:      -9.1      3.579      9.955
REMARK  Name = *****
REMARK                            x       y       z     vdW  Elec       q    Type
REMARK                         _______ _______ _______ _____ _____    ______ ____
ROOT
ATOM      1  C   LIG    1       24.471 -30.997   9.651  0.00  0.00    +0.044 C 
ATOM      2  C   LIG    1       24.131 -30.531   8.210  0.00  0.00    +0.006 C 
ATOM      3  C   LIG    1       24.712 -31.580   7.258  0.00  0.00    -0.001 C 
ATOM      4  C   LIG    1       25.019 -30.858   5.942  0.00  0.00    +0.034 C 
ATOM      5  C   LIG    1       24.882 -29.394   6.269  0.00  0.00    -0.073 C 
ATOM      6  C   LIG    1       24.731 -28.441   5.333  0.00  0.00    -0.027 C 
ATOM      7  C   LIG    1       25.950 -32.086   7.982  0.00  0.00    +0.036 C 
ATOM      8  C   LIG    1       24.763 -29.214   7.757  0.00  0.00    +0.035 C 
ATOM      9  C   LIG    1       25.563 -32.097   9.461  0.00  0.00    +0.122 C 
ENDROOT
BRANCH   1  11
ATOM     10  C   LIG    1       24.130 -29.675  11.850  0.00  0.00    +0.000 C 
ATOM     11  C   LIG    1       24.637 -29.833  10.613  0.00  0.00    -0.022 C 
BRANCH  10  12
ATOM     12  C   LIG    1       24.347 -28.446  12.714  0.00  0.00    +0.141 C 
BRANCH  12  13
ATOM     13  C   LIG    1       23.084 -27.819  13.353  0.00  0.00    +0.030 C 
ATOM     14  C   LIG    1       23.239 -26.288  13.452  0.00  0.00    +0.011 C 
BRANCH  13  15
ATOM     15  C   LIG    1       21.772 -28.171  12.645  0.00  0.00    +0.095 C 
BRANCH  15  18
ATOM     16  C   LIG    1       18.488 -26.064  14.002  0.00  0.00    +0.106 C 
ATOM     17  C   LIG    1       19.672 -26.794  13.535  0.00  0.00    -0.106 C 
ATOM     18  C   LIG    1       20.620 -27.394  13.146  0.00  0.00    -0.102 C 
ENDBRANCH  15  18
ENDBRANCH  13  15
ENDBRANCH  12  13
BRANCH  12  19
ATOM     19  O   LIG    1       25.246 -28.763  13.784  0.00  0.00    -0.388 OA
ATOM     20  H   LIG    1       25.865 -28.017  13.900  0.00  0.00    +0.210 HD
ENDBRANCH  12  19
ENDBRANCH  10  12
ENDBRANCH   1  11
BRANCH   9  21
ATOM     21  O   LIG    1       26.736 -31.952  10.243  0.00  0.00    -0.391 OA
ATOM     22  H   LIG    1       26.460 -31.960  11.177  0.00  0.00    +0.210 HD
ENDBRANCH   9  21
BRANCH   6  23
ATOM     23  C   LIG    1       24.390 -27.007   5.621  0.00  0.00    +0.028 C 
BRANCH  23  24
ATOM     24  C   LIG    1       25.435 -26.019   5.096  0.00  0.00    +0.015 C 
BRANCH  24  25
ATOM     25  C   LIG    1       24.941 -24.580   5.150  0.00  0.00    +0.121 C 
BRANCH  25  26
ATOM     26  C   LIG    1       24.326 -24.213   6.473  0.00  0.00    +0.307 C 
ATOM     27  O   LIG    1       23.131 -24.261   6.729  0.00  0.00    -0.251 OA
BRANCH  26  28
ATOM     28  O   LIG    1       25.314 -23.907   7.357  0.00  0.00    -0.457 OA
BRANCH  28  29
ATOM     29  C   LIG    1       25.978 -22.687   7.068  0.00  0.00    +0.311 C 
BRANCH  29  30
ATOM     30  C   LIG    1       25.213 -21.397   7.379  0.00  0.00    +0.200 C 
ATOM     31  O   LIG    1       25.072 -20.969   8.525  0.00  0.00    -0.288 OA
BRANCH  30  32
ATOM     32  C   LIG    1       24.555 -20.699   6.235  0.00  0.00    +0.021 A 
ATOM     33  C   LIG    1       23.199 -20.345   6.268  0.00  0.00    +0.011 A 
ATOM     34  C   LIG    1       22.612 -19.687   5.187  0.00  0.00    +0.001 A 
ATOM     35  C   LIG    1       23.369 -19.397   4.055  0.00  0.00    +0.000 A 
ATOM     36  C   LIG    1       24.716 -19.757   4.006  0.00  0.00    +0.001 A 
ATOM     37  C   LIG    1       25.308 -20.404   5.094  0.00  0.00    +0.011 A 
ENDBRANCH  30  32
ENDBRANCH  29  30
ENDBRANCH  28  29
ENDBRANCH  26  28
ENDBRANCH  25  26
ENDBRANCH  24  25
ENDBRANCH  23  24
ENDBRANCH   6  23
TORSDOF 15
ENDMDL
MODEL 6
REMARK VINA RESULT:      -8.6      1.450      2.104
REMARK  Name = *****
REMARK                            x       y       z     vdW  Elec       q    Type
REMARK                         _______ _______ _______ _____ _____    ______ ____
ROOT
ATOM      1  C   LIG    1       25.735 -21.272   6.502  0.00  0.00    +0.044 C 
ATOM      2  C   LIG    1       25.085 -22.580   5.977  0.00  0.00    +0.006 C 
ATOM      3  C   LIG    1       23.600 -22.515   6.346  0.00  0.00    -0.001 C 
ATOM      4  C   LIG    1       23.120 -23.962   6.493  0.00  0.00    +0.034 C 
ATOM      5  C   LIG    1       24.382 -24.785   6.491  0.00  0.00    -0.073 C 
ATOM      6  C   LIG    1       24.398 -26.109   6.256  0.00  0.00    -0.027 C 
ATOM      7  C   LIG    1       23.581 -21.729   7.648  0.00  0.00    +0.036 C 
ATOM      8  C   LIG    1       25.578 -23.883   6.608  0.00  0.00    +0.035 C 
ATOM      9  C   LIG    1       24.679 -20.677   7.488  0.00  0.00    +0.122 C 
ENDROOT
BRANCH   1  11
ATOM     10  C   LIG    1       28.072 -20.557   7.352  0.00  0.00    +0.000 C 
ATOM     11  C   LIG    1       27.194 -21.460   6.878  0.00  0.00    -0.022 C 
BRANCH  10  12
ATOM     12  C   LIG    1       29.524 -20.859   7.672  0.00  0.00    +0.141 C 
BRANCH  12  13
ATOM     13  C   LIG    1       30.483 -19.646   7.745  0.00  0.00    +0.030 C 
ATOM     14  C   LIG    1       30.772 -19.107   6.329  0.00  0.00    +0.011 C 
BRANCH  13  15
ATOM     15  C   LIG    1       30.001 -18.508   8.652  0.00  0.00    +0.095 C 
BRANCH  15  18
ATOM     16  C   LIG    1       33.024 -15.971   9.871  0.00  0.00    +0.106 C 
ATOM     17  C   LIG    1       31.962 -16.893   9.454  0.00  0.00    -0.106 C 
ATOM     18  C   LIG    1       31.097 -17.628   9.105  0.00  0.00    -0.102 C 
ENDBRANCH  15  18
ENDBRANCH  13  15
ENDBRANCH  12  13
BRANCH  12  19
ATOM     19  O   LIG    1       29.609 -21.537   8.931  0.00  0.00    -0.388 OA
ATOM     20  H   LIG    1       30.345 -21.150   9.443  0.00  0.00    +0.210 HD
ENDBRANCH  12  19
ENDBRANCH  10  12
ENDBRANCH   1  11
BRANCH   9  21
ATOM     21  O   LIG    1       25.159 -20.317   8.772  0.00  0.00    -0.391 OA
ATOM     22  H   LIG    1       24.492 -20.610   9.418  0.00  0.00    +0.210 HD
ENDBRANCH   9  21
BRANCH   6  23
ATOM     23  C   LIG    1       25.641 -26.924   6.046  0.00  0.00    +0.028 C 
BRANCH  23  24
ATOM     24  C   LIG    1       25.996 -27.807   7.245  0.00  0.00    +0.015 C 
BRANCH  24  25
ATOM     25  C   LIG    1       24.958 -28.893   7.486  0.00  0.00    +0.121 C 
BRANCH  25  26
ATOM     26  C   LIG    1       25.058 -30.036   6.512  0.00  0.00    +0.307 C 
ATOM     27  O   LIG    1       25.162 -29.917   5.299  0.00  0.00    -0.251 OA
BRANCH  26  28
ATOM     28  O   LIG    1       25.101 -31.209   7.200  0.00  0.00    -0.457 OA
BRANCH  28  29
ATOM     29  C   LIG    1       24.710 -31.087   8.558  0.00  0.00    +0.311 C 
BRANCH  29  30
ATOM     30  C   LIG    1       23.329 -31.636   8.927  0.00  0.00    +0.200 C 
ATOM     31  O   LIG    1       22.781 -32.535   8.290  0.00  0.00    -0.288 OA
BRANCH  30  32
ATOM     32  C   LIG    1       22.610 -30.978  10.059  0.00  0.00    +0.021 A 
ATOM     33  C   LIG    1       23.216 -29.983  10.838  0.00  0.00    +0.011 A 
ATOM     34  C   LIG    1       22.518 -29.380  11.884  0.00  0.00    +0.001 A 
ATOM     35  C   LIG    1       21.217 -29.782  12.175  0.00  0.00    +0.000 A 
ATOM     36  C   LIG    1       20.610 -30.781  11.415  0.00  0.00    +0.001 A 
ATOM     37  C   LIG    1       21.304 -31.376  10.357  0.00  0.00    +0.011 A 
ENDBRANCH  30  32
ENDBRANCH  29  30
ENDBRANCH  28  29
ENDBRANCH  26  28
ENDBRANCH  25  26
ENDBRANCH  24  25
ENDBRANCH  23  24
ENDBRANCH   6  23
TORSDOF 15
ENDMDL
MODEL 7
REMARK VINA RESULT:      -8.6      1.976     10.441
REMARK  Name = *****
REMARK                            x       y       z     vdW  Elec       q    Type
REMARK                         _______ _______ _______ _____ _____    ______ ____
ROOT
ATOM      1  C   LIG    1       24.870 -27.785   6.688  0.00  0.00    +0.044 C 
ATOM      2  C   LIG    1       24.597 -26.261   6.583  0.00  0.00    +0.006 C 
ATOM      3  C   LIG    1       24.424 -25.943   5.095  0.00  0.00    -0.001 C 
ATOM      4  C   LIG    1       24.850 -24.484   4.905  0.00  0.00    +0.034 C 
ATOM      5  C   LIG    1       25.514 -24.107   6.203  0.00  0.00    -0.073 C 
ATOM      6  C   LIG    1       25.721 -22.834   6.583  0.00  0.00    -0.027 C 
ATOM      7  C   LIG    1       25.336 -26.942   4.400  0.00  0.00    +0.036 C 
ATOM      8  C   LIG    1       25.726 -25.337   7.042  0.00  0.00    +0.035 C 
ATOM      9  C   LIG    1       25.223 -28.221   5.230  0.00  0.00    +0.122 C 
ENDROOT
BRANCH   1  11
ATOM     10  C   LIG    1       25.660 -29.202   8.704  0.00  0.00    +0.000 C 
ATOM     11  C   LIG    1       25.738 -28.138   7.883  0.00  0.00    -0.022 C 
BRANCH  10  12
ATOM     12  C   LIG    1       26.576 -29.437   9.890  0.00  0.00    +0.141 C 
BRANCH  12  13
ATOM     13  C   LIG    1       25.917 -29.403  11.290  0.00  0.00    +0.030 C 
ATOM     14  C   LIG    1       26.160 -28.037  11.963  0.00  0.00    +0.011 C 
BRANCH  13  15
ATOM     15  C   LIG    1       24.421 -29.734  11.296  0.00  0.00    +0.095 C 
BRANCH  15  18
ATOM     16  C   LIG    1       22.303 -27.170  13.747  0.00  0.00    +0.106 C 
ATOM     17  C   LIG    1       23.030 -28.089  12.864  0.00  0.00    -0.106 C 
ATOM     18  C   LIG    1       23.633 -28.830  12.159  0.00  0.00    -0.102 C 
ENDBRANCH  15  18
ENDBRANCH  13  15
ENDBRANCH  12  13
BRANCH  12  19
ATOM     19  O   LIG    1       27.216 -30.713   9.758  0.00  0.00    -0.388 OA
ATOM     20  H   LIG    1       27.963 -30.751  10.386  0.00  0.00    +0.210 HD
ENDBRANCH  12  19
ENDBRANCH  10  12
ENDBRANCH   1  11
BRANCH   9  21
ATOM     21  O   LIG    1       26.413 -28.975   5.075  0.00  0.00    -0.391 OA
ATOM     22  H   LIG    1       26.674 -29.280   5.962  0.00  0.00    +0.210 HD
ENDBRANCH   9  21
BRANCH   6  23
ATOM     23  C   LIG    1       26.191 -22.415   7.946  0.00  0.00    +0.028 C 
BRANCH  23  24
ATOM     24  C   LIG    1       27.564 -21.738   7.932  0.00  0.00    +0.015 C 
BRANCH  24  25
ATOM     25  C   LIG    1       27.474 -20.266   7.554  0.00  0.00    +0.121 C 
BRANCH  25  26
ATOM     26  C   LIG    1       28.362 -19.895   6.398  0.00  0.00    +0.307 C 
ATOM     27  O   LIG    1       27.969 -19.553   5.292  0.00  0.00    -0.251 OA
BRANCH  26  28
ATOM     28  O   LIG    1       29.660 -19.916   6.805  0.00  0.00    -0.457 OA
BRANCH  28  29
ATOM     29  C   LIG    1       30.010 -18.830   7.649  0.00  0.00    +0.311 C 
BRANCH  29  30
ATOM     30  C   LIG    1       30.744 -19.177   8.948  0.00  0.00    +0.200 C 
ATOM     31  O   LIG    1       30.823 -20.328   9.377  0.00  0.00    -0.288 OA
BRANCH  30  32
ATOM     32  C   LIG    1       31.304 -18.044   9.742  0.00  0.00    +0.021 A 
ATOM     33  C   LIG    1       30.898 -17.795  11.060  0.00  0.00    +0.011 A 
ATOM     34  C   LIG    1       31.443 -16.732  11.781  0.00  0.00    +0.001 A 
ATOM     35  C   LIG    1       32.382 -15.896  11.184  0.00  0.00    +0.000 A 
ATOM     36  C   LIG    1       32.783 -16.126   9.868  0.00  0.00    +0.001 A 
ATOM     37  C   LIG    1       32.248 -17.199   9.149  0.00  0.00    +0.011 A 
ENDBRANCH  30  32
ENDBRANCH  29  30
ENDBRANCH  28  29
ENDBRANCH  26  28
ENDBRANCH  25  26
ENDBRANCH  24  25
ENDBRANCH  23  24
ENDBRANCH   6  23
TORSDOF 15
ENDMDL
MODEL 8
REMARK VINA RESULT:      -8.5      3.059      9.861
REMARK  Name = *****
REMARK                            x       y       z     vdW  Elec       q    Type
REMARK                         _______ _______ _______ _____ _____    ______ ____
ROOT
ATOM      1  C   LIG    1       24.619 -29.481   7.417  0.00  0.00    +0.044 C 
ATOM      2  C   LIG    1       24.412 -28.075   6.794  0.00  0.00    +0.006 C 
ATOM      3  C   LIG    1       24.559 -28.238   5.278  0.00  0.00    -0.001 C 
ATOM      4  C   LIG    1       25.052 -26.892   4.737  0.00  0.00    +0.034 C 
ATOM      5  C   LIG    1       25.444 -26.108   5.962  0.00  0.00    -0.073 C 
ATOM      6  C   LIG    1       25.601 -24.773   5.963  0.00  0.00    -0.027 C 
ATOM      7  C   LIG    1       25.569 -29.365   5.127  0.00  0.00    +0.036 C 
ATOM      8  C   LIG    1       25.447 -27.011   7.165  0.00  0.00    +0.035 C 
ATOM      9  C   LIG    1       25.254 -30.331   6.270  0.00  0.00    +0.122 C 
ENDROOT
BRANCH   1  11
ATOM     10  C   LIG    1       25.074 -30.278   9.837  0.00  0.00    +0.000 C 
ATOM     11  C   LIG    1       25.212 -29.415   8.814  0.00  0.00    -0.022 C 
BRANCH  10  12
ATOM     12  C   LIG    1       25.701 -30.091  11.206  0.00  0.00    +0.141 C 
BRANCH  12  13
ATOM     13  C   LIG    1       24.846 -30.522  12.423  0.00  0.00    +0.030 C 
ATOM     14  C   LIG    1       25.302 -31.903  12.935  0.00  0.00    +0.011 C 
BRANCH  13  15
ATOM     15  C   LIG    1       24.829 -29.513  13.576  0.00  0.00    +0.095 C 
BRANCH  15  18
ATOM     16  C   LIG    1       22.051 -26.486  13.149  0.00  0.00    +0.106 C 
ATOM     17  C   LIG    1       23.035 -27.566  13.272  0.00  0.00    -0.106 C 
ATOM     18  C   LIG    1       23.831 -28.440  13.390  0.00  0.00    -0.102 C 
ENDBRANCH  15  18
ENDBRANCH  13  15
ENDBRANCH  12  13
BRANCH  12  19
ATOM     19  O   LIG    1       26.930 -30.825  11.277  0.00  0.00    -0.388 OA
ATOM     20  H   LIG    1       27.640 -30.216  11.557  0.00  0.00    +0.210 HD
ENDBRANCH  12  19
ENDBRANCH  10  12
ENDBRANCH   1  11
BRANCH   9  21
ATOM     21  O   LIG    1       26.430 -31.047   6.603  0.00  0.00    -0.391 OA
ATOM     22  H   LIG    1       26.437 -31.853   6.057  0.00  0.00    +0.210 HD
ENDBRANCH   9  21
BRANCH   6  23
ATOM     23  C   LIG    1       25.790 -23.937   7.196  0.00  0.00    +0.028 C 
BRANCH  23  24
ATOM     24  C   LIG    1       26.913 -22.905   7.062  0.00  0.00    +0.015 C 
BRANCH  24  25
ATOM     25  C   LIG    1       26.386 -21.477   7.081  0.00  0.00    +0.121 C 
BRANCH  25  26
ATOM     26  C   LIG    1       25.576 -21.161   8.309  0.00  0.00    +0.307 C 
ATOM     27  O   LIG    1       25.969 -21.282   9.460  0.00  0.00    -0.251 OA
BRANCH  26  28
ATOM     28  O   LIG    1       24.377 -20.639   7.933  0.00  0.00    -0.457 OA
BRANCH  28  29
ATOM     29  C   LIG    1       23.357 -21.612   7.771  0.00  0.00    +0.311 C 
BRANCH  29  30
ATOM     30  C   LIG    1       22.842 -21.838   6.347  0.00  0.00    +0.200 C 
ATOM     31  O   LIG    1       22.258 -22.867   6.009  0.00  0.00    -0.288 OA
BRANCH  30  32
ATOM     32  C   LIG    1       23.150 -20.786   5.332  0.00  0.00    +0.021 A 
ATOM     33  C   LIG    1       22.407 -19.601   5.250  0.00  0.00    +0.011 A 
ATOM     34  C   LIG    1       22.721 -18.632   4.297  0.00  0.00    +0.001 A 
ATOM     35  C   LIG    1       23.766 -18.850   3.403  0.00  0.00    +0.000 A 
ATOM     36  C   LIG    1       24.502 -20.033   3.465  0.00  0.00    +0.001 A 
ATOM     37  C   LIG    1       24.197 -20.998   4.430  0.00  0.00    +0.011 A 
ENDBRANCH  30  32
ENDBRANCH  29  30
ENDBRANCH  28  29
ENDBRANCH  26  28
ENDBRANCH  25  26
ENDBRANCH  24  25
ENDBRANCH  23  24
ENDBRANCH   6  23
TORSDOF 15
ENDMDL
MODEL 9
REMARK VINA RESULT:      -8.4      3.634      6.508
REMARK  Name = *****
REMARK                            x       y       z     vdW  Elec       q    Type
REMARK                         _______ _______ _______ _____ _____    ______ ____
ROOT
ATOM      1  C   LIG    1       25.770 -25.949   6.050  0.00  0.00    +0.044 C 
ATOM      2  C   LIG    1       26.268 -27.236   6.761  0.00  0.00    +0.006 C 
ATOM      3  C   LIG    1       25.383 -28.385   6.267  0.00  0.00    -0.001 C 
ATOM      4  C   LIG    1       25.355 -29.431   7.386  0.00  0.00    +0.034 C 
ATOM      5  C   LIG    1       25.970 -28.737   8.573  0.00  0.00    -0.073 C 
ATOM      6  C   LIG    1       26.446 -29.394   9.645  0.00  0.00    -0.027 C 
ATOM      7  C   LIG    1       24.036 -27.725   6.013  0.00  0.00    +0.036 C 
ATOM      8  C   LIG    1       26.121 -27.269   8.283  0.00  0.00    +0.035 C 
ATOM      9  C   LIG    1       24.375 -26.338   5.465  0.00  0.00    +0.122 C 
ENDROOT
BRANCH   1  11
ATOM     10  C   LIG    1       25.897 -23.409   6.527  0.00  0.00    +0.000 C 
ATOM     11  C   LIG    1       25.990 -24.702   6.888  0.00  0.00    -0.022 C 
BRANCH  10  12
ATOM     12  C   LIG    1       26.165 -22.238   7.455  0.00  0.00    +0.141 C 
BRANCH  12  13
ATOM     13  C   LIG    1       25.399 -20.927   7.153  0.00  0.00    +0.030 C 
ATOM     14  C   LIG    1       25.874 -20.327   5.815  0.00  0.00    +0.011 C 
BRANCH  13  15
ATOM     15  C   LIG    1       23.873 -21.067   7.155  0.00  0.00    +0.095 C 
BRANCH  15  18
ATOM     16  C   LIG    1       21.976 -18.757   4.305  0.00  0.00    +0.106 C 
ATOM     17  C   LIG    1       22.669 -19.585   5.297  0.00  0.00    -0.106 C 
ATOM     18  C   LIG    1       23.218 -20.254   6.112  0.00  0.00    -0.102 C 
ENDBRANCH  15  18
ENDBRANCH  13  15
ENDBRANCH  12  13
BRANCH  12  19
ATOM     19  O   LIG    1       25.847 -22.609   8.802  0.00  0.00    -0.388 OA
ATOM     20  H   LIG    1       26.628 -22.439   9.363  0.00  0.00    +0.210 HD
ENDBRANCH  12  19
ENDBRANCH  10  12
ENDBRANCH   1  11
BRANCH   9  21
ATOM     21  O   LIG    1       23.307 -25.455   5.761  0.00  0.00    -0.391 OA
ATOM     22  H   LIG    1       22.999 -25.670   6.659  0.00  0.00    +0.210 HD
ENDBRANCH   9  21
BRANCH   6  23
ATOM     23  C   LIG    1       27.244 -28.762  10.750  0.00  0.00    +0.028 C 
BRANCH  23  24
ATOM     24  C   LIG    1       27.591 -29.734  11.879  0.00  0.00    +0.015 C 
BRANCH  24  25
ATOM     25  C   LIG    1       28.395 -29.065  12.986  0.00  0.00    +0.121 C 
BRANCH  25  26
ATOM     26  C   LIG    1       27.575 -28.752  14.208  0.00  0.00    +0.307 C 
ATOM     27  O   LIG    1       26.886 -29.558  14.817  0.00  0.00    -0.251 OA
BRANCH  26  28
ATOM     28  O   LIG    1       27.793 -27.459  14.574  0.00  0.00    -0.457 OA
BRANCH  28  29
ATOM     29  C   LIG    1       26.602 -26.729  14.823  0.00  0.00    +0.311 C 
BRANCH  29  30
ATOM     30  C   LIG    1       25.841 -26.217  13.596  0.00  0.00    +0.200 C 
ATOM     31  O   LIG    1       26.281 -25.329  12.866  0.00  0.00    -0.288 OA
BRANCH  30  32
ATOM     32  C   LIG    1       24.480 -26.781  13.350  0.00  0.00    +0.021 A 
ATOM     33  C   LIG    1       23.318 -26.047  13.624  0.00  0.00    +0.011 A 
ATOM     34  C   LIG    1       22.059 -26.596  13.378  0.00  0.00    +0.001 A 
ATOM     35  C   LIG    1       21.951 -27.890  12.877  0.00  0.00    +0.000 A 
ATOM     36  C   LIG    1       23.101 -28.635  12.614  0.00  0.00    +0.001 A 
ATOM     37  C   LIG    1       24.363 -28.080  12.848  0.00  0.00    +0.011 A 
ENDBRANCH  30  32
ENDBRANCH  29  30
ENDBRANCH  28  29
ENDBRANCH  26  28
ENDBRANCH  25  26
ENDBRANCH  24  25
ENDBRANCH  23  24
ENDBRANCH   6  23
TORSDOF 15
ENDMDL
