MODEL 1
REMARK VINA RESULT:      -8.3      0.000      0.000
REMARK  Name = *****
REMARK                            x       y       z     vdW  Elec       q    Type
REMARK                         _______ _______ _______ _____ _____    ______ ____
ROOT
ATOM      1  O   LIG    1       27.024 -21.749   7.385  0.00  0.00    -0.489 OA
ENDROOT
BRANCH   1   2
ATOM      2  C   LIG    1       25.677 -21.965   7.277  0.00  0.00    +0.126 A 
ATOM      3  C   LIG    1       25.298 -23.256   6.870  0.00  0.00    +0.016 A 
ATOM      4  C   LIG    1       26.314 -24.338   6.613  0.00  0.00    +0.050 C 
ATOM      5  C   LIG    1       25.720 -25.722   6.822  0.00  0.00    +0.101 C 
ATOM      6  C   LIG    1       24.395 -25.886   6.115  0.00  0.00    +0.217 C 
ATOM      7  N   LIG    1       23.577 -24.785   6.110  0.00  0.00    -0.285 N 
ATOM      8  H   LIG    1       22.640 -24.942   5.762  0.00  0.00    +0.155 HD
ATOM      9  O   LIG    1       24.010 -26.958   5.678  0.00  0.00    -0.276 OA
ATOM     10  C   LIG    1       23.951 -23.527   6.593  0.00  0.00    +0.040 A 
ATOM     11  C   LIG    1       22.975 -22.553   6.783  0.00  0.00    +0.024 A 
ATOM     12  C   LIG    1       23.340 -21.315   7.307  0.00  0.00    +0.005 A 
ATOM     13  C   LIG    1       24.687 -21.021   7.556  0.00  0.00    +0.046 A 
ENDBRANCH   1   2
BRANCH   1  14
ATOM     14  C   LIG    1       27.535 -20.407   7.353  0.00  0.00    +0.261 C 
BRANCH  14  15
ATOM     15  C   LIG    1       28.496 -20.146   6.163  0.00  0.00    +0.166 C 
BRANCH  15  16
ATOM     16  O   LIG    1       27.759 -20.182   4.930  0.00  0.00    -0.387 OA
ATOM     17  H   LIG    1       28.095 -20.943   4.425  0.00  0.00    +0.210 HD
ENDBRANCH  15  16
BRANCH  15  18
ATOM     18  C   LIG    1       29.276 -18.808   6.272  0.00  0.00    +0.116 C 
BRANCH  18  19
ATOM     19  N   LIG    1       30.679 -18.972   6.714  0.00  0.00    -0.309 NA
ATOM     20  H   LIG    1       31.244 -18.273   6.222  0.00  0.00    +0.122 HD
BRANCH  19  22
ATOM     21  C   LIG    1       32.215 -18.073   8.416  0.00  0.00    +0.027 C 
ATOM     22  C   LIG    1       30.912 -18.871   8.176  0.00  0.00    +0.011 C 
ATOM     23  C   LIG    1       29.772 -18.133   8.904  0.00  0.00    +0.027 C 
ATOM     24  C   LIG    1       31.110 -20.260   8.809  0.00  0.00    +0.027 C 
ENDBRANCH  19  22
ENDBRANCH  18  19
ENDBRANCH  15  18
ENDBRANCH  14  15
ENDBRANCH   1  14
TORSDOF 7
ENDMDL
MODEL 2
REMARK VINA RESULT:      -8.2      2.910      3.937
REMARK  Name = *****
REMARK                            x       y       z     vdW  Elec       q    Type
REMARK                         _______ _______ _______ _____ _____    ______ ____
ROOT
ATOM      1  O   LIG    1       28.671 -20.374   6.193  0.00  0.00    -0.489 OA
ENDROOT
BRANCH   1   2
ATOM      2  C   LIG    1       27.518 -20.823   6.777  0.00  0.00    +0.126 A 
ATOM      3  C   LIG    1       26.328 -20.513   6.095  0.00  0.00    +0.016 A 
ATOM      4  C   LIG    1       26.335 -19.772   4.784  0.00  0.00    +0.050 C 
ATOM      5  C   LIG    1       25.107 -20.101   3.950  0.00  0.00    +0.101 C 
ATOM      6  C   LIG    1       23.830 -20.003   4.752  0.00  0.00    +0.217 C 
ATOM      7  N   LIG    1       23.906 -20.426   6.055  0.00  0.00    -0.285 N 
ATOM      8  H   LIG    1       23.021 -20.491   6.542  0.00  0.00    +0.155 HD
ATOM      9  O   LIG    1       22.763 -19.686   4.254  0.00  0.00    -0.276 OA
ATOM     10  C   LIG    1       25.093 -20.805   6.689  0.00  0.00    +0.040 A 
ATOM     11  C   LIG    1       25.029 -21.460   7.915  0.00  0.00    +0.024 A 
ATOM     12  C   LIG    1       26.210 -21.878   8.526  0.00  0.00    +0.005 A 
ATOM     13  C   LIG    1       27.451 -21.563   7.959  0.00  0.00    +0.046 A 
ENDBRANCH   1   2
BRANCH   1  14
ATOM     14  C   LIG    1       29.449 -19.357   6.843  0.00  0.00    +0.261 C 
BRANCH  14  15
ATOM     15  C   LIG    1       30.682 -19.920   7.599  0.00  0.00    +0.166 C 
BRANCH  15  16
ATOM     16  O   LIG    1       31.888 -19.442   6.980  0.00  0.00    -0.387 OA
ATOM     17  H   LIG    1       31.920 -18.482   7.134  0.00  0.00    +0.210 HD
ENDBRANCH  15  16
BRANCH  15  18
ATOM     18  C   LIG    1       30.695 -19.579   9.113  0.00  0.00    +0.116 C 
BRANCH  18  19
ATOM     19  N   LIG    1       31.872 -18.786   9.534  0.00  0.00    -0.309 NA
ATOM     20  H   LIG    1       32.513 -18.733   8.737  0.00  0.00    +0.122 HD
BRANCH  19  22
ATOM     21  C   LIG    1       30.188 -16.988   9.533  0.00  0.00    +0.027 C 
ATOM     22  C   LIG    1       31.584 -17.422  10.041  0.00  0.00    +0.011 C 
ATOM     23  C   LIG    1       31.559 -17.359  11.581  0.00  0.00    +0.027 C 
ATOM     24  C   LIG    1       32.600 -16.399   9.502  0.00  0.00    +0.027 C 
ENDBRANCH  19  22
ENDBRANCH  18  19
ENDBRANCH  15  18
ENDBRANCH  14  15
ENDBRANCH   1  14
TORSDOF 7
ENDMDL
MODEL 3
REMARK VINA RESULT:      -8.1      2.533      3.966
REMARK  Name = *****
REMARK                            x       y       z     vdW  Elec       q    Type
REMARK                         _______ _______ _______ _____ _____    ______ ____
ROOT
ATOM      1  O   LIG    1       28.784 -21.059   8.365  0.00  0.00    -0.489 OA
ENDROOT
BRANCH   1   2
ATOM      2  C   LIG    1       28.136 -20.550   7.273  0.00  0.00    +0.126 A 
ATOM      3  C   LIG    1       26.798 -20.954   7.115  0.00  0.00    +0.016 A 
ATOM      4  C   LIG    1       26.118 -21.855   8.113  0.00  0.00    +0.050 C 
ATOM      5  C   LIG    1       24.613 -21.643   8.119  0.00  0.00    +0.101 C 
ATOM      6  C   LIG    1       24.029 -21.650   6.724  0.00  0.00    +0.217 C 
ATOM      7  N   LIG    1       24.798 -21.066   5.750  0.00  0.00    -0.285 N 
ATOM      8  H   LIG    1       24.345 -20.947   4.853  0.00  0.00    +0.155 HD
ATOM      9  O   LIG    1       22.898 -22.037   6.486  0.00  0.00    -0.276 OA
ATOM     10  C   LIG    1       26.101 -20.600   5.952  0.00  0.00    +0.040 A 
ATOM     11  C   LIG    1       26.693 -19.796   4.983  0.00  0.00    +0.024 A 
ATOM     12  C   LIG    1       27.974 -19.294   5.204  0.00  0.00    +0.005 A 
ATOM     13  C   LIG    1       28.694 -19.668   6.346  0.00  0.00    +0.046 A 
ENDBRANCH   1   2
BRANCH   1  14
ATOM     14  C   LIG    1       30.154 -21.475   8.250  0.00  0.00    +0.261 C 
BRANCH  14  15
ATOM     15  C   LIG    1       31.100 -20.740   9.238  0.00  0.00    +0.166 C 
BRANCH  15  16
ATOM     16  O   LIG    1       32.288 -21.523   9.440  0.00  0.00    -0.387 OA
ATOM     17  H   LIG    1       32.010 -22.347   9.875  0.00  0.00    +0.210 HD
ENDBRANCH  15  16
BRANCH  15  18
ATOM     18  C   LIG    1       31.484 -19.307   8.785  0.00  0.00    +0.116 C 
BRANCH  18  19
ATOM     19  N   LIG    1       32.167 -18.515   9.832  0.00  0.00    -0.309 NA
ATOM     20  H   LIG    1       33.151 -18.423   9.561  0.00  0.00    +0.122 HD
BRANCH  19  22
ATOM     21  C   LIG    1       31.515 -16.972  11.639  0.00  0.00    +0.027 C 
ATOM     22  C   LIG    1       31.593 -17.175  10.107  0.00  0.00    +0.011 C 
ATOM     23  C   LIG    1       32.455 -16.036   9.530  0.00  0.00    +0.027 C 
ATOM     24  C   LIG    1       30.158 -17.058   9.562  0.00  0.00    +0.027 C 
ENDBRANCH  19  22
ENDBRANCH  18  19
ENDBRANCH  15  18
ENDBRANCH  14  15
ENDBRANCH   1  14
TORSDOF 7
ENDMDL
MODEL 4
REMARK VINA RESULT:      -8.1      2.007      7.048
REMARK  Name = *****
REMARK                            x       y       z     vdW  Elec       q    Type
REMARK                         _______ _______ _______ _____ _____    ______ ____
ROOT
ATOM      1  O   LIG    1       26.711 -21.176   6.705  0.00  0.00    -0.489 OA
ENDROOT
BRANCH   1   2
ATOM      2  C   LIG    1       27.721 -20.318   6.363  0.00  0.00    +0.126 A 
ATOM      3  C   LIG    1       28.876 -20.386   7.161  0.00  0.00    +0.016 A 
ATOM      4  C   LIG    1       29.002 -21.374   8.291  0.00  0.00    +0.050 C 
ATOM      5  C   LIG    1       30.456 -21.718   8.572  0.00  0.00    +0.101 C 
ATOM      6  C   LIG    1       31.324 -20.486   8.679  0.00  0.00    +0.217 C 
ATOM      7  N   LIG    1       31.017 -19.460   7.821  0.00  0.00    -0.285 N 
ATOM      8  H   LIG    1       31.684 -18.700   7.798  0.00  0.00    +0.155 HD
ATOM      9  O   LIG    1       32.312 -20.437   9.391  0.00  0.00    -0.276 OA
ATOM     10  C   LIG    1       29.902 -19.449   6.978  0.00  0.00    +0.040 A 
ATOM     11  C   LIG    1       29.822 -18.495   5.968  0.00  0.00    +0.024 A 
ATOM     12  C   LIG    1       28.733 -18.512   5.099  0.00  0.00    +0.005 A 
ATOM     13  C   LIG    1       27.685 -19.421   5.293  0.00  0.00    +0.046 A 
ENDBRANCH   1   2
BRANCH   1  14
ATOM     14  C   LIG    1       25.537 -20.669   7.358  0.00  0.00    +0.261 C 
BRANCH  14  15
ATOM     15  C   LIG    1       24.332 -21.646   7.295  0.00  0.00    +0.166 C 
BRANCH  15  16
ATOM     16  O   LIG    1       23.169 -21.013   7.854  0.00  0.00    -0.387 OA
ATOM     17  H   LIG    1       22.396 -21.417   7.423  0.00  0.00    +0.210 HD
ENDBRANCH  15  16
BRANCH  15  18
ATOM     18  C   LIG    1       24.018 -22.158   5.864  0.00  0.00    +0.116 C 
BRANCH  18  19
ATOM     19  N   LIG    1       25.033 -23.095   5.332  0.00  0.00    -0.309 NA
ATOM     20  H   LIG    1       25.957 -22.708   5.547  0.00  0.00    +0.122 HD
BRANCH  19  22
ATOM     21  C   LIG    1       25.123 -25.453   4.626  0.00  0.00    +0.027 C 
ATOM     22  C   LIG    1       24.945 -24.491   5.825  0.00  0.00    +0.011 C 
ATOM     23  C   LIG    1       26.041 -24.823   6.855  0.00  0.00    +0.027 C 
ATOM     24  C   LIG    1       23.562 -24.783   6.436  0.00  0.00    +0.027 C 
ENDBRANCH  19  22
ENDBRANCH  18  19
ENDBRANCH  15  18
ENDBRANCH  14  15
ENDBRANCH   1  14
TORSDOF 7
ENDMDL
MODEL 5
REMARK VINA RESULT:      -8.0      2.443      4.005
REMARK  Name = *****
REMARK                            x       y       z     vdW  Elec       q    Type
REMARK                         _______ _______ _______ _____ _____    ______ ____
ROOT
ATOM      1  O   LIG    1       26.648 -22.468   7.555  0.00  0.00    -0.489 OA
ENDROOT
BRANCH   1   2
ATOM      2  C   LIG    1       25.339 -22.817   7.361  0.00  0.00    +0.126 A 
ATOM      3  C   LIG    1       25.123 -24.097   6.821  0.00  0.00    +0.016 A 
ATOM      4  C   LIG    1       26.263 -25.034   6.519  0.00  0.00    +0.050 C 
ATOM      5  C   LIG    1       25.820 -26.487   6.573  0.00  0.00    +0.101 C 
ATOM      6  C   LIG    1       24.550 -26.726   5.788  0.00  0.00    +0.217 C 
ATOM      7  N   LIG    1       23.616 -25.723   5.841  0.00  0.00    -0.285 N 
ATOM      8  H   LIG    1       22.716 -25.947   5.434  0.00  0.00    +0.155 HD
ATOM      9  O   LIG    1       24.306 -27.786   5.238  0.00  0.00    -0.276 OA
ATOM     10  C   LIG    1       23.827 -24.485   6.454  0.00  0.00    +0.040 A 
ATOM     11  C   LIG    1       22.741 -23.644   6.681  0.00  0.00    +0.024 A 
ATOM     12  C   LIG    1       22.944 -22.429   7.332  0.00  0.00    +0.005 A 
ATOM     13  C   LIG    1       24.239 -22.016   7.673  0.00  0.00    +0.046 A 
ENDBRANCH   1   2
BRANCH   1  14
ATOM     14  C   LIG    1       26.987 -21.100   7.825  0.00  0.00    +0.261 C 
BRANCH  14  15
ATOM     15  C   LIG    1       27.704 -20.401   6.638  0.00  0.00    +0.166 C 
BRANCH  15  16
ATOM     16  O   LIG    1       28.892 -21.132   6.294  0.00  0.00    -0.387 OA
ATOM     17  H   LIG    1       29.032 -21.005   5.340  0.00  0.00    +0.210 HD
ENDBRANCH  15  16
BRANCH  15  18
ATOM     18  C   LIG    1       26.808 -20.228   5.383  0.00  0.00    +0.116 C 
BRANCH  18  19
ATOM     19  N   LIG    1       25.381 -19.995   5.698  0.00  0.00    -0.309 NA
ATOM     20  H   LIG    1       25.306 -19.076   6.144  0.00  0.00    +0.122 HD
BRANCH  19  22
ATOM     21  C   LIG    1       24.939 -19.125   3.436  0.00  0.00    +0.027 C 
ATOM     22  C   LIG    1       24.444 -20.077   4.551  0.00  0.00    +0.011 C 
ATOM     23  C   LIG    1       24.368 -21.495   3.953  0.00  0.00    +0.027 C 
ATOM     24  C   LIG    1       23.031 -19.612   4.947  0.00  0.00    +0.027 C 
ENDBRANCH  19  22
ENDBRANCH  18  19
ENDBRANCH  15  18
ENDBRANCH  14  15
ENDBRANCH   1  14
TORSDOF 7
ENDMDL
MODEL 6
REMARK VINA RESULT:      -7.8      1.962      7.201
REMARK  Name = *****
REMARK                            x       y       z     vdW  Elec       q    Type
REMARK                         _______ _______ _______ _____ _____    ______ ____
ROOT
ATOM      1  O   LIG    1       26.741 -21.416   6.692  0.00  0.00    -0.489 OA
ENDROOT
BRANCH   1   2
ATOM      2  C   LIG    1       27.675 -20.475   6.355  0.00  0.00    +0.126 A 
ATOM      3  C   LIG    1       28.837 -20.460   7.147  0.00  0.00    +0.016 A 
ATOM      4  C   LIG    1       29.050 -21.449   8.263  0.00  0.00    +0.050 C 
ATOM      5  C   LIG    1       30.529 -21.678   8.531  0.00  0.00    +0.101 C 
ATOM      6  C   LIG    1       31.295 -20.381   8.649  0.00  0.00    +0.217 C 
ATOM      7  N   LIG    1       30.900 -19.373   7.807  0.00  0.00    -0.285 N 
ATOM      8  H   LIG    1       31.504 -18.560   7.790  0.00  0.00    +0.155 HD
ATOM      9  O   LIG    1       32.281 -20.261   9.357  0.00  0.00    -0.276 OA
ATOM     10  C   LIG    1       29.783 -19.441   6.970  0.00  0.00    +0.040 A 
ATOM     11  C   LIG    1       29.620 -18.483   5.973  0.00  0.00    +0.024 A 
ATOM     12  C   LIG    1       28.530 -18.577   5.110  0.00  0.00    +0.005 A 
ATOM     13  C   LIG    1       27.561 -19.571   5.298  0.00  0.00    +0.046 A 
ENDBRANCH   1   2
BRANCH   1  14
ATOM     14  C   LIG    1       25.360 -21.197   6.365  0.00  0.00    +0.261 C 
BRANCH  14  15
ATOM     15  C   LIG    1       24.591 -22.506   6.043  0.00  0.00    +0.166 C 
BRANCH  15  16
ATOM     16  O   LIG    1       24.745 -22.827   4.651  0.00  0.00    -0.387 OA
ATOM     17  H   LIG    1       24.053 -23.475   4.435  0.00  0.00    +0.210 HD
ENDBRANCH  15  16
BRANCH  15  18
ATOM     18  C   LIG    1       25.025 -23.715   6.915  0.00  0.00    +0.116 C 
BRANCH  18  19
ATOM     19  N   LIG    1       25.972 -24.627   6.236  0.00  0.00    -0.309 NA
ATOM     20  H   LIG    1       26.857 -24.598   6.752  0.00  0.00    +0.122 HD
BRANCH  19  22
ATOM     21  C   LIG    1       26.054 -26.587   4.746  0.00  0.00    +0.027 C 
ATOM     22  C   LIG    1       25.521 -26.033   6.088  0.00  0.00    +0.011 C 
ATOM     23  C   LIG    1       26.052 -26.943   7.213  0.00  0.00    +0.027 C 
ATOM     24  C   LIG    1       23.985 -26.125   6.036  0.00  0.00    +0.027 C 
ENDBRANCH  19  22
ENDBRANCH  18  19
ENDBRANCH  15  18
ENDBRANCH  14  15
ENDBRANCH   1  14
TORSDOF 7
ENDMDL
MODEL 7
REMARK VINA RESULT:      -7.7      2.432      7.126
REMARK  Name = *****
REMARK                            x       y       z     vdW  Elec       q    Type
REMARK                         _______ _______ _______ _____ _____    ______ ____
ROOT
ATOM      1  O   LIG    1       26.998 -21.902   7.008  0.00  0.00    -0.489 OA
ENDROOT
BRANCH   1   2
ATOM      2  C   LIG    1       27.718 -20.830   6.555  0.00  0.00    +0.126 A 
ATOM      3  C   LIG    1       28.874 -20.518   7.291  0.00  0.00    +0.016 A 
ATOM      4  C   LIG    1       29.308 -21.342   8.475  0.00  0.00    +0.050 C 
ATOM      5  C   LIG    1       30.809 -21.252   8.696  0.00  0.00    +0.101 C 
ATOM      6  C   LIG    1       31.306 -19.825   8.673  0.00  0.00    +0.217 C 
ATOM      7  N   LIG    1       30.697 -18.993   7.768  0.00  0.00    -0.285 N 
ATOM      8  H   LIG    1       31.127 -18.084   7.658  0.00  0.00    +0.155 HD
ATOM      9  O   LIG    1       32.267 -19.452   9.324  0.00  0.00    -0.276 OA
ATOM     10  C   LIG    1       29.594 -19.354   6.989  0.00  0.00    +0.040 A 
ATOM     11  C   LIG    1       29.218 -18.540   5.924  0.00  0.00    +0.024 A 
ATOM     12  C   LIG    1       28.146 -18.922   5.120  0.00  0.00    +0.005 A 
ATOM     13  C   LIG    1       27.398 -20.065   5.432  0.00  0.00    +0.046 A 
ENDBRANCH   1   2
BRANCH   1  14
ATOM     14  C   LIG    1       25.693 -22.163   6.468  0.00  0.00    +0.261 C 
BRANCH  14  15
ATOM     15  C   LIG    1       24.565 -22.098   7.532  0.00  0.00    +0.166 C 
BRANCH  15  16
ATOM     16  O   LIG    1       25.086 -21.552   8.755  0.00  0.00    -0.387 OA
ATOM     17  H   LIG    1       25.273 -22.305   9.341  0.00  0.00    +0.210 HD
ENDBRANCH  15  16
BRANCH  15  18
ATOM     18  C   LIG    1       23.324 -21.284   7.076  0.00  0.00    +0.116 C 
BRANCH  18  19
ATOM     19  N   LIG    1       23.655 -20.129   6.213  0.00  0.00    -0.309 NA
ATOM     20  H   LIG    1       24.666 -20.144   6.046  0.00  0.00    +0.122 HD
BRANCH  19  22
ATOM     21  C   LIG    1       23.947 -20.286   3.771  0.00  0.00    +0.027 C 
ATOM     22  C   LIG    1       22.933 -20.063   4.918  0.00  0.00    +0.011 C 
ATOM     23  C   LIG    1       21.844 -21.146   4.795  0.00  0.00    +0.027 C 
ATOM     24  C   LIG    1       22.302 -18.675   4.700  0.00  0.00    +0.027 C 
ENDBRANCH  19  22
ENDBRANCH  18  19
ENDBRANCH  15  18
ENDBRANCH  14  15
ENDBRANCH   1  14
TORSDOF 7
ENDMDL
MODEL 8
REMARK VINA RESULT:      -7.7      2.392      7.803
REMARK  Name = *****
REMARK                            x       y       z     vdW  Elec       q    Type
REMARK                         _______ _______ _______ _____ _____    ______ ____
ROOT
ATOM      1  O   LIG    1       28.216 -19.542   6.841  0.00  0.00    -0.489 OA
ENDROOT
BRANCH   1   2
ATOM      2  C   LIG    1       29.147 -20.159   7.631  0.00  0.00    +0.126 A 
ATOM      3  C   LIG    1       30.076 -19.309   8.256  0.00  0.00    +0.016 A 
ATOM      4  C   LIG    1       30.015 -17.812   8.096  0.00  0.00    +0.050 C 
ATOM      5  C   LIG    1       30.635 -17.098   9.286  0.00  0.00    +0.101 C 
ATOM      6  C   LIG    1       31.988 -17.664   9.650  0.00  0.00    +0.217 C 
ATOM      7  N   LIG    1       32.124 -19.023   9.521  0.00  0.00    -0.285 N 
ATOM      8  H   LIG    1       32.979 -19.411   9.898  0.00  0.00    +0.155 HD
ATOM      9  O   LIG    1       32.874 -16.986  10.144  0.00  0.00    -0.276 OA
ATOM     10  C   LIG    1       31.152 -19.860   8.966  0.00  0.00    +0.040 A 
ATOM     11  C   LIG    1       31.274 -21.238   9.118  0.00  0.00    +0.024 A 
ATOM     12  C   LIG    1       30.282 -22.071   8.604  0.00  0.00    +0.005 A 
ATOM     13  C   LIG    1       29.220 -21.534   7.864  0.00  0.00    +0.046 A 
ENDBRANCH   1   2
BRANCH   1  14
ATOM     14  C   LIG    1       27.791 -20.168   5.621  0.00  0.00    +0.261 C 
BRANCH  14  15
ATOM     15  C   LIG    1       26.248 -20.187   5.449  0.00  0.00    +0.166 C 
BRANCH  15  16
ATOM     16  O   LIG    1       25.919 -20.248   4.051  0.00  0.00    -0.387 OA
ATOM     17  H   LIG    1       25.362 -21.036   3.928  0.00  0.00    +0.210 HD
ENDBRANCH  15  16
BRANCH  15  18
ATOM     18  C   LIG    1       25.550 -21.347   6.206  0.00  0.00    +0.116 C 
BRANCH  18  19
ATOM     19  N   LIG    1       25.136 -22.466   5.330  0.00  0.00    -0.309 NA
ATOM     20  H   LIG    1       25.836 -22.555   4.587  0.00  0.00    +0.122 HD
BRANCH  19  22
ATOM     21  C   LIG    1       23.528 -23.812   6.622  0.00  0.00    +0.027 C 
ATOM     22  C   LIG    1       24.944 -23.775   6.000  0.00  0.00    +0.011 C 
ATOM     23  C   LIG    1       25.054 -24.960   5.022  0.00  0.00    +0.027 C 
ATOM     24  C   LIG    1       25.947 -23.967   7.152  0.00  0.00    +0.027 C 
ENDBRANCH  19  22
ENDBRANCH  18  19
ENDBRANCH  15  18
ENDBRANCH  14  15
ENDBRANCH   1  14
TORSDOF 7
ENDMDL
MODEL 9
REMARK VINA RESULT:      -7.7      2.155      6.742
REMARK  Name = *****
REMARK                            x       y       z     vdW  Elec       q    Type
REMARK                         _______ _______ _______ _____ _____    ______ ____
ROOT
ATOM      1  O   LIG    1       25.862 -20.360   4.888  0.00  0.00    -0.489 OA
ENDROOT
BRANCH   1   2
ATOM      2  C   LIG    1       26.262 -20.337   6.196  0.00  0.00    +0.126 A 
ATOM      3  C   LIG    1       27.586 -19.922   6.421  0.00  0.00    +0.016 A 
ATOM      4  C   LIG    1       28.485 -19.489   5.293  0.00  0.00    +0.050 C 
ATOM      5  C   LIG    1       29.555 -18.521   5.772  0.00  0.00    +0.101 C 
ATOM      6  C   LIG    1       30.256 -19.016   7.016  0.00  0.00    +0.217 C 
ATOM      7  N   LIG    1       29.468 -19.670   7.928  0.00  0.00    -0.285 N 
ATOM      8  H   LIG    1       29.909 -19.872   8.817  0.00  0.00    +0.155 HD
ATOM      9  O   LIG    1       31.421 -18.752   7.265  0.00  0.00    -0.276 OA
ATOM     10  C   LIG    1       28.128 -20.004   7.711  0.00  0.00    +0.040 A 
ATOM     11  C   LIG    1       27.350 -20.428   8.785  0.00  0.00    +0.024 A 
ATOM     12  C   LIG    1       26.003 -20.717   8.578  0.00  0.00    +0.005 A 
ATOM     13  C   LIG    1       25.458 -20.671   7.288  0.00  0.00    +0.046 A 
ENDBRANCH   1   2
BRANCH   1  14
ATOM     14  C   LIG    1       24.533 -19.940   4.542  0.00  0.00    +0.261 C 
BRANCH  14  15
ATOM     15  C   LIG    1       23.598 -21.119   4.162  0.00  0.00    +0.166 C 
BRANCH  15  16
ATOM     16  O   LIG    1       23.908 -21.571   2.833  0.00  0.00    -0.387 OA
ATOM     17  H   LIG    1       24.392 -22.409   2.928  0.00  0.00    +0.210 HD
ENDBRANCH  15  16
BRANCH  15  18
ATOM     18  C   LIG    1       23.662 -22.311   5.153  0.00  0.00    +0.116 C 
BRANCH  18  19
ATOM     19  N   LIG    1       24.790 -23.236   4.900  0.00  0.00    -0.309 NA
ATOM     20  H   LIG    1       25.658 -22.696   4.977  0.00  0.00    +0.122 HD
BRANCH  19  22
ATOM     21  C   LIG    1       25.978 -24.211   6.826  0.00  0.00    +0.027 C 
ATOM     22  C   LIG    1       24.858 -24.428   5.780  0.00  0.00    +0.011 C 
ATOM     23  C   LIG    1       23.544 -24.669   6.547  0.00  0.00    +0.027 C 
ATOM     24  C   LIG    1       25.225 -25.692   4.982  0.00  0.00    +0.027 C 
ENDBRANCH  19  22
ENDBRANCH  18  19
ENDBRANCH  15  18
ENDBRANCH  14  15
ENDBRANCH   1  14
TORSDOF 7
ENDMDL
