MODEL 1
REMARK VINA RESULT:      -6.2      0.000      0.000
REMARK  Name = *****
REMARK                            x       y       z     vdW  Elec       q    Type
REMARK                         _______ _______ _______ _____ _____    ______ ____
ROOT
ATOM      1  C   LIG    1       25.221 -17.934   3.508  0.00  0.00    +0.403 C 
ATOM      2  N   LIG    1       25.079 -16.596   3.449  0.00  0.00    -0.281 N 
ATOM      3  H   LIG    1       24.136 -16.241   3.326  0.00  0.00    +0.152 HD
ATOM      4  O   LIG    1       26.331 -18.467   3.650  0.00  0.00    -0.226 OA
ENDROOT
BRANCH   1   5
ATOM      5  O   LIG    1       24.093 -18.604   3.278  0.00  0.00    -0.411 OA
BRANCH   5   6
ATOM      6  C   LIG    1       23.280 -18.745   4.456  0.00  0.00    +0.368 C 
ATOM      7  C   LIG    1       22.021 -17.879   4.454  0.00  0.00    +0.100 C 
BRANCH   6   8
ATOM      8  O   LIG    1       22.875 -20.114   4.510  0.00  0.00    -0.425 OA
BRANCH   8   9
ATOM      9  C   LIG    1       23.920 -20.987   4.499  0.00  0.00    +0.312 C 
ATOM     10  O   LIG    1       24.396 -21.497   3.494  0.00  0.00    -0.251 OA
BRANCH   9  12
ATOM     11  C   LIG    1       25.671 -20.738   6.268  0.00  0.00    +0.019 C 
ATOM     12  C   LIG    1       24.312 -21.340   5.920  0.00  0.00    +0.092 C 
ATOM     13  C   LIG    1       23.240 -20.878   6.897  0.00  0.00    +0.019 C 
ENDBRANCH   9  12
ENDBRANCH   8   9
ENDBRANCH   6   8
ENDBRANCH   5   6
ENDBRANCH   1   5
BRANCH   2  14
ATOM     14  C   LIG    1       26.228 -15.703   3.463  0.00  0.00    +0.115 C 
BRANCH  14  15
ATOM     15  C   LIG    1       25.879 -14.183   3.560  0.00  0.00    -0.004 C 
ATOM     16  C   LIG    1       25.891 -13.746   5.059  0.00  0.00    +0.009 C 
ATOM     17  C   LIG    1       27.278 -13.655   5.686  0.00  0.00    +0.001 C 
ATOM     18  C   LIG    1       28.180 -12.746   4.866  0.00  0.00    +0.000 C 
ATOM     19  C   LIG    1       28.305 -13.262   3.440  0.00  0.00    +0.001 C 
ATOM     20  C   LIG    1       26.938 -13.369   2.761  0.00  0.00    +0.009 C 
BRANCH  15  21
ATOM     21  C   LIG    1       24.458 -13.824   3.019  0.00  0.00    +0.128 C 
BRANCH  21  22
ATOM     22  C   LIG    1       23.993 -12.376   3.015  0.00  0.00    +0.305 C 
ATOM     23  O   LIG    1       23.778 -11.730   4.028  0.00  0.00    -0.251 OA
BRANCH  22  24
ATOM     24  O   LIG    1       23.772 -11.831   1.812  0.00  0.00    -0.481 OA
ATOM     25  H   LIG    1       22.979 -11.248   1.784  0.00  0.00    +0.295 HD
ENDBRANCH  22  24
ENDBRANCH  21  22
ENDBRANCH  15  21
ENDBRANCH  14  15
ENDBRANCH   2  14
TORSDOF 10
ENDMDL
MODEL 2
REMARK VINA RESULT:      -6.1      1.978      3.397
REMARK  Name = *****
REMARK                            x       y       z     vdW  Elec       q    Type
REMARK                         _______ _______ _______ _____ _____    ______ ____
ROOT
ATOM      1  C   LIG    1       26.512 -17.817   3.632  0.00  0.00    +0.403 C 
ATOM      2  N   LIG    1       27.042 -16.582   3.706  0.00  0.00    -0.281 N 
ATOM      3  H   LIG    1       27.839 -16.462   4.323  0.00  0.00    +0.152 HD
ATOM      4  O   LIG    1       25.534 -18.066   2.912  0.00  0.00    -0.226 OA
ENDROOT
BRANCH   1   5
ATOM      5  O   LIG    1       27.055 -18.686   4.483  0.00  0.00    -0.411 OA
BRANCH   5   6
ATOM      6  C   LIG    1       26.281 -19.891   4.617  0.00  0.00    +0.368 C 
ATOM      7  C   LIG    1       26.488 -20.623   5.943  0.00  0.00    +0.100 C 
BRANCH   6   8
ATOM      8  O   LIG    1       24.908 -19.505   4.535  0.00  0.00    -0.425 OA
BRANCH   8   9
ATOM      9  C   LIG    1       24.063 -20.553   4.332  0.00  0.00    +0.312 C 
ATOM     10  O   LIG    1       24.257 -21.466   3.541  0.00  0.00    -0.251 OA
BRANCH   9  12
ATOM     11  C   LIG    1       22.997 -20.715   6.589  0.00  0.00    +0.019 C 
ATOM     12  C   LIG    1       22.786 -20.347   5.122  0.00  0.00    +0.092 C 
ATOM     13  C   LIG    1       22.299 -18.912   4.981  0.00  0.00    +0.019 C 
ENDBRANCH   9  12
ENDBRANCH   8   9
ENDBRANCH   6   8
ENDBRANCH   5   6
ENDBRANCH   1   5
BRANCH   2  14
ATOM     14  C   LIG    1       26.446 -15.450   3.011  0.00  0.00    +0.115 C 
BRANCH  14  15
ATOM     15  C   LIG    1       26.421 -14.117   3.826  0.00  0.00    -0.004 C 
ATOM     16  C   LIG    1       26.459 -12.908   2.837  0.00  0.00    +0.009 C 
ATOM     17  C   LIG    1       25.165 -12.675   2.065  0.00  0.00    +0.001 C 
ATOM     18  C   LIG    1       23.988 -12.538   3.019  0.00  0.00    +0.000 C 
ATOM     19  C   LIG    1       23.845 -13.789   3.874  0.00  0.00    +0.001 C 
ATOM     20  C   LIG    1       25.118 -14.068   4.675  0.00  0.00    +0.009 C 
BRANCH  15  21
ATOM     21  C   LIG    1       27.647 -13.933   4.776  0.00  0.00    +0.128 C 
BRANCH  21  22
ATOM     22  C   LIG    1       28.711 -12.897   4.448  0.00  0.00    +0.305 C 
ATOM     23  O   LIG    1       29.472 -12.986   3.497  0.00  0.00    -0.251 OA
BRANCH  22  24
ATOM     24  O   LIG    1       28.819 -11.871   5.301  0.00  0.00    -0.481 OA
ATOM     25  H   LIG    1       28.664 -12.122   6.240  0.00  0.00    +0.295 HD
ENDBRANCH  22  24
ENDBRANCH  21  22
ENDBRANCH  15  21
ENDBRANCH  14  15
ENDBRANCH   2  14
TORSDOF 10
ENDMDL
MODEL 3
REMARK VINA RESULT:      -5.6      2.192      3.561
REMARK  Name = *****
REMARK                            x       y       z     vdW  Elec       q    Type
REMARK                         _______ _______ _______ _____ _____    ______ ____
ROOT
ATOM      1  C   LIG    1       24.340 -17.391   3.687  0.00  0.00    +0.403 C 
ATOM      2  N   LIG    1       24.983 -16.218   3.537  0.00  0.00    -0.281 N 
ATOM      3  H   LIG    1       25.909 -16.252   3.123  0.00  0.00    +0.152 HD
ATOM      4  O   LIG    1       23.208 -17.456   4.188  0.00  0.00    -0.226 OA
ENDROOT
BRANCH   1   5
ATOM      5  O   LIG    1       25.078 -18.452   3.365  0.00  0.00    -0.411 OA
BRANCH   5   6
ATOM      6  C   LIG    1       24.934 -19.535   4.301  0.00  0.00    +0.368 C 
ATOM      7  C   LIG    1       24.291 -20.789   3.711  0.00  0.00    +0.100 C 
BRANCH   6   8
ATOM      8  O   LIG    1       26.251 -19.875   4.736  0.00  0.00    -0.425 OA
BRANCH   8   9
ATOM      9  C   LIG    1       26.282 -20.445   5.972  0.00  0.00    +0.312 C 
ATOM     10  O   LIG    1       25.338 -21.011   6.506  0.00  0.00    -0.251 OA
BRANCH   9  12
ATOM     11  C   LIG    1       28.305 -21.451   7.046  0.00  0.00    +0.019 C 
ATOM     12  C   LIG    1       27.609 -20.153   6.642  0.00  0.00    +0.092 C 
ATOM     13  C   LIG    1       28.494 -19.318   5.727  0.00  0.00    +0.019 C 
ENDBRANCH   9  12
ENDBRANCH   8   9
ENDBRANCH   6   8
ENDBRANCH   5   6
ENDBRANCH   1   5
BRANCH   2  14
ATOM     14  C   LIG    1       24.422 -14.969   4.032  0.00  0.00    +0.115 C 
BRANCH  14  15
ATOM     15  C   LIG    1       25.418 -13.765   4.062  0.00  0.00    -0.004 C 
ATOM     16  C   LIG    1       25.802 -13.378   2.598  0.00  0.00    +0.009 C 
ATOM     17  C   LIG    1       24.697 -12.680   1.812  0.00  0.00    +0.001 C 
ATOM     18  C   LIG    1       24.192 -11.459   2.564  0.00  0.00    +0.000 C 
ATOM     19  C   LIG    1       23.661 -11.857   3.934  0.00  0.00    +0.001 C 
ATOM     20  C   LIG    1       24.733 -12.559   4.768  0.00  0.00    +0.009 C 
BRANCH  15  21
ATOM     21  C   LIG    1       26.764 -14.076   4.791  0.00  0.00    +0.128 C 
BRANCH  21  22
ATOM     22  C   LIG    1       28.011 -13.274   4.454  0.00  0.00    +0.305 C 
ATOM     23  O   LIG    1       28.695 -13.471   3.462  0.00  0.00    -0.251 OA
BRANCH  22  24
ATOM     24  O   LIG    1       28.372 -12.342   5.344  0.00  0.00    -0.481 OA
ATOM     25  H   LIG    1       28.494 -11.448   4.951  0.00  0.00    +0.295 HD
ENDBRANCH  22  24
ENDBRANCH  21  22
ENDBRANCH  15  21
ENDBRANCH  14  15
ENDBRANCH   2  14
TORSDOF 10
ENDMDL
MODEL 4
REMARK VINA RESULT:      -5.6      1.448      2.138
REMARK  Name = *****
REMARK                            x       y       z     vdW  Elec       q    Type
REMARK                         _______ _______ _______ _____ _____    ______ ____
ROOT
ATOM      1  C   LIG    1       25.265 -17.829   3.354  0.00  0.00    +0.403 C 
ATOM      2  N   LIG    1       25.336 -16.547   3.758  0.00  0.00    -0.281 N 
ATOM      3  H   LIG    1       24.645 -16.242   4.436  0.00  0.00    +0.152 HD
ATOM      4  O   LIG    1       26.059 -18.298   2.525  0.00  0.00    -0.226 OA
ENDROOT
BRANCH   1   5
ATOM      5  O   LIG    1       24.209 -18.485   3.832  0.00  0.00    -0.411 OA
BRANCH   5   6
ATOM      6  C   LIG    1       24.561 -19.742   4.438  0.00  0.00    +0.368 C 
ATOM      7  C   LIG    1       24.141 -20.966   3.626  0.00  0.00    +0.100 C 
BRANCH   6   8
ATOM      8  O   LIG    1       25.985 -19.753   4.551  0.00  0.00    -0.425 OA
BRANCH   8   9
ATOM      9  C   LIG    1       26.427 -20.204   5.758  0.00  0.00    +0.312 C 
ATOM     10  O   LIG    1       25.717 -20.404   6.734  0.00  0.00    -0.251 OA
BRANCH   9  12
ATOM     11  C   LIG    1       28.553 -18.907   5.519  0.00  0.00    +0.019 C 
ATOM     12  C   LIG    1       27.941 -20.285   5.755  0.00  0.00    +0.092 C 
ATOM     13  C   LIG    1       28.442 -20.893   7.058  0.00  0.00    +0.019 C 
ENDBRANCH   9  12
ENDBRANCH   8   9
ENDBRANCH   6   8
ENDBRANCH   5   6
ENDBRANCH   1   5
BRANCH   2  14
ATOM     14  C   LIG    1       26.292 -15.614   3.181  0.00  0.00    +0.115 C 
BRANCH  14  15
ATOM     15  C   LIG    1       25.945 -14.104   3.384  0.00  0.00    -0.004 C 
ATOM     16  C   LIG    1       25.815 -13.806   4.912  0.00  0.00    +0.009 C 
ATOM     17  C   LIG    1       27.136 -13.793   5.673  0.00  0.00    +0.001 C 
ATOM     18  C   LIG    1       28.117 -12.826   5.030  0.00  0.00    +0.000 C 
ATOM     19  C   LIG    1       28.376 -13.212   3.581  0.00  0.00    +0.001 C 
ATOM     20  C   LIG    1       27.081 -13.237   2.768  0.00  0.00    +0.009 C 
BRANCH  15  21
ATOM     21  C   LIG    1       24.585 -13.677   2.746  0.00  0.00    +0.128 C 
BRANCH  21  22
ATOM     22  C   LIG    1       24.073 -12.257   2.934  0.00  0.00    +0.305 C 
ATOM     23  O   LIG    1       23.734 -11.797   4.013  0.00  0.00    -0.251 OA
BRANCH  22  24
ATOM     24  O   LIG    1       23.956 -11.520   1.823  0.00  0.00    -0.481 OA
ATOM     25  H   LIG    1       23.224 -11.811   1.233  0.00  0.00    +0.295 HD
ENDBRANCH  22  24
ENDBRANCH  21  22
ENDBRANCH  15  21
ENDBRANCH  14  15
ENDBRANCH   2  14
TORSDOF 10
ENDMDL
MODEL 5
REMARK VINA RESULT:      -5.5      2.106      3.293
REMARK  Name = *****
REMARK                            x       y       z     vdW  Elec       q    Type
REMARK                         _______ _______ _______ _____ _____    ______ ____
ROOT
ATOM      1  C   LIG    1       22.944 -16.753   4.276  0.00  0.00    +0.403 C 
ATOM      2  N   LIG    1       23.905 -15.841   4.039  0.00  0.00    -0.281 N 
ATOM      3  H   LIG    1       24.713 -16.153   3.509  0.00  0.00    +0.152 HD
ATOM      4  O   LIG    1       21.922 -16.473   4.919  0.00  0.00    -0.226 OA
ENDROOT
BRANCH   1   5
ATOM      5  O   LIG    1       23.257 -17.981   3.868  0.00  0.00    -0.411 OA
BRANCH   5   6
ATOM      6  C   LIG    1       22.528 -19.004   4.568  0.00  0.00    +0.368 C 
ATOM      7  C   LIG    1       21.166 -19.331   3.956  0.00  0.00    +0.100 C 
BRANCH   6   8
ATOM      8  O   LIG    1       23.331 -20.184   4.518  0.00  0.00    -0.425 OA
BRANCH   8   9
ATOM      9  C   LIG    1       23.828 -20.552   5.731  0.00  0.00    +0.312 C 
ATOM     10  O   LIG    1       23.242 -20.419   6.797  0.00  0.00    -0.251 OA
BRANCH   9  12
ATOM     11  C   LIG    1       26.071 -20.016   4.763  0.00  0.00    +0.019 C 
ATOM     12  C   LIG    1       25.261 -21.019   5.582  0.00  0.00    +0.092 C 
ATOM     13  C   LIG    1       25.891 -21.247   6.949  0.00  0.00    +0.019 C 
ENDBRANCH   9  12
ENDBRANCH   8   9
ENDBRANCH   6   8
ENDBRANCH   5   6
ENDBRANCH   1   5
BRANCH   2  14
ATOM     14  C   LIG    1       23.840 -14.497   4.595  0.00  0.00    +0.115 C 
BRANCH  14  15
ATOM     15  C   LIG    1       25.073 -13.591   4.276  0.00  0.00    -0.004 C 
ATOM     16  C   LIG    1       25.432 -13.725   2.762  0.00  0.00    +0.009 C 
ATOM     17  C   LIG    1       24.454 -13.043   1.812  0.00  0.00    +0.001 C 
ATOM     18  C   LIG    1       24.277 -11.579   2.184  0.00  0.00    +0.000 C 
ATOM     19  C   LIG    1       23.765 -11.448   3.611  0.00  0.00    +0.001 C 
ATOM     20  C   LIG    1       24.714 -12.114   4.609  0.00  0.00    +0.009 C 
BRANCH  15  21
ATOM     21  C   LIG    1       26.365 -13.983   5.061  0.00  0.00    +0.128 C 
BRANCH  21  22
ATOM     22  C   LIG    1       27.649 -14.285   4.303  0.00  0.00    +0.305 C 
ATOM     23  O   LIG    1       28.430 -13.427   3.925  0.00  0.00    -0.251 OA
BRANCH  22  24
ATOM     24  O   LIG    1       27.872 -15.572   4.010  0.00  0.00    -0.481 OA
ATOM     25  H   LIG    1       27.362 -16.198   4.573  0.00  0.00    +0.295 HD
ENDBRANCH  22  24
ENDBRANCH  21  22
ENDBRANCH  15  21
ENDBRANCH  14  15
ENDBRANCH   2  14
TORSDOF 10
ENDMDL
MODEL 6
REMARK VINA RESULT:      -5.2      0.998      1.755
REMARK  Name = *****
REMARK                            x       y       z     vdW  Elec       q    Type
REMARK                         _______ _______ _______ _____ _____    ______ ____
ROOT
ATOM      1  C   LIG    1       25.842 -17.870   3.470  0.00  0.00    +0.403 C 
ATOM      2  N   LIG    1       26.074 -16.616   3.903  0.00  0.00    -0.281 N 
ATOM      3  H   LIG    1       25.905 -16.433   4.887  0.00  0.00    +0.152 HD
ATOM      4  O   LIG    1       26.012 -18.195   2.286  0.00  0.00    -0.226 OA
ENDROOT
BRANCH   1   5
ATOM      5  O   LIG    1       25.309 -18.667   4.395  0.00  0.00    -0.411 OA
BRANCH   5   6
ATOM      6  C   LIG    1       26.046 -19.890   4.567  0.00  0.00    +0.368 C 
ATOM      7  C   LIG    1       27.343 -19.733   5.360  0.00  0.00    +0.100 C 
BRANCH   6   8
ATOM      8  O   LIG    1       25.192 -20.782   5.287  0.00  0.00    -0.425 OA
BRANCH   8   9
ATOM      9  C   LIG    1       24.055 -21.105   4.611  0.00  0.00    +0.312 C 
ATOM     10  O   LIG    1       24.016 -21.488   3.450  0.00  0.00    -0.251 OA
BRANCH   9  12
ATOM     11  C   LIG    1       23.177 -20.909   6.946  0.00  0.00    +0.019 C 
ATOM     12  C   LIG    1       22.842 -20.787   5.461  0.00  0.00    +0.092 C 
ATOM     13  C   LIG    1       22.312 -19.398   5.132  0.00  0.00    +0.019 C 
ENDBRANCH   9  12
ENDBRANCH   8   9
ENDBRANCH   6   8
ENDBRANCH   5   6
ENDBRANCH   1   5
BRANCH   2  14
ATOM     14  C   LIG    1       26.454 -15.549   2.988  0.00  0.00    +0.115 C 
BRANCH  14  15
ATOM     15  C   LIG    1       25.983 -14.120   3.412  0.00  0.00    -0.004 C 
ATOM     16  C   LIG    1       26.043 -13.998   4.967  0.00  0.00    +0.009 C 
ATOM     17  C   LIG    1       27.450 -13.905   5.547  0.00  0.00    +0.001 C 
ATOM     18  C   LIG    1       28.223 -12.767   4.899  0.00  0.00    +0.000 C 
ATOM     19  C   LIG    1       28.311 -12.969   3.393  0.00  0.00    +0.001 C 
ATOM     20  C   LIG    1       26.923 -13.065   2.759  0.00  0.00    +0.009 C 
BRANCH  15  21
ATOM     21  C   LIG    1       24.509 -13.796   3.011  0.00  0.00    +0.128 C 
BRANCH  21  22
ATOM     22  C   LIG    1       24.024 -12.354   3.012  0.00  0.00    +0.305 C 
ATOM     23  O   LIG    1       23.718 -11.743   4.024  0.00  0.00    -0.251 OA
BRANCH  22  24
ATOM     24  O   LIG    1       23.891 -11.775   1.812  0.00  0.00    -0.481 OA
ATOM     25  H   LIG    1       23.398 -10.924   1.839  0.00  0.00    +0.295 HD
ENDBRANCH  22  24
ENDBRANCH  21  22
ENDBRANCH  15  21
ENDBRANCH  14  15
ENDBRANCH   2  14
TORSDOF 10
ENDMDL
MODEL 7
REMARK VINA RESULT:      -4.5      1.962      6.938
REMARK  Name = *****
REMARK                            x       y       z     vdW  Elec       q    Type
REMARK                         _______ _______ _______ _____ _____    ______ ____
ROOT
ATOM      1  C   LIG    1       22.744 -15.851   5.053  0.00  0.00    +0.403 C 
ATOM      2  N   LIG    1       23.244 -16.897   4.368  0.00  0.00    -0.281 N 
ATOM      3  H   LIG    1       24.092 -16.732   3.835  0.00  0.00    +0.152 HD
ATOM      4  O   LIG    1       21.709 -15.947   5.729  0.00  0.00    -0.226 OA
ENDROOT
BRANCH   1   5
ATOM      5  O   LIG    1       23.390 -14.707   4.832  0.00  0.00    -0.411 OA
BRANCH   5   6
ATOM      6  C   LIG    1       24.116 -14.708   3.591  0.00  0.00    +0.368 C 
ATOM      7  C   LIG    1       24.033 -13.393   2.817  0.00  0.00    +0.100 C 
BRANCH   6   8
ATOM      8  O   LIG    1       25.487 -14.942   3.921  0.00  0.00    -0.425 OA
BRANCH   8   9
ATOM      9  C   LIG    1       26.357 -14.240   3.143  0.00  0.00    +0.312 C 
ATOM     10  O   LIG    1       26.575 -14.463   1.960  0.00  0.00    -0.251 OA
BRANCH   9  12
ATOM     11  C   LIG    1       26.873 -13.500   5.476  0.00  0.00    +0.019 C 
ATOM     12  C   LIG    1       27.115 -13.239   3.991  0.00  0.00    +0.092 C 
ATOM     13  C   LIG    1       28.601 -13.280   3.661  0.00  0.00    +0.019 C 
ENDBRANCH   9  12
ENDBRANCH   8   9
ENDBRANCH   6   8
ENDBRANCH   5   6
ENDBRANCH   1   5
BRANCH   2  14
ATOM     14  C   LIG    1       22.552 -18.177   4.313  0.00  0.00    +0.115 C 
BRANCH  14  15
ATOM     15  C   LIG    1       23.483 -19.422   4.158  0.00  0.00    -0.004 C 
ATOM     16  C   LIG    1       24.176 -19.721   5.525  0.00  0.00    +0.009 C 
ATOM     17  C   LIG    1       23.258 -20.311   6.590  0.00  0.00    +0.001 C 
ATOM     18  C   LIG    1       22.563 -21.559   6.069  0.00  0.00    +0.000 C 
ATOM     19  C   LIG    1       21.747 -21.236   4.825  0.00  0.00    +0.001 C 
ATOM     20  C   LIG    1       22.623 -20.644   3.719  0.00  0.00    +0.009 C 
BRANCH  15  21
ATOM     21  C   LIG    1       24.637 -19.224   3.125  0.00  0.00    +0.128 C 
BRANCH  21  22
ATOM     22  C   LIG    1       25.971 -18.653   3.581  0.00  0.00    +0.305 C 
ATOM     23  O   LIG    1       26.714 -19.214   4.370  0.00  0.00    -0.251 OA
BRANCH  22  24
ATOM     24  O   LIG    1       26.288 -17.442   3.105  0.00  0.00    -0.481 OA
ATOM     25  H   LIG    1       26.265 -17.388   2.122  0.00  0.00    +0.295 HD
ENDBRANCH  22  24
ENDBRANCH  21  22
ENDBRANCH  15  21
ENDBRANCH  14  15
ENDBRANCH   2  14
TORSDOF 10
ENDMDL
MODEL 8
REMARK VINA RESULT:      -4.5      2.230      7.441
REMARK  Name = *****
REMARK                            x       y       z     vdW  Elec       q    Type
REMARK                         _______ _______ _______ _____ _____    ______ ____
ROOT
ATOM      1  C   LIG    1       26.083 -17.251   3.373  0.00  0.00    +0.403 C 
ATOM      2  N   LIG    1       25.122 -18.186   3.486  0.00  0.00    -0.281 N 
ATOM      3  H   LIG    1       24.161 -17.870   3.394  0.00  0.00    +0.152 HD
ATOM      4  O   LIG    1       27.286 -17.534   3.476  0.00  0.00    -0.226 OA
ENDROOT
BRANCH   1   5
ATOM      5  O   LIG    1       25.614 -16.009   3.267  0.00  0.00    -0.411 OA
BRANCH   5   6
ATOM      6  C   LIG    1       26.546 -15.020   3.739  0.00  0.00    +0.368 C 
ATOM      7  C   LIG    1       27.168 -14.170   2.631  0.00  0.00    +0.100 C 
BRANCH   6   8
ATOM      8  O   LIG    1       25.814 -14.151   4.605  0.00  0.00    -0.425 OA
BRANCH   8   9
ATOM      9  C   LIG    1       24.580 -13.827   4.129  0.00  0.00    +0.312 C 
ATOM     10  O   LIG    1       23.628 -14.594   4.072  0.00  0.00    -0.251 OA
BRANCH   9  12
ATOM     11  C   LIG    1       24.305 -12.453   2.057  0.00  0.00    +0.019 C 
ATOM     12  C   LIG    1       24.601 -12.425   3.555  0.00  0.00    +0.092 C 
ATOM     13  C   LIG    1       23.611 -11.534   4.293  0.00  0.00    +0.019 C 
ENDBRANCH   9  12
ENDBRANCH   8   9
ENDBRANCH   6   8
ENDBRANCH   5   6
ENDBRANCH   1   5
BRANCH   2  14
ATOM     14  C   LIG    1       25.433 -19.569   3.820  0.00  0.00    +0.115 C 
BRANCH  14  15
ATOM     15  C   LIG    1       24.770 -20.094   5.134  0.00  0.00    -0.004 C 
ATOM     16  C   LIG    1       23.610 -19.133   5.545  0.00  0.00    +0.009 C 
ATOM     17  C   LIG    1       22.367 -19.219   4.666  0.00  0.00    +0.001 C 
ATOM     18  C   LIG    1       21.862 -20.651   4.590  0.00  0.00    +0.000 C 
ATOM     19  C   LIG    1       22.939 -21.569   4.031  0.00  0.00    +0.001 C 
ATOM     20  C   LIG    1       24.210 -21.524   4.880  0.00  0.00    +0.009 C 
BRANCH  15  21
ATOM     21  C   LIG    1       25.741 -20.145   6.356  0.00  0.00    +0.128 C 
BRANCH  21  22
ATOM     22  C   LIG    1       27.178 -20.603   6.163  0.00  0.00    +0.305 C 
ATOM     23  O   LIG    1       27.662 -21.571   6.728  0.00  0.00    -0.251 OA
BRANCH  22  24
ATOM     24  O   LIG    1       27.935 -19.847   5.357  0.00  0.00    -0.481 OA
ATOM     25  H   LIG    1       28.618 -19.324   5.836  0.00  0.00    +0.295 HD
ENDBRANCH  22  24
ENDBRANCH  21  22
ENDBRANCH  15  21
ENDBRANCH  14  15
ENDBRANCH   2  14
TORSDOF 10
ENDMDL
MODEL 9
REMARK VINA RESULT:      -3.5      2.109      7.362
REMARK  Name = *****
REMARK                            x       y       z     vdW  Elec       q    Type
REMARK                         _______ _______ _______ _____ _____    ______ ____
ROOT
ATOM      1  C   LIG    1       25.673 -16.756   3.527  0.00  0.00    +0.403 C 
ATOM      2  N   LIG    1       24.861 -17.818   3.692  0.00  0.00    -0.281 N 
ATOM      3  H   LIG    1       23.883 -17.622   3.878  0.00  0.00    +0.152 HD
ATOM      4  O   LIG    1       26.884 -16.889   3.302  0.00  0.00    -0.226 OA
ENDROOT
BRANCH   1   5
ATOM      5  O   LIG    1       25.077 -15.586   3.748  0.00  0.00    -0.411 OA
BRANCH   5   6
ATOM      6  C   LIG    1       25.111 -14.718   2.602  0.00  0.00    +0.368 C 
ATOM      7  C   LIG    1       24.387 -13.387   2.804  0.00  0.00    +0.100 C 
BRANCH   6   8
ATOM      8  O   LIG    1       26.488 -14.438   2.344  0.00  0.00    -0.425 OA
BRANCH   8   9
ATOM      9  C   LIG    1       26.915 -13.271   2.898  0.00  0.00    +0.312 C 
ATOM     10  O   LIG    1       26.633 -12.154   2.485  0.00  0.00    -0.251 OA
BRANCH   9  12
ATOM     11  C   LIG    1       29.037 -12.539   4.004  0.00  0.00    +0.019 C 
ATOM     12  C   LIG    1       27.901 -13.559   4.013  0.00  0.00    +0.092 C 
ATOM     13  C   LIG    1       27.190 -13.578   5.359  0.00  0.00    +0.019 C 
ENDBRANCH   9  12
ENDBRANCH   8   9
ENDBRANCH   6   8
ENDBRANCH   5   6
ENDBRANCH   1   5
BRANCH   2  14
ATOM     14  C   LIG    1       25.375 -19.180   3.701  0.00  0.00    +0.115 C 
BRANCH  14  15
ATOM     15  C   LIG    1       24.961 -20.032   4.944  0.00  0.00    -0.004 C 
ATOM     16  C   LIG    1       23.734 -19.363   5.641  0.00  0.00    +0.009 C 
ATOM     17  C   LIG    1       22.418 -19.496   4.882  0.00  0.00    +0.001 C 
ATOM     18  C   LIG    1       22.119 -20.956   4.578  0.00  0.00    +0.000 C 
ATOM     19  C   LIG    1       23.240 -21.570   3.752  0.00  0.00    +0.001 C 
ATOM     20  C   LIG    1       24.587 -21.467   4.471  0.00  0.00    +0.009 C 
BRANCH  15  21
ATOM     21  C   LIG    1       26.072 -20.137   6.037  0.00  0.00    +0.128 C 
BRANCH  21  22
ATOM     22  C   LIG    1       27.536 -20.035   5.639  0.00  0.00    +0.305 C 
ATOM     23  O   LIG    1       28.407 -20.778   6.064  0.00  0.00    -0.251 OA
BRANCH  22  24
ATOM     24  O   LIG    1       27.856 -19.030   4.815  0.00  0.00    -0.481 OA
ATOM     25  H   LIG    1       28.143 -18.213   5.283  0.00  0.00    +0.295 HD
ENDBRANCH  22  24
ENDBRANCH  21  22
ENDBRANCH  15  21
ENDBRANCH  14  15
ENDBRANCH   2  14
TORSDOF 10
ENDMDL
