MODEL 1
REMARK VINA RESULT:      -4.0      0.000      0.000
REMARK  Name = *****
REMARK                            x       y       z     vdW  Elec       q    Type
REMARK                         _______ _______ _______ _____ _____    ______ ____
ROOT
ATOM      1  C   LIG    1       23.105 -15.384   4.832  0.00  0.00    +0.003 C 
ATOM      2  C   LIG    1       22.468 -16.573   4.797  0.00  0.00    -0.050 C 
ATOM      3  C   LIG    1       21.776 -17.028   6.052  0.00  0.00    +0.044 C 
ENDROOT
BRANCH   1   5
ATOM      4  C   LIG    1       24.756 -13.835   3.910  0.00  0.00    +0.003 C 
ATOM      5  C   LIG    1       23.802 -14.762   3.730  0.00  0.00    +0.001 C 
BRANCH   4   7
ATOM      6  C   LIG    1       24.677 -12.444   1.812  0.00  0.00    +0.044 C 
ATOM      7  C   LIG    1       25.500 -13.208   2.828  0.00  0.00    -0.044 C 
ATOM      8  C   LIG    1       26.845 -13.205   2.705  0.00  0.00    +0.094 C 
BRANCH   8   9
ATOM      9  C   LIG    1       27.928 -13.817   3.501  0.00  0.00    +0.330 C 
ATOM     10  O   LIG    1       27.684 -14.678   4.344  0.00  0.00    -0.246 OA
BRANCH   9  11
ATOM     11  O   LIG    1       29.161 -13.337   3.294  0.00  0.00    -0.477 OA
ATOM     12  H   LIG    1       29.579 -12.977   4.099  0.00  0.00    +0.295 HD
ENDBRANCH   9  11
ENDBRANCH   8   9
ENDBRANCH   4   7
ENDBRANCH   1   5
BRANCH   2  13
ATOM     13  C   LIG    1       22.514 -17.432   3.620  0.00  0.00    +0.003 C 
ATOM     14  C   LIG    1       23.287 -18.485   3.316  0.00  0.00    +0.004 C 
BRANCH  14  15
ATOM     15  C   LIG    1       24.363 -19.110   4.069  0.00  0.00    -0.043 C 
ATOM     16  C   LIG    1       23.941 -20.345   4.900  0.00  0.00    -0.010 C 
ATOM     17  C   LIG    1       22.576 -20.175   5.611  0.00  0.00    +0.016 C 
ATOM     18  C   LIG    1       23.825 -21.572   3.965  0.00  0.00    +0.016 C 
ATOM     19  C   LIG    1       24.983 -20.632   6.009  0.00  0.00    +0.011 C 
ATOM     20  C   LIG    1       26.403 -20.644   5.469  0.00  0.00    +0.005 C 
ATOM     21  C   LIG    1       26.754 -19.303   4.840  0.00  0.00    +0.031 C 
ATOM     22  C   LIG    1       25.637 -18.642   4.060  0.00  0.00    -0.069 C 
ATOM     23  C   LIG    1       26.128 -17.438   3.289  0.00  0.00    +0.039 C 
ENDBRANCH  14  15
ENDBRANCH   2  13
TORSDOF 6
ENDMDL
MODEL 2
REMARK VINA RESULT:      -2.0      2.433      6.333
REMARK  Name = *****
REMARK                            x       y       z     vdW  Elec       q    Type
REMARK                         _______ _______ _______ _____ _____    ______ ____
ROOT
ATOM      1  C   LIG    1       22.388 -16.714   5.556  0.00  0.00    +0.003 C 
ATOM      2  C   LIG    1       22.645 -15.498   5.030  0.00  0.00    -0.050 C 
ATOM      3  C   LIG    1       22.668 -14.325   5.970  0.00  0.00    +0.044 C 
ENDROOT
BRANCH   1   5
ATOM      4  C   LIG    1       22.603 -19.145   5.410  0.00  0.00    +0.003 C 
ATOM      5  C   LIG    1       22.348 -17.962   4.829  0.00  0.00    +0.001 C 
BRANCH   4   7
ATOM      6  C   LIG    1       21.176 -20.848   4.224  0.00  0.00    +0.044 C 
ATOM      7  C   LIG    1       22.543 -20.424   4.719  0.00  0.00    -0.044 C 
ATOM      8  C   LIG    1       23.605 -21.209   4.436  0.00  0.00    +0.094 C 
BRANCH   8   9
ATOM      9  C   LIG    1       25.045 -21.099   4.743  0.00  0.00    +0.330 C 
ATOM     10  O   LIG    1       25.509 -21.566   5.782  0.00  0.00    -0.246 OA
BRANCH   9  11
ATOM     11  O   LIG    1       25.788 -20.416   3.863  0.00  0.00    -0.477 OA
ATOM     12  H   LIG    1       26.649 -20.127   4.222  0.00  0.00    +0.295 HD
ENDBRANCH   9  11
ENDBRANCH   8   9
ENDBRANCH   4   7
ENDBRANCH   1   5
BRANCH   2  13
ATOM     13  C   LIG    1       22.810 -15.304   3.594  0.00  0.00    +0.003 C 
ATOM     14  C   LIG    1       23.872 -14.943   2.860  0.00  0.00    +0.004 C 
BRANCH  14  15
ATOM     15  C   LIG    1       25.226 -14.603   3.269  0.00  0.00    -0.043 C 
ATOM     16  C   LIG    1       25.509 -13.087   3.379  0.00  0.00    -0.010 C 
ATOM     17  C   LIG    1       24.878 -12.255   2.235  0.00  0.00    +0.016 C 
ATOM     18  C   LIG    1       24.928 -12.556   4.711  0.00  0.00    +0.016 C 
ATOM     19  C   LIG    1       27.033 -12.817   3.331  0.00  0.00    +0.011 C 
ATOM     20  C   LIG    1       27.802 -13.711   4.290  0.00  0.00    +0.005 C 
ATOM     21  C   LIG    1       27.581 -15.180   3.955  0.00  0.00    +0.031 C 
ATOM     22  C   LIG    1       26.175 -15.540   3.521  0.00  0.00    -0.069 C 
ATOM     23  C   LIG    1       25.985 -17.036   3.424  0.00  0.00    +0.039 C 
ENDBRANCH  14  15
ENDBRANCH   2  13
TORSDOF 6
ENDMDL
MODEL 3
REMARK VINA RESULT:      -1.9      2.391      6.095
REMARK  Name = *****
REMARK                            x       y       z     vdW  Elec       q    Type
REMARK                         _______ _______ _______ _____ _____    ______ ____
ROOT
ATOM      1  C   LIG    1       22.283 -16.798   5.622  0.00  0.00    +0.003 C 
ATOM      2  C   LIG    1       22.472 -15.522   5.224  0.00  0.00    -0.050 C 
ATOM      3  C   LIG    1       22.253 -14.436   6.241  0.00  0.00    +0.044 C 
ENDROOT
BRANCH   1   5
ATOM      4  C   LIG    1       22.547 -19.210   5.332  0.00  0.00    +0.003 C 
ATOM      5  C   LIG    1       22.467 -17.977   4.809  0.00  0.00    +0.001 C 
BRANCH   4   7
ATOM      6  C   LIG    1       21.433 -21.206   4.274  0.00  0.00    +0.044 C 
ATOM      7  C   LIG    1       22.702 -20.424   4.544  0.00  0.00    -0.044 C 
ATOM      8  C   LIG    1       23.857 -20.856   3.995  0.00  0.00    +0.094 C 
BRANCH   8   9
ATOM      9  C   LIG    1       25.242 -20.345   4.037  0.00  0.00    +0.330 C 
ATOM     10  O   LIG    1       25.922 -20.444   5.057  0.00  0.00    -0.246 OA
BRANCH   9  11
ATOM     11  O   LIG    1       25.679 -19.723   2.935  0.00  0.00    -0.477 OA
ATOM     12  H   LIG    1       24.967 -19.302   2.417  0.00  0.00    +0.295 HD
ENDBRANCH   9  11
ENDBRANCH   8   9
ENDBRANCH   4   7
ENDBRANCH   1   5
BRANCH   2  13
ATOM     13  C   LIG    1       22.791 -15.191   3.840  0.00  0.00    +0.003 C 
ATOM     14  C   LIG    1       23.872 -14.625   3.287  0.00  0.00    +0.004 C 
BRANCH  14  15
ATOM     15  C   LIG    1       25.094 -14.131   3.902  0.00  0.00    -0.043 C 
ATOM     16  C   LIG    1       26.370 -14.927   3.542  0.00  0.00    -0.010 C 
ATOM     17  C   LIG    1       26.155 -16.460   3.512  0.00  0.00    +0.016 C 
ATOM     18  C   LIG    1       26.856 -14.502   2.136  0.00  0.00    +0.016 C 
ATOM     19  C   LIG    1       27.486 -14.659   4.582  0.00  0.00    +0.011 C 
ATOM     20  C   LIG    1       27.676 -13.173   4.844  0.00  0.00    +0.005 C 
ATOM     21  C   LIG    1       26.392 -12.548   5.371  0.00  0.00    +0.031 C 
ATOM     22  C   LIG    1       25.116 -13.063   4.740  0.00  0.00    -0.069 C 
ATOM     23  C   LIG    1       23.916 -12.242   5.153  0.00  0.00    +0.039 C 
ENDBRANCH  14  15
ENDBRANCH   2  13
TORSDOF 6
ENDMDL
MODEL 4
REMARK VINA RESULT:      -1.7      2.068      3.665
REMARK  Name = *****
REMARK                            x       y       z     vdW  Elec       q    Type
REMARK                         _______ _______ _______ _____ _____    ______ ____
ROOT
ATOM      1  C   LIG    1       27.582 -17.028   4.449  0.00  0.00    +0.003 C 
ATOM      2  C   LIG    1       27.356 -18.358   4.462  0.00  0.00    -0.050 C 
ATOM      3  C   LIG    1       28.108 -19.181   5.471  0.00  0.00    +0.044 C 
ENDROOT
BRANCH   1   5
ATOM      4  C   LIG    1       26.659 -14.815   3.971  0.00  0.00    +0.003 C 
ATOM      5  C   LIG    1       26.944 -16.067   3.579  0.00  0.00    +0.001 C 
BRANCH   4   7
ATOM      6  C   LIG    1       26.761 -13.522   1.812  0.00  0.00    +0.044 C 
ATOM      7  C   LIG    1       26.045 -13.812   3.115  0.00  0.00    -0.044 C 
ATOM      8  C   LIG    1       24.875 -13.184   3.363  0.00  0.00    +0.094 C 
BRANCH   8   9
ATOM      9  C   LIG    1       23.927 -13.236   4.494  0.00  0.00    +0.330 C 
ATOM     10  O   LIG    1       23.671 -12.229   5.152  0.00  0.00    -0.246 OA
BRANCH   9  11
ATOM     11  O   LIG    1       23.423 -14.440   4.791  0.00  0.00    -0.477 OA
ATOM     12  H   LIG    1       24.028 -15.178   4.583  0.00  0.00    +0.295 HD
ENDBRANCH   9  11
ENDBRANCH   8   9
ENDBRANCH   4   7
ENDBRANCH   1   5
BRANCH   2  13
ATOM     13  C   LIG    1       26.485 -18.997   3.482  0.00  0.00    +0.003 C 
ATOM     14  C   LIG    1       25.392 -19.759   3.625  0.00  0.00    +0.004 C 
BRANCH  14  15
ATOM     15  C   LIG    1       24.718 -20.220   4.828  0.00  0.00    -0.043 C 
ATOM     16  C   LIG    1       23.216 -19.858   4.910  0.00  0.00    -0.010 C 
ATOM     17  C   LIG    1       22.897 -18.426   4.417  0.00  0.00    +0.016 C 
ATOM     18  C   LIG    1       22.408 -20.840   4.030  0.00  0.00    +0.016 C 
ATOM     19  C   LIG    1       22.720 -19.941   6.375  0.00  0.00    +0.011 C 
ATOM     20  C   LIG    1       23.131 -21.242   7.045  0.00  0.00    +0.005 C 
ATOM     21  C   LIG    1       24.647 -21.386   7.061  0.00  0.00    +0.031 C 
ATOM     22  C   LIG    1       25.356 -20.901   5.814  0.00  0.00    -0.069 C 
ATOM     23  C   LIG    1       26.819 -21.281   5.818  0.00  0.00    +0.039 C 
ENDBRANCH  14  15
ENDBRANCH   2  13
TORSDOF 6
ENDMDL
MODEL 5
REMARK VINA RESULT:      -1.4      0.673      2.101
REMARK  Name = *****
REMARK                            x       y       z     vdW  Elec       q    Type
REMARK                         _______ _______ _______ _____ _____    ______ ____
ROOT
ATOM      1  C   LIG    1       23.095 -15.382   4.843  0.00  0.00    +0.003 C 
ATOM      2  C   LIG    1       22.404 -16.540   4.799  0.00  0.00    -0.050 C 
ATOM      3  C   LIG    1       21.646 -16.946   6.033  0.00  0.00    +0.044 C 
ENDROOT
BRANCH   1   5
ATOM      4  C   LIG    1       24.524 -13.648   3.880  0.00  0.00    +0.003 C 
ATOM      5  C   LIG    1       23.861 -14.809   3.760  0.00  0.00    +0.001 C 
BRANCH   4   7
ATOM      6  C   LIG    1       24.583 -12.193   1.826  0.00  0.00    +0.044 C 
ATOM      7  C   LIG    1       25.329 -13.054   2.824  0.00  0.00    -0.044 C 
ATOM      8  C   LIG    1       26.670 -13.161   2.711  0.00  0.00    +0.094 C 
BRANCH   8   9
ATOM      9  C   LIG    1       27.690 -13.886   3.496  0.00  0.00    +0.330 C 
ATOM     10  O   LIG    1       27.593 -15.096   3.695  0.00  0.00    -0.246 OA
BRANCH   9  11
ATOM     11  O   LIG    1       28.673 -13.144   4.020  0.00  0.00    -0.477 OA
ATOM     12  H   LIG    1       28.924 -12.381   3.465  0.00  0.00    +0.295 HD
ENDBRANCH   9  11
ENDBRANCH   8   9
ENDBRANCH   4   7
ENDBRANCH   1   5
BRANCH   2  13
ATOM     13  C   LIG    1       22.454 -17.418   3.635  0.00  0.00    +0.003 C 
ATOM     14  C   LIG    1       23.144 -18.542   3.396  0.00  0.00    +0.004 C 
BRANCH  14  15
ATOM     15  C   LIG    1       24.099 -19.254   4.230  0.00  0.00    -0.043 C 
ATOM     16  C   LIG    1       25.567 -19.174   3.749  0.00  0.00    -0.010 C 
ATOM     17  C   LIG    1       25.722 -19.304   2.214  0.00  0.00    +0.016 C 
ATOM     18  C   LIG    1       26.163 -17.808   4.160  0.00  0.00    +0.016 C 
ATOM     19  C   LIG    1       26.404 -20.317   4.375  0.00  0.00    +0.011 C 
ATOM     20  C   LIG    1       26.198 -20.418   5.878  0.00  0.00    +0.005 C 
ATOM     21  C   LIG    1       24.735 -20.683   6.207  0.00  0.00    +0.031 C 
ATOM     22  C   LIG    1       23.734 -19.950   5.338  0.00  0.00    -0.069 C 
ATOM     23  C   LIG    1       22.325 -20.089   5.867  0.00  0.00    +0.039 C 
ENDBRANCH  14  15
ENDBRANCH   2  13
TORSDOF 6
ENDMDL
