MODEL 1
REMARK VINA RESULT:      -7.9      0.000      0.000
REMARK  Name = *****
REMARK                            x       y       z     vdW  Elec       q    Type
REMARK                         _______ _______ _______ _____ _____    ______ ____
ROOT
ATOM      1  C   ALA A  1       26.142 -28.712  10.832  0.00  0.00    +0.233 C 
ATOM      2  N   UNK A  2       25.327 -28.916  11.935  0.00  0.00    -0.282 N 
ATOM      3  C   UNK A  2       25.486 -27.995  13.089  0.00  0.00    +0.189 C 
ATOM      4  C   UNK A  2       24.285 -27.068  13.214  0.00  0.00    +0.069 C 
ATOM      5  C   UNK A  2       22.981 -27.796  13.055  0.00  0.00    -0.037 A 
ATOM      6  C   UNK A  2       22.910 -29.058  12.464  0.00  0.00    -0.023 A 
ATOM      7  C   UNK A  2       21.667 -29.697  12.417  0.00  0.00    +0.054 A 
ATOM      8  C   UNK A  2       20.522 -29.114  12.987  0.00  0.00    +0.162 A 
ATOM      9  C   UNK A  2       20.576 -27.787  13.454  0.00  0.00    +0.162 A 
ATOM     10  C   UNK A  2       21.820 -27.158  13.499  0.00  0.00    +0.053 A 
ATOM     11  C   UNK A  2       24.144 -29.788  11.989  0.00  0.00    +0.144 C 
ATOM     12  O   ALA A  1       27.046 -27.869  10.878  0.00  0.00    -0.274 OA
ENDROOT
BRANCH   1  13
ATOM     13  CA  ALA A  1       25.987 -29.531   9.530  0.00  0.00    +0.138 C 
ATOM     14  CB  ALA A  1       26.689 -30.883   9.626  0.00  0.00    +0.034 C 
BRANCH  13  15
ATOM     15  N   ALA A  1       26.360 -28.709   8.352  0.00  0.00    -0.294 NA
ATOM     16  H   ALA A  1       26.744 -27.826   8.701  0.00  0.00    +0.123 HD
BRANCH  15  17
ATOM     17  C   UNK A  0       25.185 -28.355   7.505  0.00  0.00    +0.164 C 
BRANCH  17  18
ATOM     18  C   UNK A  0       24.643 -29.527   6.680  0.00  0.00    +0.324 C 
ATOM     19  O   UNK A  0       23.630 -30.172   6.943  0.00  0.00    -0.249 OA
BRANCH  18  20
ATOM     20  O   UNK A  0       25.511 -29.795   5.663  0.00  0.00    -0.464 OA
BRANCH  20  22
ATOM     21  C   UNK A  0       26.472 -32.004   6.048  0.00  0.00    +0.048 C 
ATOM     22  C   UNK A  0       25.541 -31.152   5.212  0.00  0.00    +0.229 C 
ENDBRANCH  20  22
ENDBRANCH  18  20
ENDBRANCH  17  18
BRANCH  17  23
ATOM     23  C   UNK A  0       25.595 -27.262   6.507  0.00  0.00    +0.035 C 
BRANCH  23  24
ATOM     24  C   UNK A  0       24.394 -26.416   6.048  0.00  0.00    +0.037 C 
BRANCH  24  25
ATOM     25  C   UNK A  0       24.502 -24.983   6.501  0.00  0.00    -0.047 A 
ATOM     26  C   UNK A  0       25.747 -24.440   6.851  0.00  0.00    +0.003 A 
ATOM     27  C   UNK A  0       25.844 -23.114   7.273  0.00  0.00    +0.000 A 
ATOM     28  C   UNK A  0       24.701 -22.321   7.349  0.00  0.00    +0.000 A 
ATOM     29  C   UNK A  0       23.461 -22.849   6.998  0.00  0.00    +0.000 A 
ATOM     30  C   UNK A  0       23.363 -24.171   6.570  0.00  0.00    +0.003 A 
ENDBRANCH  24  25
ENDBRANCH  23  24
ENDBRANCH  17  23
ENDBRANCH  15  17
ENDBRANCH  13  15
ENDBRANCH   1  13
BRANCH   3  31
ATOM     31  C   UNK A  2       25.797 -28.712  14.424  0.00  0.00    +0.326 C 
ATOM     32  O   UNK A  2       25.303 -28.440  15.483  0.00  0.00    -0.249 OA
BRANCH  31  33
ATOM     33  O   UNK A  2       26.798 -29.626  14.305  0.00  0.00    -0.479 OA
ATOM     34  H   UNK A  2       27.472 -29.336  13.664  0.00  0.00    +0.295 HD
ENDBRANCH  31  33
ENDBRANCH   3  31
BRANCH   9  35
ATOM     35  O   UNK A  2       19.444 -27.173  13.936  0.00  0.00    -0.491 OA
ATOM     36  C   UNK A  2       19.539 -26.661  15.273  0.00  0.00    +0.277 C 
ENDBRANCH   9  35
BRANCH   8  37
ATOM     37  O   UNK A  2       19.351 -29.825  13.093  0.00  0.00    -0.491 OA
ATOM     38  C   UNK A  2       19.377 -31.119  12.472  0.00  0.00    +0.277 C 
ENDBRANCH   8  37
TORSDOF 13
ENDMDL
MODEL 2
REMARK VINA RESULT:      -7.8      1.748      2.626
REMARK  Name = *****
REMARK                            x       y       z     vdW  Elec       q    Type
REMARK                         _______ _______ _______ _____ _____    ______ ____
ROOT
ATOM      1  C   ALA A  1       26.634 -30.107  10.427  0.00  0.00    +0.233 C 
ATOM      2  N   UNK A  2       26.213 -29.831  11.719  0.00  0.00    -0.282 N 
ATOM      3  C   UNK A  2       27.256 -29.564  12.741  0.00  0.00    +0.189 C 
ATOM      4  C   UNK A  2       27.257 -28.096  13.146  0.00  0.00    +0.069 C 
ATOM      5  C   UNK A  2       25.871 -27.567  13.383  0.00  0.00    -0.037 A 
ATOM      6  C   UNK A  2       24.740 -28.221  12.893  0.00  0.00    -0.023 A 
ATOM      7  C   UNK A  2       23.484 -27.700  13.217  0.00  0.00    +0.054 A 
ATOM      8  C   UNK A  2       23.350 -26.575  14.050  0.00  0.00    +0.162 A 
ATOM      9  C   UNK A  2       24.494 -25.845  14.422  0.00  0.00    +0.162 A 
ATOM     10  C   UNK A  2       25.743 -26.372  14.096  0.00  0.00    +0.053 A 
ATOM     11  C   UNK A  2       24.836 -29.523  12.134  0.00  0.00    +0.144 C 
ATOM     12  O   ALA A  1       27.839 -30.245  10.185  0.00  0.00    -0.274 OA
ENDROOT
BRANCH   1  13
ATOM     13  CA  ALA A  1       25.639 -30.285   9.256  0.00  0.00    +0.138 C 
ATOM     14  CB  ALA A  1       25.283 -31.753   9.036  0.00  0.00    +0.034 C 
BRANCH  13  15
ATOM     15  N   ALA A  1       26.122 -29.566   8.051  0.00  0.00    -0.294 NA
ATOM     16  H   ALA A  1       26.745 -28.817   8.368  0.00  0.00    +0.123 HD
BRANCH  15  17
ATOM     17  C   UNK A  0       25.018 -28.908   7.296  0.00  0.00    +0.164 C 
BRANCH  17  18
ATOM     18  C   UNK A  0       24.499 -29.735   6.115  0.00  0.00    +0.324 C 
ATOM     19  O   UNK A  0       23.320 -30.017   5.909  0.00  0.00    -0.249 OA
BRANCH  18  20
ATOM     20  O   UNK A  0       25.559 -30.181   5.383  0.00  0.00    -0.464 OA
BRANCH  20  22
ATOM     21  C   UNK A  0       26.694 -32.315   5.719  0.00  0.00    +0.048 C 
ATOM     22  C   UNK A  0       25.550 -31.574   5.060  0.00  0.00    +0.229 C 
ENDBRANCH  20  22
ENDBRANCH  18  20
ENDBRANCH  17  18
BRANCH  17  23
ATOM     23  C   UNK A  0       25.525 -27.579   6.717  0.00  0.00    +0.035 C 
BRANCH  23  24
ATOM     24  C   UNK A  0       24.383 -26.723   6.142  0.00  0.00    +0.037 C 
BRANCH  24  25
ATOM     25  C   UNK A  0       24.526 -25.267   6.503  0.00  0.00    -0.047 A 
ATOM     26  C   UNK A  0       25.789 -24.722   6.771  0.00  0.00    +0.003 A 
ATOM     27  C   UNK A  0       25.919 -23.374   7.107  0.00  0.00    +0.000 A 
ATOM     28  C   UNK A  0       24.789 -22.562   7.179  0.00  0.00    +0.000 A 
ATOM     29  C   UNK A  0       23.530 -23.093   6.908  0.00  0.00    +0.000 A 
ATOM     30  C   UNK A  0       23.399 -24.437   6.565  0.00  0.00    +0.003 A 
ENDBRANCH  24  25
ENDBRANCH  23  24
ENDBRANCH  17  23
ENDBRANCH  15  17
ENDBRANCH  13  15
ENDBRANCH   1  13
BRANCH   3  31
ATOM     31  C   UNK A  2       27.179 -30.498  13.972  0.00  0.00    +0.326 C 
ATOM     32  O   UNK A  2       27.520 -30.200  15.084  0.00  0.00    -0.249 OA
BRANCH  31  33
ATOM     33  O   UNK A  2       26.789 -31.760  13.648  0.00  0.00    -0.479 OA
ATOM     34  H   UNK A  2       26.955 -31.954  12.708  0.00  0.00    +0.295 HD
ENDBRANCH  31  33
ENDBRANCH   3  31
BRANCH   9  35
ATOM     35  O   UNK A  2       24.373 -24.694  15.166  0.00  0.00    -0.491 OA
ATOM     36  C   UNK A  2       25.498 -23.805  15.116  0.00  0.00    +0.277 C 
ENDBRANCH   9  35
BRANCH   8  37
ATOM     37  O   UNK A  2       22.114 -26.182  14.505  0.00  0.00    -0.491 OA
ATOM     38  C   UNK A  2       21.004 -26.750  13.793  0.00  0.00    +0.277 C 
ENDBRANCH   8  37
TORSDOF 13
ENDMDL
MODEL 3
REMARK VINA RESULT:      -7.1      5.931      9.970
REMARK  Name = *****
REMARK                            x       y       z     vdW  Elec       q    Type
REMARK                         _______ _______ _______ _____ _____    ______ ____
ROOT
ATOM      1  C   ALA A  1       26.261 -21.647   6.335  0.00  0.00    +0.233 C 
ATOM      2  N   UNK A  2       25.436 -22.740   6.549  0.00  0.00    -0.282 N 
ATOM      3  C   UNK A  2       24.373 -23.007   5.548  0.00  0.00    +0.189 C 
ATOM      4  C   UNK A  2       24.691 -24.255   4.736  0.00  0.00    +0.069 C 
ATOM      5  C   UNK A  2       25.165 -25.392   5.596  0.00  0.00    -0.037 A 
ATOM      6  C   UNK A  2       25.636 -25.187   6.893  0.00  0.00    -0.023 A 
ATOM      7  C   UNK A  2       25.992 -26.306   7.652  0.00  0.00    +0.054 A 
ATOM      8  C   UNK A  2       25.841 -27.610   7.149  0.00  0.00    +0.162 A 
ATOM      9  C   UNK A  2       25.498 -27.799   5.797  0.00  0.00    +0.162 A 
ATOM     10  C   UNK A  2       25.143 -26.677   5.048  0.00  0.00    +0.053 A 
ATOM     11  C   UNK A  2       25.658 -23.816   7.527  0.00  0.00    +0.144 C 
ATOM     12  O   ALA A  1       26.025 -20.865   5.407  0.00  0.00    -0.274 OA
ENDROOT
BRANCH   1  13
ATOM     13  CA  ALA A  1       27.474 -21.340   7.245  0.00  0.00    +0.138 C 
ATOM     14  CB  ALA A  1       27.113 -20.352   8.351  0.00  0.00    +0.034 C 
BRANCH  13  15
ATOM     15  N   ALA A  1       28.655 -20.968   6.427  0.00  0.00    -0.294 NA
ATOM     16  H   ALA A  1       29.415 -21.609   6.674  0.00  0.00    +0.123 HD
BRANCH  15  17
ATOM     17  C   UNK A  0       29.148 -19.592   6.725  0.00  0.00    +0.164 C 
BRANCH  17  18
ATOM     18  C   UNK A  0       29.121 -18.652   5.516  0.00  0.00    +0.324 C 
ATOM     19  O   UNK A  0       30.044 -17.920   5.165  0.00  0.00    -0.249 OA
BRANCH  18  20
ATOM     20  O   UNK A  0       27.883 -18.692   4.947  0.00  0.00    -0.464 OA
BRANCH  20  22
ATOM     21  C   UNK A  0       26.232 -17.772   3.404  0.00  0.00    +0.048 C 
ATOM     22  C   UNK A  0       27.514 -17.545   4.178  0.00  0.00    +0.229 C 
ENDBRANCH  20  22
ENDBRANCH  18  20
ENDBRANCH  17  18
BRANCH  17  23
ATOM     23  C   UNK A  0       30.609 -19.671   7.194  0.00  0.00    +0.035 C 
BRANCH  23  24
ATOM     24  C   UNK A  0       30.721 -19.780   8.725  0.00  0.00    +0.037 C 
BRANCH  24  25
ATOM     25  C   UNK A  0       31.131 -18.477   9.359  0.00  0.00    -0.047 A 
ATOM     26  C   UNK A  0       30.545 -18.057  10.562  0.00  0.00    +0.003 A 
ATOM     27  C   UNK A  0       30.924 -16.849  11.147  0.00  0.00    +0.000 A 
ATOM     28  C   UNK A  0       31.888 -16.050  10.536  0.00  0.00    +0.000 A 
ATOM     29  C   UNK A  0       32.481 -16.461   9.344  0.00  0.00    +0.000 A 
ATOM     30  C   UNK A  0       32.108 -17.671   8.762  0.00  0.00    +0.003 A 
ENDBRANCH  24  25
ENDBRANCH  23  24
ENDBRANCH  17  23
ENDBRANCH  15  17
ENDBRANCH  13  15
ENDBRANCH   1  13
BRANCH   3  31
ATOM     31  C   UNK A  2       22.948 -23.062   6.147  0.00  0.00    +0.326 C 
ATOM     32  O   UNK A  2       22.521 -23.954   6.828  0.00  0.00    -0.249 OA
BRANCH  31  33
ATOM     33  O   UNK A  2       22.162 -22.036   5.722  0.00  0.00    -0.479 OA
ATOM     34  H   UNK A  2       22.678 -21.370   5.233  0.00  0.00    +0.295 HD
ENDBRANCH  31  33
ENDBRANCH   3  31
BRANCH   9  35
ATOM     35  O   UNK A  2       25.429 -29.066   5.267  0.00  0.00    -0.491 OA
ATOM     36  C   UNK A  2       24.209 -29.776   5.521  0.00  0.00    +0.277 C 
ENDBRANCH   9  35
BRANCH   8  37
ATOM     37  O   UNK A  2       26.024 -28.701   7.963  0.00  0.00    -0.491 OA
ATOM     38  C   UNK A  2       26.534 -28.396   9.270  0.00  0.00    +0.277 C 
ENDBRANCH   8  37
TORSDOF 13
ENDMDL
MODEL 4
REMARK VINA RESULT:      -6.8      2.728      5.009
REMARK  Name = *****
REMARK                            x       y       z     vdW  Elec       q    Type
REMARK                         _______ _______ _______ _____ _____    ______ ____
ROOT
ATOM      1  C   ALA A  1       25.615 -27.900   7.494  0.00  0.00    +0.233 C 
ATOM      2  N   UNK A  2       25.368 -29.043   8.238  0.00  0.00    -0.282 N 
ATOM      3  C   UNK A  2       26.388 -29.447   9.238  0.00  0.00    +0.189 C 
ATOM      4  C   UNK A  2       25.878 -29.225  10.656  0.00  0.00    +0.069 C 
ATOM      5  C   UNK A  2       24.467 -29.707  10.839  0.00  0.00    -0.037 A 
ATOM      6  C   UNK A  2       23.621 -29.937   9.753  0.00  0.00    -0.023 A 
ATOM      7  C   UNK A  2       22.346 -30.451  10.006  0.00  0.00    +0.054 A 
ATOM      8  C   UNK A  2       21.932 -30.774  11.311  0.00  0.00    +0.162 A 
ATOM      9  C   UNK A  2       22.737 -30.409  12.406  0.00  0.00    +0.162 A 
ATOM     10  C   UNK A  2       24.008 -29.899  12.145  0.00  0.00    +0.053 A 
ATOM     11  C   UNK A  2       24.086 -29.759   8.327  0.00  0.00    +0.144 C 
ATOM     12  O   ALA A  1       26.706 -27.325   7.585  0.00  0.00    -0.274 OA
ENDROOT
BRANCH   1  13
ATOM     13  CA  ALA A  1       24.575 -27.317   6.509  0.00  0.00    +0.138 C 
ATOM     14  CB  ALA A  1       24.074 -28.372   5.526  0.00  0.00    +0.034 C 
BRANCH  13  15
ATOM     15  N   ALA A  1       25.089 -26.071   5.888  0.00  0.00    -0.294 NA
ATOM     16  H   ALA A  1       26.093 -26.197   5.730  0.00  0.00    +0.123 HD
BRANCH  15  17
ATOM     17  C   UNK A  0       24.946 -24.885   6.781  0.00  0.00    +0.164 C 
BRANCH  17  18
ATOM     18  C   UNK A  0       23.681 -24.062   6.517  0.00  0.00    +0.324 C 
ATOM     19  O   UNK A  0       22.538 -24.402   6.816  0.00  0.00    -0.249 OA
BRANCH  18  20
ATOM     20  O   UNK A  0       24.017 -22.939   5.821  0.00  0.00    -0.464 OA
BRANCH  20  22
ATOM     21  C   UNK A  0       23.323 -20.984   7.106  0.00  0.00    +0.048 C 
ATOM     22  C   UNK A  0       23.082 -21.859   5.894  0.00  0.00    +0.229 C 
ENDBRANCH  20  22
ENDBRANCH  18  20
ENDBRANCH  17  18
BRANCH  17  23
ATOM     23  C   UNK A  0       26.141 -23.944   6.564  0.00  0.00    +0.035 C 
BRANCH  23  24
ATOM     24  C   UNK A  0       26.269 -22.901   7.688  0.00  0.00    +0.037 C 
BRANCH  24  25
ATOM     25  C   UNK A  0       27.161 -21.751   7.298  0.00  0.00    -0.047 A 
ATOM     26  C   UNK A  0       26.815 -20.915   6.227  0.00  0.00    +0.003 A 
ATOM     27  C   UNK A  0       27.644 -19.853   5.866  0.00  0.00    +0.000 A 
ATOM     28  C   UNK A  0       28.823 -19.617   6.571  0.00  0.00    +0.000 A 
ATOM     29  C   UNK A  0       29.172 -20.438   7.640  0.00  0.00    +0.000 A 
ATOM     30  C   UNK A  0       28.342 -21.496   8.006  0.00  0.00    +0.003 A 
ENDBRANCH  24  25
ENDBRANCH  23  24
ENDBRANCH  17  23
ENDBRANCH  15  17
ENDBRANCH  13  15
ENDBRANCH   1  13
BRANCH   3  31
ATOM     31  C   UNK A  2       26.922 -30.886   9.041  0.00  0.00    +0.326 C 
ATOM     32  O   UNK A  2       27.387 -31.573   9.908  0.00  0.00    -0.249 OA
BRANCH  31  33
ATOM     33  O   UNK A  2       26.924 -31.268   7.735  0.00  0.00    -0.479 OA
ATOM     34  H   UNK A  2       27.351 -32.135   7.618  0.00  0.00    +0.295 HD
ENDBRANCH  31  33
ENDBRANCH   3  31
BRANCH   9  35
ATOM     35  O   UNK A  2       22.308 -30.641  13.692  0.00  0.00    -0.491 OA
ATOM     36  C   UNK A  2       22.024 -29.470  14.470  0.00  0.00    +0.277 C 
ENDBRANCH   9  35
BRANCH   8  37
ATOM     37  O   UNK A  2       20.751 -31.442  11.526  0.00  0.00    -0.491 OA
ATOM     38  C   UNK A  2       19.722 -31.168  10.563  0.00  0.00    +0.277 C 
ENDBRANCH   8  37
TORSDOF 13
ENDMDL
MODEL 5
REMARK VINA RESULT:      -6.5      2.624      7.799
REMARK  Name = *****
REMARK                            x       y       z     vdW  Elec       q    Type
REMARK                         _______ _______ _______ _____ _____    ______ ____
ROOT
ATOM      1  C   ALA A  1       25.230 -28.716   7.365  0.00  0.00    +0.233 C 
ATOM      2  N   UNK A  2       25.587 -27.523   6.757  0.00  0.00    -0.282 N 
ATOM      3  C   UNK A  2       25.021 -27.238   5.414  0.00  0.00    +0.189 C 
ATOM      4  C   UNK A  2       23.993 -26.117   5.483  0.00  0.00    +0.069 C 
ATOM      5  C   UNK A  2       24.461 -24.962   6.321  0.00  0.00    -0.037 A 
ATOM      6  C   UNK A  2       25.508 -25.092   7.234  0.00  0.00    -0.023 A 
ATOM      7  C   UNK A  2       25.928 -23.951   7.925  0.00  0.00    +0.054 A 
ATOM      8  C   UNK A  2       25.349 -22.693   7.681  0.00  0.00    +0.162 A 
ATOM      9  C   UNK A  2       24.206 -22.599   6.864  0.00  0.00    +0.162 A 
ATOM     10  C   UNK A  2       23.795 -23.742   6.179  0.00  0.00    +0.053 A 
ATOM     11  C   UNK A  2       26.264 -26.388   7.404  0.00  0.00    +0.144 C 
ATOM     12  O   ALA A  1       24.566 -29.554   6.744  0.00  0.00    -0.274 OA
ENDROOT
BRANCH   1  13
ATOM     13  CA  ALA A  1       25.661 -29.066   8.808  0.00  0.00    +0.138 C 
ATOM     14  CB  ALA A  1       26.638 -30.239   8.837  0.00  0.00    +0.034 C 
BRANCH  13  15
ATOM     15  N   ALA A  1       24.472 -29.215   9.684  0.00  0.00    -0.294 NA
ATOM     16  H   ALA A  1       24.656 -28.692  10.545  0.00  0.00    +0.123 HD
BRANCH  15  17
ATOM     17  C   UNK A  0       24.234 -30.630  10.092  0.00  0.00    +0.164 C 
BRANCH  17  18
ATOM     18  C   UNK A  0       23.051 -31.288   9.373  0.00  0.00    +0.324 C 
ATOM     19  O   UNK A  0       23.140 -32.072   8.431  0.00  0.00    -0.249 OA
BRANCH  18  20
ATOM     20  O   UNK A  0       21.888 -30.798   9.889  0.00  0.00    -0.464 OA
BRANCH  20  22
ATOM     21  C   UNK A  0       19.629 -31.131  10.748  0.00  0.00    +0.048 C 
ATOM     22  C   UNK A  0       20.891 -31.771  10.210  0.00  0.00    +0.229 C 
ENDBRANCH  20  22
ENDBRANCH  18  20
ENDBRANCH  17  18
BRANCH  17  23
ATOM     23  C   UNK A  0       23.922 -30.675  11.595  0.00  0.00    +0.035 C 
BRANCH  23  24
ATOM     24  C   UNK A  0       24.486 -29.454  12.341  0.00  0.00    +0.037 C 
BRANCH  24  25
ATOM     25  C   UNK A  0       23.412 -28.460  12.699  0.00  0.00    -0.047 A 
ATOM     26  C   UNK A  0       23.750 -27.219  13.256  0.00  0.00    +0.003 A 
ATOM     27  C   UNK A  0       22.754 -26.300  13.589  0.00  0.00    +0.000 A 
ATOM     28  C   UNK A  0       21.415 -26.614  13.369  0.00  0.00    +0.000 A 
ATOM     29  C   UNK A  0       21.069 -27.842  12.810  0.00  0.00    +0.000 A 
ATOM     30  C   UNK A  0       22.063 -28.758  12.471  0.00  0.00    +0.003 A 
ENDBRANCH  24  25
ENDBRANCH  23  24
ENDBRANCH  17  23
ENDBRANCH  15  17
ENDBRANCH  13  15
ENDBRANCH   1  13
BRANCH   3  31
ATOM     31  C   UNK A  2       26.090 -26.967   4.329  0.00  0.00    +0.326 C 
ATOM     32  O   UNK A  2       25.887 -26.410   3.285  0.00  0.00    -0.249 OA
BRANCH  31  33
ATOM     33  O   UNK A  2       27.289 -27.539   4.623  0.00  0.00    -0.479 OA
ATOM     34  H   UNK A  2       27.325 -27.838   5.549  0.00  0.00    +0.295 HD
ENDBRANCH  31  33
ENDBRANCH   3  31
BRANCH   9  35
ATOM     35  O   UNK A  2       23.577 -21.389   6.685  0.00  0.00    -0.491 OA
ATOM     36  C   UNK A  2       22.983 -21.187   5.395  0.00  0.00    +0.277 C 
ENDBRANCH   9  35
BRANCH   8  37
ATOM     37  O   UNK A  2       25.888 -21.555   8.231  0.00  0.00    -0.491 OA
ATOM     38  C   UNK A  2       27.244 -21.284   7.843  0.00  0.00    +0.277 C 
ENDBRANCH   8  37
TORSDOF 13
ENDMDL
MODEL 6
REMARK VINA RESULT:      -6.4      2.859      7.786
REMARK  Name = *****
REMARK                            x       y       z     vdW  Elec       q    Type
REMARK                         _______ _______ _______ _____ _____    ______ ____
ROOT
ATOM      1  C   ALA A  1       25.163 -28.532   7.549  0.00  0.00    +0.233 C 
ATOM      2  N   UNK A  2       25.546 -27.386   6.870  0.00  0.00    -0.282 N 
ATOM      3  C   UNK A  2       25.046 -27.208   5.483  0.00  0.00    +0.189 C 
ATOM      4  C   UNK A  2       24.012 -26.092   5.417  0.00  0.00    +0.069 C 
ATOM      5  C   UNK A  2       24.434 -24.873   6.186  0.00  0.00    -0.037 A 
ATOM      6  C   UNK A  2       25.436 -24.926   7.156  0.00  0.00    -0.023 A 
ATOM      7  C   UNK A  2       25.819 -23.733   7.777  0.00  0.00    +0.054 A 
ATOM      8  C   UNK A  2       25.248 -22.501   7.410  0.00  0.00    +0.162 A 
ATOM      9  C   UNK A  2       24.146 -22.478   6.534  0.00  0.00    +0.162 A 
ATOM     10  C   UNK A  2       23.773 -23.672   5.919  0.00  0.00    +0.053 A 
ATOM     11  C   UNK A  2       26.187 -26.201   7.460  0.00  0.00    +0.144 C 
ATOM     12  O   ALA A  1       24.533 -29.419   6.962  0.00  0.00    -0.274 OA
ENDROOT
BRANCH   1  13
ATOM     13  CA  ALA A  1       25.524 -28.768   9.035  0.00  0.00    +0.138 C 
ATOM     14  CB  ALA A  1       27.022 -28.991   9.223  0.00  0.00    +0.034 C 
BRANCH  13  15
ATOM     15  N   ALA A  1       24.653 -29.817   9.620  0.00  0.00    -0.294 NA
ATOM     16  H   ALA A  1       23.894 -29.344  10.119  0.00  0.00    +0.123 HD
BRANCH  15  17
ATOM     17  C   UNK A  0       25.364 -30.656  10.628  0.00  0.00    +0.164 C 
BRANCH  17  18
ATOM     18  C   UNK A  0       25.393 -32.148  10.279  0.00  0.00    +0.324 C 
ATOM     19  O   UNK A  0       25.910 -33.027  10.965  0.00  0.00    -0.249 OA
BRANCH  18  20
ATOM     20  O   UNK A  0       24.834 -32.328   9.049  0.00  0.00    -0.464 OA
BRANCH  20  22
ATOM     21  C   UNK A  0       26.672 -32.264   7.446  0.00  0.00    +0.048 C 
ATOM     22  C   UNK A  0       25.605 -33.098   8.123  0.00  0.00    +0.229 C 
ENDBRANCH  20  22
ENDBRANCH  18  20
ENDBRANCH  17  18
BRANCH  17  23
ATOM     23  C   UNK A  0       24.649 -30.531  11.982  0.00  0.00    +0.035 C 
BRANCH  23  24
ATOM     24  C   UNK A  0       24.941 -29.186  12.670  0.00  0.00    +0.037 C 
BRANCH  24  25
ATOM     25  C   UNK A  0       23.697 -28.358  12.853  0.00  0.00    -0.047 A 
ATOM     26  C   UNK A  0       22.437 -28.890  12.543  0.00  0.00    +0.003 A 
ATOM     27  C   UNK A  0       21.286 -28.120  12.711  0.00  0.00    +0.000 A 
ATOM     28  C   UNK A  0       21.383 -26.815  13.190  0.00  0.00    +0.000 A 
ATOM     29  C   UNK A  0       22.629 -26.280  13.507  0.00  0.00    +0.000 A 
ATOM     30  C   UNK A  0       23.780 -27.049  13.346  0.00  0.00    +0.003 A 
ENDBRANCH  24  25
ENDBRANCH  23  24
ENDBRANCH  17  23
ENDBRANCH  15  17
ENDBRANCH  13  15
ENDBRANCH   1  13
BRANCH   3  31
ATOM     31  C   UNK A  2       26.166 -27.013   4.434  0.00  0.00    +0.326 C 
ATOM     32  O   UNK A  2       26.014 -26.528   3.346  0.00  0.00    -0.249 OA
BRANCH  31  33
ATOM     33  O   UNK A  2       27.347 -27.565   4.822  0.00  0.00    -0.479 OA
ATOM     34  H   UNK A  2       27.275 -28.531   4.922  0.00  0.00    +0.295 HD
ENDBRANCH  31  33
ENDBRANCH   3  31
BRANCH   9  35
ATOM     35  O   UNK A  2       23.524 -21.289   6.232  0.00  0.00    -0.491 OA
ATOM     36  C   UNK A  2       23.653 -20.852   4.872  0.00  0.00    +0.277 C 
ENDBRANCH   9  35
BRANCH   8  37
ATOM     37  O   UNK A  2       25.756 -21.321   7.897  0.00  0.00    -0.491 OA
ATOM     38  C   UNK A  2       26.802 -20.744   7.101  0.00  0.00    +0.277 C 
ENDBRANCH   8  37
TORSDOF 13
ENDMDL
MODEL 7
REMARK VINA RESULT:      -6.2      5.868      9.945
REMARK  Name = *****
REMARK                            x       y       z     vdW  Elec       q    Type
REMARK                         _______ _______ _______ _____ _____    ______ ____
ROOT
ATOM      1  C   ALA A  1       26.010 -20.836   6.331  0.00  0.00    +0.233 C 
ATOM      2  N   UNK A  2       25.215 -21.966   6.447  0.00  0.00    -0.282 N 
ATOM      3  C   UNK A  2       24.219 -22.220   5.376  0.00  0.00    +0.189 C 
ATOM      4  C   UNK A  2       24.627 -23.415   4.525  0.00  0.00    +0.069 C 
ATOM      5  C   UNK A  2       25.095 -24.576   5.356  0.00  0.00    -0.037 A 
ATOM      6  C   UNK A  2       25.488 -24.418   6.686  0.00  0.00    -0.023 A 
ATOM      7  C   UNK A  2       25.843 -25.560   7.410  0.00  0.00    +0.054 A 
ATOM      8  C   UNK A  2       25.768 -26.842   6.839  0.00  0.00    +0.162 A 
ATOM      9  C   UNK A  2       25.507 -26.976   5.462  0.00  0.00    +0.162 A 
ATOM     10  C   UNK A  2       25.151 -25.832   4.748  0.00  0.00    +0.053 A 
ATOM     11  C   UNK A  2       25.424 -23.080   7.384  0.00  0.00    +0.144 C 
ATOM     12  O   ALA A  1       25.795 -20.018   5.429  0.00  0.00    -0.274 OA
ENDROOT
BRANCH   1  13
ATOM     13  CA  ALA A  1       27.159 -20.532   7.321  0.00  0.00    +0.138 C 
ATOM     14  CB  ALA A  1       26.633 -20.241   8.724  0.00  0.00    +0.034 C 
BRANCH  13  15
ATOM     15  N   ALA A  1       28.066 -19.499   6.761  0.00  0.00    -0.294 NA
ATOM     16  H   ALA A  1       27.814 -19.367   5.778  0.00  0.00    +0.123 HD
BRANCH  15  17
ATOM     17  C   UNK A  0       29.496 -19.923   6.778  0.00  0.00    +0.164 C 
BRANCH  17  18
ATOM     18  C   UNK A  0       29.766 -21.147   7.660  0.00  0.00    +0.324 C 
ATOM     19  O   UNK A  0       29.039 -22.133   7.746  0.00  0.00    -0.249 OA
BRANCH  18  20
ATOM     20  O   UNK A  0       30.893 -20.927   8.395  0.00  0.00    -0.464 OA
BRANCH  20  22
ATOM     21  C   UNK A  0       32.107 -23.042   8.477  0.00  0.00    +0.048 C 
ATOM     22  C   UNK A  0       31.306 -22.006   9.238  0.00  0.00    +0.229 C 
ENDBRANCH  20  22
ENDBRANCH  18  20
ENDBRANCH  17  18
BRANCH  17  23
ATOM     23  C   UNK A  0       30.354 -18.777   7.335  0.00  0.00    +0.035 C 
BRANCH  23  24
ATOM     24  C   UNK A  0       29.685 -18.080   8.532  0.00  0.00    +0.037 C 
BRANCH  24  25
ATOM     25  C   UNK A  0       30.693 -17.490   9.484  0.00  0.00    -0.047 A 
ATOM     26  C   UNK A  0       30.398 -17.377  10.850  0.00  0.00    +0.003 A 
ATOM     27  C   UNK A  0       31.332 -16.828  11.729  0.00  0.00    +0.000 A 
ATOM     28  C   UNK A  0       32.565 -16.389  11.252  0.00  0.00    +0.000 A 
ATOM     29  C   UNK A  0       32.870 -16.503   9.897  0.00  0.00    +0.000 A 
ATOM     30  C   UNK A  0       31.941 -17.057   9.019  0.00  0.00    +0.003 A 
ENDBRANCH  24  25
ENDBRANCH  23  24
ENDBRANCH  17  23
ENDBRANCH  15  17
ENDBRANCH  13  15
ENDBRANCH   1  13
BRANCH   3  31
ATOM     31  C   UNK A  2       22.766 -22.354   5.891  0.00  0.00    +0.326 C 
ATOM     32  O   UNK A  2       22.415 -23.079   6.780  0.00  0.00    -0.249 OA
BRANCH  31  33
ATOM     33  O   UNK A  2       21.880 -21.641   5.144  0.00  0.00    -0.479 OA
ATOM     34  H   UNK A  2       21.207 -21.211   5.703  0.00  0.00    +0.295 HD
ENDBRANCH  31  33
ENDBRANCH   3  31
BRANCH   9  35
ATOM     35  O   UNK A  2       25.514 -28.218   4.871  0.00  0.00    -0.491 OA
ATOM     36  C   UNK A  2       24.323 -28.997   5.054  0.00  0.00    +0.277 C 
ENDBRANCH   9  35
BRANCH   8  37
ATOM     37  O   UNK A  2       25.947 -27.965   7.610  0.00  0.00    -0.491 OA
ATOM     38  C   UNK A  2       26.555 -27.725   8.888  0.00  0.00    +0.277 C 
ENDBRANCH   8  37
TORSDOF 13
ENDMDL
MODEL 8
REMARK VINA RESULT:      -6.2      5.963     10.049
REMARK  Name = *****
REMARK                            x       y       z     vdW  Elec       q    Type
REMARK                         _______ _______ _______ _____ _____    ______ ____
ROOT
ATOM      1  C   ALA A  1       26.287 -21.193   6.215  0.00  0.00    +0.233 C 
ATOM      2  N   UNK A  2       25.513 -22.281   6.589  0.00  0.00    -0.282 N 
ATOM      3  C   UNK A  2       24.211 -22.469   5.902  0.00  0.00    +0.189 C 
ATOM      4  C   UNK A  2       24.256 -23.674   4.971  0.00  0.00    +0.069 C 
ATOM      5  C   UNK A  2       24.905 -24.868   5.612  0.00  0.00    -0.037 A 
ATOM      6  C   UNK A  2       25.716 -24.747   6.741  0.00  0.00    -0.023 A 
ATOM      7  C   UNK A  2       26.226 -25.915   7.316  0.00  0.00    +0.054 A 
ATOM      8  C   UNK A  2       25.900 -27.185   6.807  0.00  0.00    +0.162 A 
ATOM      9  C   UNK A  2       25.199 -27.288   5.591  0.00  0.00    +0.162 A 
ATOM     10  C   UNK A  2       24.693 -26.118   5.025  0.00  0.00    +0.053 A 
ATOM     11  C   UNK A  2       25.955 -23.416   7.414  0.00  0.00    +0.144 C 
ATOM     12  O   ALA A  1       25.835 -20.354   5.428  0.00  0.00    -0.274 OA
ENDROOT
BRANCH   1  13
ATOM     13  CA  ALA A  1       27.709 -20.962   6.776  0.00  0.00    +0.138 C 
ATOM     14  CB  ALA A  1       27.903 -21.649   8.126  0.00  0.00    +0.034 C 
BRANCH  13  15
ATOM     15  N   ALA A  1       28.050 -19.518   6.750  0.00  0.00    -0.294 NA
ATOM     16  H   ALA A  1       27.290 -19.031   6.265  0.00  0.00    +0.123 HD
BRANCH  15  17
ATOM     17  C   UNK A  0       29.294 -19.236   5.976  0.00  0.00    +0.164 C 
BRANCH  17  18
ATOM     18  C   UNK A  0       30.529 -19.015   6.855  0.00  0.00    +0.324 C 
ATOM     19  O   UNK A  0       31.485 -19.783   6.942  0.00  0.00    -0.249 OA
BRANCH  18  20
ATOM     20  O   UNK A  0       30.357 -17.878   7.588  0.00  0.00    -0.464 OA
BRANCH  20  22
ATOM     21  C   UNK A  0       30.283 -17.539  10.003  0.00  0.00    +0.048 C 
ATOM     22  C   UNK A  0       31.142 -17.782   8.780  0.00  0.00    +0.229 C 
ENDBRANCH  20  22
ENDBRANCH  18  20
ENDBRANCH  17  18
BRANCH  17  23
ATOM     23  C   UNK A  0       29.097 -17.953   5.156  0.00  0.00    +0.035 C 
BRANCH  23  24
ATOM     24  C   UNK A  0       27.774 -17.964   4.371  0.00  0.00    +0.037 C 
BRANCH  24  25
ATOM     25  C   UNK A  0       27.309 -16.575   4.019  0.00  0.00    -0.047 A 
ATOM     26  C   UNK A  0       26.084 -16.380   3.365  0.00  0.00    +0.003 A 
ATOM     27  C   UNK A  0       25.656 -15.093   3.038  0.00  0.00    +0.000 A 
ATOM     28  C   UNK A  0       26.446 -13.992   3.362  0.00  0.00    +0.000 A 
ATOM     29  C   UNK A  0       27.662 -14.175   4.018  0.00  0.00    +0.000 A 
ATOM     30  C   UNK A  0       28.088 -15.459   4.351  0.00  0.00    +0.003 A 
ENDBRANCH  24  25
ENDBRANCH  23  24
ENDBRANCH  17  23
ENDBRANCH  15  17
ENDBRANCH  13  15
ENDBRANCH   1  13
BRANCH   3  31
ATOM     31  C   UNK A  2       23.000 -22.533   6.862  0.00  0.00    +0.326 C 
ATOM     32  O   UNK A  2       22.853 -21.841   7.832  0.00  0.00    -0.249 OA
BRANCH  31  33
ATOM     33  O   UNK A  2       22.150 -23.552   6.564  0.00  0.00    -0.479 OA
ATOM     34  H   UNK A  2       21.219 -23.281   6.659  0.00  0.00    +0.295 HD
ENDBRANCH  31  33
ENDBRANCH   3  31
BRANCH   9  35
ATOM     35  O   UNK A  2       24.947 -28.521   5.037  0.00  0.00    -0.491 OA
ATOM     36  C   UNK A  2       23.945 -29.304   5.700  0.00  0.00    +0.277 C 
ENDBRANCH   9  35
BRANCH   8  37
ATOM     37  O   UNK A  2       26.260 -28.325   7.485  0.00  0.00    -0.491 OA
ATOM     38  C   UNK A  2       26.333 -28.178   8.911  0.00  0.00    +0.277 C 
ENDBRANCH   8  37
TORSDOF 13
ENDMDL
MODEL 9
REMARK VINA RESULT:      -6.2      1.227      4.333
REMARK  Name = *****
REMARK                            x       y       z     vdW  Elec       q    Type
REMARK                         _______ _______ _______ _____ _____    ______ ____
ROOT
ATOM      1  C   ALA A  1       26.275 -28.602  10.785  0.00  0.00    +0.233 C 
ATOM      2  N   UNK A  2       25.424 -28.980  11.812  0.00  0.00    -0.282 N 
ATOM      3  C   UNK A  2       25.562 -28.281  13.114  0.00  0.00    +0.189 C 
ATOM      4  C   UNK A  2       24.373 -27.364  13.369  0.00  0.00    +0.069 C 
ATOM      5  C   UNK A  2       23.062 -28.024  13.048  0.00  0.00    -0.037 A 
ATOM      6  C   UNK A  2       22.989 -29.161  12.241  0.00  0.00    -0.023 A 
ATOM      7  C   UNK A  2       21.738 -29.754  12.048  0.00  0.00    +0.054 A 
ATOM      8  C   UNK A  2       20.585 -29.256  12.681  0.00  0.00    +0.162 A 
ATOM      9  C   UNK A  2       20.647 -28.034  13.377  0.00  0.00    +0.162 A 
ATOM     10  C   UNK A  2       21.899 -27.449  13.566  0.00  0.00    +0.053 A 
ATOM     11  C   UNK A  2       24.225 -29.822  11.678  0.00  0.00    +0.144 C 
ATOM     12  O   ALA A  1       27.191 -27.800  11.004  0.00  0.00    -0.274 OA
ENDROOT
BRANCH   1  13
ATOM     13  CA  ALA A  1       26.146 -29.175   9.355  0.00  0.00    +0.138 C 
ATOM     14  CB  ALA A  1       26.826 -30.535   9.228  0.00  0.00    +0.034 C 
BRANCH  13  15
ATOM     15  N   ALA A  1       26.565 -28.165   8.351  0.00  0.00    -0.294 NA
ATOM     16  H   ALA A  1       26.253 -27.249   8.687  0.00  0.00    +0.123 HD
BRANCH  15  17
ATOM     17  C   UNK A  0       25.918 -28.373   7.024  0.00  0.00    +0.164 C 
BRANCH  17  18
ATOM     18  C   UNK A  0       25.824 -27.099   6.176  0.00  0.00    +0.324 C 
ATOM     19  O   UNK A  0       26.690 -26.697   5.402  0.00  0.00    -0.249 OA
BRANCH  18  20
ATOM     20  O   UNK A  0       24.670 -26.442   6.485  0.00  0.00    -0.464 OA
BRANCH  20  22
ATOM     21  C   UNK A  0       23.628 -24.237   6.501  0.00  0.00    +0.048 C 
ATOM     22  C   UNK A  0       24.393 -25.275   5.708  0.00  0.00    +0.229 C 
ENDBRANCH  20  22
ENDBRANCH  18  20
ENDBRANCH  17  18
BRANCH  17  23
ATOM     23  C   UNK A  0       24.481 -28.871   7.237  0.00  0.00    +0.035 C 
BRANCH  23  24
ATOM     24  C   UNK A  0       24.028 -29.830   6.122  0.00  0.00    +0.037 C 
BRANCH  24  25
ATOM     25  C   UNK A  0       24.725 -31.163   6.201  0.00  0.00    -0.047 A 
ATOM     26  C   UNK A  0       24.253 -32.161   7.065  0.00  0.00    +0.003 A 
ATOM     27  C   UNK A  0       24.902 -33.394   7.139  0.00  0.00    +0.000 A 
ATOM     28  C   UNK A  0       26.024 -33.640   6.351  0.00  0.00    +0.000 A 
ATOM     29  C   UNK A  0       26.497 -32.657   5.485  0.00  0.00    +0.000 A 
ATOM     30  C   UNK A  0       25.847 -31.427   5.405  0.00  0.00    +0.003 A 
ENDBRANCH  24  25
ENDBRANCH  23  24
ENDBRANCH  17  23
ENDBRANCH  15  17
ENDBRANCH  13  15
ENDBRANCH   1  13
BRANCH   3  31
ATOM     31  C   UNK A  2       25.820 -29.229  14.309  0.00  0.00    +0.326 C 
ATOM     32  O   UNK A  2       25.392 -29.070  15.419  0.00  0.00    -0.249 OA
BRANCH  31  33
ATOM     33  O   UNK A  2       26.698 -30.223  14.007  0.00  0.00    -0.479 OA
ATOM     34  H   UNK A  2       26.404 -30.736  13.232  0.00  0.00    +0.295 HD
ENDBRANCH  31  33
ENDBRANCH   3  31
BRANCH   9  35
ATOM     35  O   UNK A  2       19.511 -27.490  13.929  0.00  0.00    -0.491 OA
ATOM     36  C   UNK A  2       19.719 -26.661  15.080  0.00  0.00    +0.277 C 
ENDBRANCH   9  35
BRANCH   8  37
ATOM     37  O   UNK A  2       19.401 -29.949  12.627  0.00  0.00    -0.491 OA
ATOM     38  C   UNK A  2       19.261 -30.977  13.620  0.00  0.00    +0.277 C 
ENDBRANCH   8  37
TORSDOF 13
ENDMDL
