MODEL 1
REMARK VINA RESULT:      -8.4      0.000      0.000
REMARK  Name = *****
REMARK                            x       y       z     vdW  Elec       q    Type
REMARK                         _______ _______ _______ _____ _____    ______ ____
ROOT
ATOM      1  C   LIG    1       24.841 -21.431   6.347  0.00  0.00    -0.024 C 
ATOM      2  C   LIG    1       26.118 -20.837   6.405  0.00  0.00    +0.050 C 
ATOM      3  C   LIG    1       26.611 -19.983   5.415  0.00  0.00    +0.004 C 
ATOM      4  C   LIG    1       27.938 -19.638   5.793  0.00  0.00    -0.014 C 
ATOM      5  C   LIG    1       28.972 -18.850   5.083  0.00  0.00    +0.065 C 
ATOM      6  C   LIG    1       30.068 -18.443   6.082  0.00  0.00    +0.166 C 
ATOM      7  O   LIG    1       30.495 -19.535   6.934  0.00  0.00    -0.366 OA
ATOM      8  C   LIG    1       29.478 -20.105   7.823  0.00  0.00    +0.119 C 
ATOM      9  C   LIG    1       28.204 -20.215   7.017  0.00  0.00    +0.053 C 
ATOM     10  C   LIG    1       25.788 -19.673   4.317  0.00  0.00    +0.010 C 
ATOM     11  C   LIG    1       24.508 -20.229   4.241  0.00  0.00    +0.001 C 
ATOM     12  N   LIG    1       27.105 -20.958   7.361  0.00  0.00    -0.355 NA
ATOM     13  H   LIG    1       27.014 -21.524   8.192  0.00  0.00    +0.166 HD
ATOM     14  C   LIG    1       24.051 -21.097   5.231  0.00  0.00    +0.006 C 
ENDROOT
BRANCH   1  16
ATOM     15  C   LIG    1       23.144 -23.208   6.854  0.00  0.00    +0.009 C 
ATOM     16  C   LIG    1       24.323 -22.401   7.379  0.00  0.00    +0.034 C 
ENDBRANCH   1  16
BRANCH   8  17
ATOM     17  C   LIG    1       29.299 -19.214   9.083  0.00  0.00    +0.038 C 
ATOM     18  C   LIG    1       30.211 -17.989   9.180  0.00  0.00    +0.007 C 
ENDBRANCH   8  17
BRANCH   8  19
ATOM     19  C   LIG    1       29.990 -21.514   8.168  0.00  0.00    +0.161 C 
BRANCH  19  20
ATOM     20  C   LIG    1       30.980 -21.555   9.298  0.00  0.00    +0.308 C 
ATOM     21  O   LIG    1       30.779 -22.176  10.341  0.00  0.00    -0.251 OA
BRANCH  20  22
ATOM     22  O   LIG    1       32.136 -20.908   9.055  0.00  0.00    -0.480 OA
ATOM     23  H   LIG    1       32.048 -20.263   8.315  0.00  0.00    +0.295 HD
ENDBRANCH  20  22
ENDBRANCH  19  20
ENDBRANCH   8  19
TORSDOF 5
ENDMDL
MODEL 2
REMARK VINA RESULT:      -8.2      2.744      5.713
REMARK  Name = *****
REMARK                            x       y       z     vdW  Elec       q    Type
REMARK                         _______ _______ _______ _____ _____    ______ ____
ROOT
ATOM      1  C   LIG    1       29.377 -20.633   7.388  0.00  0.00    -0.024 C 
ATOM      2  C   LIG    1       28.147 -20.813   6.725  0.00  0.00    +0.050 C 
ATOM      3  C   LIG    1       27.689 -19.963   5.714  0.00  0.00    +0.004 C 
ATOM      4  C   LIG    1       26.401 -20.429   5.337  0.00  0.00    -0.014 C 
ATOM      5  C   LIG    1       25.406 -19.865   4.395  0.00  0.00    +0.065 C 
ATOM      6  C   LIG    1       24.366 -20.946   4.055  0.00  0.00    +0.166 C 
ATOM      7  O   LIG    1       23.886 -21.660   5.222  0.00  0.00    -0.366 OA
ATOM      8  C   LIG    1       24.883 -22.430   5.972  0.00  0.00    +0.119 C 
ATOM      9  C   LIG    1       26.125 -21.574   6.056  0.00  0.00    +0.053 C 
ATOM     10  C   LIG    1       28.505 -18.888   5.313  0.00  0.00    +0.010 C 
ATOM     11  C   LIG    1       29.740 -18.695   5.938  0.00  0.00    +0.001 C 
ATOM     12  N   LIG    1       27.178 -21.777   6.909  0.00  0.00    -0.355 NA
ATOM     13  H   LIG    1       27.250 -22.523   7.586  0.00  0.00    +0.166 HD
ATOM     14  C   LIG    1       30.161 -19.545   6.960  0.00  0.00    +0.006 C 
ENDROOT
BRANCH   1  16
ATOM     15  C   LIG    1       31.316 -21.255   8.854  0.00  0.00    +0.009 C 
ATOM     16  C   LIG    1       29.852 -21.508   8.520  0.00  0.00    +0.034 C 
ENDBRANCH   1  16
BRANCH   8  17
ATOM     17  C   LIG    1       25.155 -23.790   5.273  0.00  0.00    +0.038 C 
ATOM     18  C   LIG    1       25.548 -24.954   6.187  0.00  0.00    +0.007 C 
ENDBRANCH   8  17
BRANCH   8  19
ATOM     19  C   LIG    1       24.283 -22.602   7.378  0.00  0.00    +0.161 C 
BRANCH  19  20
ATOM     20  C   LIG    1       24.436 -21.400   8.268  0.00  0.00    +0.308 C 
ATOM     21  O   LIG    1       25.304 -21.317   9.137  0.00  0.00    -0.251 OA
BRANCH  20  22
ATOM     22  O   LIG    1       23.586 -20.390   7.999  0.00  0.00    -0.480 OA
ATOM     23  H   LIG    1       23.903 -19.534   8.370  0.00  0.00    +0.295 HD
ENDBRANCH  20  22
ENDBRANCH  19  20
ENDBRANCH   8  19
TORSDOF 5
ENDMDL
MODEL 3
REMARK VINA RESULT:      -8.1      3.516      5.874
REMARK  Name = *****
REMARK                            x       y       z     vdW  Elec       q    Type
REMARK                         _______ _______ _______ _____ _____    ______ ____
ROOT
ATOM      1  C   LIG    1       24.563 -19.095   3.876  0.00  0.00    -0.024 C 
ATOM      2  C   LIG    1       24.309 -20.281   4.594  0.00  0.00    +0.050 C 
ATOM      3  C   LIG    1       23.074 -20.573   5.178  0.00  0.00    +0.004 C 
ATOM      4  C   LIG    1       23.223 -21.814   5.855  0.00  0.00    -0.014 C 
ATOM      5  C   LIG    1       22.284 -22.559   6.727  0.00  0.00    +0.065 C 
ATOM      6  C   LIG    1       22.779 -24.008   6.875  0.00  0.00    +0.166 C 
ATOM      7  O   LIG    1       24.199 -24.099   7.151  0.00  0.00    -0.366 OA
ATOM      8  C   LIG    1       25.099 -23.581   6.116  0.00  0.00    +0.119 C 
ATOM      9  C   LIG    1       24.497 -22.287   5.620  0.00  0.00    +0.053 C 
ATOM     10  C   LIG    1       22.018 -19.656   5.023  0.00  0.00    +0.010 C 
ATOM     11  C   LIG    1       22.233 -18.480   4.299  0.00  0.00    +0.001 C 
ATOM     12  N   LIG    1       25.150 -21.337   4.879  0.00  0.00    -0.355 NA
ATOM     13  H   LIG    1       26.112 -21.385   4.576  0.00  0.00    +0.166 HD
ATOM     14  C   LIG    1       23.482 -18.203   3.746  0.00  0.00    +0.006 C 
ENDROOT
BRANCH   1  16
ATOM     15  C   LIG    1       26.152 -17.240   3.301  0.00  0.00    +0.009 C 
ATOM     16  C   LIG    1       25.909 -18.743   3.293  0.00  0.00    +0.034 C 
ENDBRANCH   1  16
BRANCH   8  17
ATOM     17  C   LIG    1       25.271 -24.623   4.977  0.00  0.00    +0.038 C 
ATOM     18  C   LIG    1       25.685 -26.032   5.406  0.00  0.00    +0.007 C 
ENDBRANCH   8  17
BRANCH   8  19
ATOM     19  C   LIG    1       26.420 -23.285   6.846  0.00  0.00    +0.161 C 
BRANCH  19  20
ATOM     20  C   LIG    1       26.365 -22.104   7.775  0.00  0.00    +0.308 C 
ATOM     21  O   LIG    1       26.823 -21.000   7.483  0.00  0.00    -0.251 OA
BRANCH  20  22
ATOM     22  O   LIG    1       25.716 -22.332   8.934  0.00  0.00    -0.480 OA
ATOM     23  H   LIG    1       24.896 -22.863   8.798  0.00  0.00    +0.295 HD
ENDBRANCH  20  22
ENDBRANCH  19  20
ENDBRANCH   8  19
TORSDOF 5
ENDMDL
MODEL 4
REMARK VINA RESULT:      -6.5      2.995      6.435
REMARK  Name = *****
REMARK                            x       y       z     vdW  Elec       q    Type
REMARK                         _______ _______ _______ _____ _____    ______ ____
ROOT
ATOM      1  C   LIG    1       29.392 -19.450   7.104  0.00  0.00    -0.024 C 
ATOM      2  C   LIG    1       28.248 -20.245   6.896  0.00  0.00    +0.050 C 
ATOM      3  C   LIG    1       28.081 -21.512   7.461  0.00  0.00    +0.004 C 
ATOM      4  C   LIG    1       26.844 -22.019   6.979  0.00  0.00    -0.014 C 
ATOM      5  C   LIG    1       26.206 -23.344   7.160  0.00  0.00    +0.065 C 
ATOM      6  C   LIG    1       24.720 -23.242   6.775  0.00  0.00    +0.166 C 
ATOM      7  O   LIG    1       24.502 -22.534   5.529  0.00  0.00    -0.366 OA
ATOM      8  C   LIG    1       24.916 -21.127   5.497  0.00  0.00    +0.119 C 
ATOM      9  C   LIG    1       26.251 -21.048   6.200  0.00  0.00    +0.053 C 
ATOM     10  C   LIG    1       29.090 -22.014   8.305  0.00  0.00    +0.010 C 
ATOM     11  C   LIG    1       30.228 -21.240   8.548  0.00  0.00    +0.001 C 
ATOM     12  N   LIG    1       27.123 -19.993   6.138  0.00  0.00    -0.355 NA
ATOM     13  H   LIG    1       26.980 -19.142   5.613  0.00  0.00    +0.166 HD
ATOM     14  C   LIG    1       30.377 -19.989   7.952  0.00  0.00    +0.006 C 
ENDROOT
BRANCH   1  16
ATOM     15  C   LIG    1       29.260 -18.139   4.968  0.00  0.00    +0.009 C 
ATOM     16  C   LIG    1       29.607 -18.108   6.451  0.00  0.00    +0.034 C 
ENDBRANCH   1  16
BRANCH   8  17
ATOM     17  C   LIG    1       23.842 -20.231   6.175  0.00  0.00    +0.038 C 
ATOM     18  C   LIG    1       22.390 -20.491   5.768  0.00  0.00    +0.007 C 
ENDBRANCH   8  17
BRANCH   8  19
ATOM     19  C   LIG    1       25.100 -20.798   4.007  0.00  0.00    +0.161 C 
BRANCH  19  20
ATOM     20  C   LIG    1       24.969 -19.337   3.673  0.00  0.00    +0.308 C 
ATOM     21  O   LIG    1       23.886 -18.796   3.453  0.00  0.00    -0.251 OA
BRANCH  20  22
ATOM     22  O   LIG    1       26.128 -18.651   3.696  0.00  0.00    -0.480 OA
ATOM     23  H   LIG    1       26.382 -18.389   4.612  0.00  0.00    +0.295 HD
ENDBRANCH  20  22
ENDBRANCH  19  20
ENDBRANCH   8  19
TORSDOF 5
ENDMDL
MODEL 5
REMARK VINA RESULT:      -6.5      3.815      5.809
REMARK  Name = *****
REMARK                            x       y       z     vdW  Elec       q    Type
REMARK                         _______ _______ _______ _____ _____    ______ ____
ROOT
ATOM      1  C   LIG    1       25.761 -27.413   7.236  0.00  0.00    -0.024 C 
ATOM      2  C   LIG    1       25.570 -26.089   6.791  0.00  0.00    +0.050 C 
ATOM      3  C   LIG    1       24.956 -25.769   5.578  0.00  0.00    +0.004 C 
ATOM      4  C   LIG    1       24.999 -24.354   5.455  0.00  0.00    -0.014 C 
ATOM      5  C   LIG    1       24.594 -23.467   4.340  0.00  0.00    +0.065 C 
ATOM      6  C   LIG    1       24.477 -22.024   4.862  0.00  0.00    +0.166 C 
ATOM      7  O   LIG    1       25.598 -21.626   5.689  0.00  0.00    -0.366 OA
ATOM      8  C   LIG    1       25.792 -22.379   6.933  0.00  0.00    +0.119 C 
ATOM      9  C   LIG    1       25.563 -23.835   6.603  0.00  0.00    +0.053 C 
ATOM     10  C   LIG    1       24.475 -26.814   4.767  0.00  0.00    +0.010 C 
ATOM     11  C   LIG    1       24.631 -28.137   5.190  0.00  0.00    +0.001 C 
ATOM     12  N   LIG    1       25.927 -24.898   7.388  0.00  0.00    -0.355 NA
ATOM     13  H   LIG    1       26.394 -24.836   8.282  0.00  0.00    +0.166 HD
ATOM     14  C   LIG    1       25.269 -28.428   6.394  0.00  0.00    +0.006 C 
ENDROOT
BRANCH   1  16
ATOM     15  C   LIG    1       26.016 -29.114   9.062  0.00  0.00    +0.009 C 
ATOM     16  C   LIG    1       26.476 -27.770   8.514  0.00  0.00    +0.034 C 
ENDBRANCH   1  16
BRANCH   8  17
ATOM     17  C   LIG    1       24.821 -21.868   8.033  0.00  0.00    +0.038 C 
ATOM     18  C   LIG    1       23.912 -20.700   7.642  0.00  0.00    +0.007 C 
ENDBRANCH   8  17
BRANCH   8  19
ATOM     19  C   LIG    1       27.268 -22.164   7.306  0.00  0.00    +0.161 C 
BRANCH  19  20
ATOM     20  C   LIG    1       27.748 -20.747   7.148  0.00  0.00    +0.308 C 
ATOM     21  O   LIG    1       27.905 -19.984   8.101  0.00  0.00    -0.251 OA
BRANCH  20  22
ATOM     22  O   LIG    1       28.055 -20.397   5.885  0.00  0.00    -0.480 OA
ATOM     23  H   LIG    1       28.351 -19.458   5.825  0.00  0.00    +0.295 HD
ENDBRANCH  20  22
ENDBRANCH  19  20
ENDBRANCH   8  19
TORSDOF 5
ENDMDL
MODEL 6
REMARK VINA RESULT:      -6.1      2.974      4.387
REMARK  Name = *****
REMARK                            x       y       z     vdW  Elec       q    Type
REMARK                         _______ _______ _______ _____ _____    ______ ____
ROOT
ATOM      1  C   LIG    1       24.610 -19.200   3.914  0.00  0.00    -0.024 C 
ATOM      2  C   LIG    1       25.512 -19.806   4.811  0.00  0.00    +0.050 C 
ATOM      3  C   LIG    1       26.832 -19.379   4.975  0.00  0.00    +0.004 C 
ATOM      4  C   LIG    1       27.438 -20.262   5.910  0.00  0.00    -0.014 C 
ATOM      5  C   LIG    1       28.837 -20.356   6.385  0.00  0.00    +0.065 C 
ATOM      6  C   LIG    1       28.877 -21.204   7.669  0.00  0.00    +0.166 C 
ATOM      7  O   LIG    1       28.097 -22.421   7.570  0.00  0.00    -0.366 OA
ATOM      8  C   LIG    1       26.654 -22.258   7.364  0.00  0.00    +0.119 C 
ATOM      9  C   LIG    1       26.479 -21.152   6.350  0.00  0.00    +0.053 C 
ATOM     10  C   LIG    1       27.283 -18.272   4.232  0.00  0.00    +0.010 C 
ATOM     11  C   LIG    1       26.405 -17.636   3.350  0.00  0.00    +0.001 C 
ATOM     12  N   LIG    1       25.329 -20.881   5.656  0.00  0.00    -0.355 NA
ATOM     13  H   LIG    1       24.460 -21.387   5.738  0.00  0.00    +0.166 HD
ATOM     14  C   LIG    1       25.100 -18.098   3.189  0.00  0.00    +0.006 C 
ENDROOT
BRANCH   1  16
ATOM     15  C   LIG    1       22.214 -19.038   4.645  0.00  0.00    +0.009 C 
ATOM     16  C   LIG    1       23.202 -19.690   3.687  0.00  0.00    +0.034 C 
ENDBRANCH   1  16
BRANCH   8  17
ATOM     17  C   LIG    1       25.948 -21.935   8.710  0.00  0.00    +0.038 C 
ATOM     18  C   LIG    1       25.743 -20.451   9.026  0.00  0.00    +0.007 C 
ENDBRANCH   8  17
BRANCH   8  19
ATOM     19  C   LIG    1       26.182 -23.590   6.758  0.00  0.00    +0.161 C 
BRANCH  19  20
ATOM     20  C   LIG    1       24.806 -23.543   6.153  0.00  0.00    +0.308 C 
ATOM     21  O   LIG    1       23.786 -23.382   6.823  0.00  0.00    -0.251 OA
BRANCH  20  22
ATOM     22  O   LIG    1       24.780 -23.629   4.809  0.00  0.00    -0.480 OA
ATOM     23  H   LIG    1       23.897 -23.913   4.476  0.00  0.00    +0.295 HD
ENDBRANCH  20  22
ENDBRANCH  19  20
ENDBRANCH   8  19
TORSDOF 5
ENDMDL
MODEL 7
REMARK VINA RESULT:      -6.1      7.232      9.604
REMARK  Name = *****
REMARK                            x       y       z     vdW  Elec       q    Type
REMARK                         _______ _______ _______ _____ _____    ______ ____
ROOT
ATOM      1  C   LIG    1       25.702 -27.428   6.417  0.00  0.00    -0.024 C 
ATOM      2  C   LIG    1       25.729 -28.169   7.615  0.00  0.00    +0.050 C 
ATOM      3  C   LIG    1       24.940 -29.301   7.834  0.00  0.00    +0.004 C 
ATOM      4  C   LIG    1       25.199 -29.733   9.164  0.00  0.00    -0.014 C 
ATOM      5  C   LIG    1       24.579 -30.811   9.969  0.00  0.00    +0.065 C 
ATOM      6  C   LIG    1       25.480 -31.117  11.177  0.00  0.00    +0.166 C 
ATOM      7  O   LIG    1       25.942 -29.924  11.859  0.00  0.00    -0.366 OA
ATOM      8  C   LIG    1       26.787 -29.013  11.080  0.00  0.00    +0.119 C 
ATOM      9  C   LIG    1       26.175 -28.919   9.702  0.00  0.00    +0.053 C 
ATOM     10  C   LIG    1       24.095 -29.747   6.801  0.00  0.00    +0.010 C 
ATOM     11  C   LIG    1       24.061 -29.046   5.593  0.00  0.00    +0.001 C 
ATOM     12  N   LIG    1       26.465 -27.963   8.764  0.00  0.00    -0.355 NA
ATOM     13  H   LIG    1       27.122 -27.205   8.881  0.00  0.00    +0.166 HD
ATOM     14  C   LIG    1       24.842 -27.906   5.410  0.00  0.00    +0.006 C 
ENDROOT
BRANCH   1  16
ATOM     15  C   LIG    1       25.767 -24.934   6.686  0.00  0.00    +0.009 C 
ATOM     16  C   LIG    1       26.505 -26.171   6.193  0.00  0.00    +0.034 C 
ENDBRANCH   1  16
BRANCH   8  17
ATOM     17  C   LIG    1       28.250 -29.534  11.037  0.00  0.00    +0.038 C 
ATOM     18  C   LIG    1       29.018 -29.501  12.360  0.00  0.00    +0.007 C 
ENDBRANCH   8  17
BRANCH   8  19
ATOM     19  C   LIG    1       26.668 -27.652  11.787  0.00  0.00    +0.161 C 
BRANCH  19  20
ATOM     20  C   LIG    1       25.780 -27.659  13.001  0.00  0.00    +0.308 C 
ATOM     21  O   LIG    1       26.211 -27.523  14.146  0.00  0.00    -0.251 OA
BRANCH  20  22
ATOM     22  O   LIG    1       24.465 -27.764  12.733  0.00  0.00    -0.480 OA
ATOM     23  H   LIG    1       24.182 -27.136  12.027  0.00  0.00    +0.295 HD
ENDBRANCH  20  22
ENDBRANCH  19  20
ENDBRANCH   8  19
TORSDOF 5
ENDMDL
MODEL 8
REMARK VINA RESULT:      -6.0      9.159     10.300
REMARK  Name = *****
REMARK                            x       y       z     vdW  Elec       q    Type
REMARK                         _______ _______ _______ _____ _____    ______ ____
ROOT
ATOM      1  C   LIG    1       22.124 -29.180  12.407  0.00  0.00    -0.024 C 
ATOM      2  C   LIG    1       23.217 -28.356  12.738  0.00  0.00    +0.050 C 
ATOM      3  C   LIG    1       23.076 -27.061  13.242  0.00  0.00    +0.004 C 
ATOM      4  C   LIG    1       24.387 -26.533  13.396  0.00  0.00    -0.014 C 
ATOM      5  C   LIG    1       24.845 -25.181  13.791  0.00  0.00    +0.065 C 
ATOM      6  C   LIG    1       26.330 -25.249  14.186  0.00  0.00    +0.166 C 
ATOM      7  O   LIG    1       27.135 -26.004  13.246  0.00  0.00    -0.366 OA
ATOM      8  C   LIG    1       26.801 -27.424  13.095  0.00  0.00    +0.119 C 
ATOM      9  C   LIG    1       25.293 -27.518  13.061  0.00  0.00    +0.053 C 
ATOM     10  C   LIG    1       21.780 -26.556  13.457  0.00  0.00    +0.010 C 
ATOM     11  C   LIG    1       20.674 -27.357  13.158  0.00  0.00    +0.001 C 
ATOM     12  N   LIG    1       24.571 -28.604  12.640  0.00  0.00    -0.355 NA
ATOM     13  H   LIG    1       24.959 -29.472  12.300  0.00  0.00    +0.166 HD
ATOM     14  C   LIG    1       20.845 -28.638  12.635  0.00  0.00    +0.006 C 
ENDROOT
BRANCH   1  16
ATOM     15  C   LIG    1       22.518 -30.496  10.307  0.00  0.00    +0.009 C 
ATOM     16  C   LIG    1       22.266 -30.557  11.808  0.00  0.00    +0.034 C 
ENDBRANCH   1  16
BRANCH   8  17
ATOM     17  C   LIG    1       27.413 -28.252  14.258  0.00  0.00    +0.038 C 
ATOM     18  C   LIG    1       26.450 -28.665  15.374  0.00  0.00    +0.007 C 
ENDBRANCH   8  17
BRANCH   8  19
ATOM     19  C   LIG    1       27.370 -27.827  11.724  0.00  0.00    +0.161 C 
BRANCH  19  20
ATOM     20  C   LIG    1       27.929 -29.222  11.669  0.00  0.00    +0.308 C 
ATOM     21  O   LIG    1       27.218 -30.226  11.631  0.00  0.00    -0.251 OA
BRANCH  20  22
ATOM     22  O   LIG    1       29.272 -29.286  11.601  0.00  0.00    -0.480 OA
ATOM     23  H   LIG    1       29.589 -29.379  10.672  0.00  0.00    +0.295 HD
ENDBRANCH  20  22
ENDBRANCH  19  20
ENDBRANCH   8  19
TORSDOF 5
ENDMDL
MODEL 9
REMARK VINA RESULT:      -6.0      3.449      6.705
REMARK  Name = *****
REMARK                            x       y       z     vdW  Elec       q    Type
REMARK                         _______ _______ _______ _____ _____    ______ ____
ROOT
ATOM      1  C   LIG    1       28.246 -19.986   6.496  0.00  0.00    -0.024 C 
ATOM      2  C   LIG    1       26.920 -20.457   6.418  0.00  0.00    +0.050 C 
ATOM      3  C   LIG    1       26.431 -21.505   7.202  0.00  0.00    +0.004 C 
ATOM      4  C   LIG    1       25.085 -21.726   6.801  0.00  0.00    -0.014 C 
ATOM      5  C   LIG    1       24.113 -22.766   7.210  0.00  0.00    +0.065 C 
ATOM      6  C   LIG    1       22.700 -22.325   6.790  0.00  0.00    +0.166 C 
ATOM      7  O   LIG    1       22.641 -21.819   5.433  0.00  0.00    -0.366 OA
ATOM      8  C   LIG    1       23.425 -20.612   5.153  0.00  0.00    +0.119 C 
ATOM      9  C   LIG    1       24.755 -20.783   5.850  0.00  0.00    +0.053 C 
ATOM     10  C   LIG    1       27.291 -22.108   8.138  0.00  0.00    +0.010 C 
ATOM     11  C   LIG    1       28.607 -21.650   8.254  0.00  0.00    +0.001 C 
ATOM     12  N   LIG    1       25.882 -20.041   5.609  0.00  0.00    -0.355 NA
ATOM     13  H   LIG    1       25.961 -19.292   4.937  0.00  0.00    +0.166 HD
ATOM     14  C   LIG    1       29.074 -20.618   7.442  0.00  0.00    +0.006 C 
ENDROOT
BRANCH   1  16
ATOM     15  C   LIG    1       30.192 -18.465   6.053  0.00  0.00    +0.009 C 
ATOM     16  C   LIG    1       28.799 -18.896   5.613  0.00  0.00    +0.034 C 
ENDBRANCH   1  16
BRANCH   8  17
ATOM     17  C   LIG    1       22.667 -19.347   5.640  0.00  0.00    +0.038 C 
ATOM     18  C   LIG    1       21.902 -18.564   4.570  0.00  0.00    +0.007 C 
ENDBRANCH   8  17
BRANCH   8  19
ATOM     19  C   LIG    1       23.640 -20.619   3.630  0.00  0.00    +0.161 C 
BRANCH  19  20
ATOM     20  C   LIG    1       24.763 -19.738   3.157  0.00  0.00    +0.308 C 
ATOM     21  O   LIG    1       24.765 -18.517   3.308  0.00  0.00    -0.251 OA
BRANCH  20  22
ATOM     22  O   LIG    1       25.802 -20.398   2.610  0.00  0.00    -0.480 OA
ATOM     23  H   LIG    1       26.240 -19.872   1.901  0.00  0.00    +0.295 HD
ENDBRANCH  20  22
ENDBRANCH  19  20
ENDBRANCH   8  19
TORSDOF 5
ENDMDL
