MODEL 1
REMARK VINA RESULT:      -5.3      0.000      0.000
REMARK  Name = *****
REMARK                            x       y       z     vdW  Elec       q    Type
REMARK                         _______ _______ _______ _____ _____    ______ ____
ROOT
ATOM      1  C   LIG    1       25.782 -13.559   2.575  0.00  0.00    +0.251 C 
ATOM      2  C   LIG    1       24.561 -12.615   2.462  0.00  0.00    +0.259 C 
ATOM      3  O   LIG    1       24.471 -11.584   1.813  0.00  0.00    -0.272 OA
ATOM      4  N   LIG    1       23.572 -13.118   3.253  0.00  0.00    -0.237 N 
ATOM      5  H   LIG    1       22.661 -12.706   3.369  0.00  0.00    +0.159 HD
ATOM      6  C   LIG    1       24.021 -14.179   3.960  0.00  0.00    +0.308 C 
ATOM      7  O   LIG    1       23.381 -14.824   4.771  0.00  0.00    -0.252 OA
ATOM      8  N   LIG    1       25.333 -14.408   3.633  0.00  0.00    -0.273 N 
ATOM      9  H   LIG    1       25.831 -15.216   3.978  0.00  0.00    +0.152 HD
ENDROOT
BRANCH   1  14
ATOM     10  N   LIG    1       29.131 -12.953   3.700  0.00  0.00    -0.313 N 
ATOM     11  H   LIG    1       29.033 -11.981   3.954  0.00  0.00    +0.146 HD
ATOM     12  H   LIG    1       29.833 -13.458   4.228  0.00  0.00    +0.146 HD
ATOM     13  C   LIG    1       27.989 -13.660   3.515  0.00  0.00    +0.299 C 
ATOM     14  N   LIG    1       27.007 -12.916   2.938  0.00  0.00    -0.274 N 
ATOM     15  H   LIG    1       27.337 -12.193   2.318  0.00  0.00    +0.152 HD
ATOM     16  O   LIG    1       27.885 -14.825   3.867  0.00  0.00    -0.253 OA
ENDBRANCH   1  14
TORSDOF 1
ENDMDL
MODEL 2
REMARK VINA RESULT:      -5.2      7.060      7.829
REMARK  Name = *****
REMARK                            x       y       z     vdW  Elec       q    Type
REMARK                         _______ _______ _______ _____ _____    ______ ____
ROOT
ATOM      1  C   LIG    1       26.119 -20.276   5.901  0.00  0.00    +0.251 C 
ATOM      2  C   LIG    1       24.771 -21.018   6.063  0.00  0.00    +0.259 C 
ATOM      3  O   LIG    1       24.338 -21.571   7.062  0.00  0.00    -0.272 OA
ATOM      4  N   LIG    1       24.130 -20.983   4.861  0.00  0.00    -0.237 N 
ATOM      5  H   LIG    1       23.228 -21.388   4.677  0.00  0.00    +0.159 HD
ATOM      6  C   LIG    1       24.925 -20.436   3.913  0.00  0.00    +0.308 C 
ATOM      7  O   LIG    1       24.644 -20.292   2.736  0.00  0.00    -0.252 OA
ATOM      8  N   LIG    1       26.121 -20.083   4.485  0.00  0.00    -0.273 N 
ATOM      9  H   LIG    1       26.822 -19.571   3.971  0.00  0.00    +0.152 HD
ENDROOT
BRANCH   1  14
ATOM     10  N   LIG    1       29.460 -21.193   6.822  0.00  0.00    -0.313 N 
ATOM     11  H   LIG    1       29.410 -22.179   6.613  0.00  0.00    +0.146 HD
ATOM     12  H   LIG    1       30.385 -20.789   6.733  0.00  0.00    +0.146 HD
ATOM     13  C   LIG    1       28.481 -20.405   6.313  0.00  0.00    +0.299 C 
ATOM     14  N   LIG    1       27.270 -21.024   6.303  0.00  0.00    -0.274 N 
ATOM     15  H   LIG    1       27.135 -21.694   7.043  0.00  0.00    +0.152 HD
ATOM     16  O   LIG    1       28.708 -19.281   5.893  0.00  0.00    -0.253 OA
ENDBRANCH   1  14
TORSDOF 1
ENDMDL
MODEL 3
REMARK VINA RESULT:      -5.1      1.724      4.083
REMARK  Name = *****
REMARK                            x       y       z     vdW  Elec       q    Type
REMARK                         _______ _______ _______ _____ _____    ______ ____
ROOT
ATOM      1  C   LIG    1       26.642 -13.908   2.218  0.00  0.00    +0.251 C 
ATOM      2  C   LIG    1       26.895 -15.055   3.226  0.00  0.00    +0.259 C 
ATOM      3  O   LIG    1       26.287 -16.109   3.325  0.00  0.00    -0.272 OA
ATOM      4  N   LIG    1       27.924 -14.678   4.036  0.00  0.00    -0.237 N 
ATOM      5  H   LIG    1       28.302 -15.234   4.784  0.00  0.00    +0.159 HD
ATOM      6  C   LIG    1       28.288 -13.401   3.780  0.00  0.00    +0.308 C 
ATOM      7  O   LIG    1       29.158 -12.773   4.357  0.00  0.00    -0.252 OA
ATOM      8  N   LIG    1       27.501 -12.908   2.770  0.00  0.00    -0.273 N 
ATOM      9  H   LIG    1       27.673 -12.002   2.360  0.00  0.00    +0.152 HD
ENDROOT
BRANCH   1  14
ATOM     10  N   LIG    1       23.496 -12.431   3.096  0.00  0.00    -0.313 N 
ATOM     11  H   LIG    1       22.914 -12.899   2.417  0.00  0.00    +0.146 HD
ATOM     12  H   LIG    1       23.020 -12.167   3.950  0.00  0.00    +0.146 HD
ATOM     13  C   LIG    1       24.731 -12.948   3.309  0.00  0.00    +0.299 C 
ATOM     14  N   LIG    1       25.294 -13.434   2.170  0.00  0.00    -0.274 N 
ATOM     15  H   LIG    1       25.013 -12.958   1.327  0.00  0.00    +0.152 HD
ATOM     16  O   LIG    1       25.235 -12.982   4.421  0.00  0.00    -0.253 OA
ENDBRANCH   1  14
TORSDOF 1
ENDMDL
MODEL 4
REMARK VINA RESULT:      -5.0      1.948      2.390
REMARK  Name = *****
REMARK                            x       y       z     vdW  Elec       q    Type
REMARK                         _______ _______ _______ _____ _____    ______ ____
ROOT
ATOM      1  C   LIG    1       26.608 -13.572   3.616  0.00  0.00    +0.251 C 
ATOM      2  C   LIG    1       25.118 -13.884   3.897  0.00  0.00    +0.259 C 
ATOM      3  O   LIG    1       24.254 -13.113   4.285  0.00  0.00    -0.272 OA
ATOM      4  N   LIG    1       24.920 -15.211   3.661  0.00  0.00    -0.237 N 
ATOM      5  H   LIG    1       24.040 -15.689   3.762  0.00  0.00    +0.159 HD
ATOM      6  C   LIG    1       26.093 -15.828   3.392  0.00  0.00    +0.308 C 
ATOM      7  O   LIG    1       26.245 -17.015   3.166  0.00  0.00    -0.252 OA
ATOM      8  N   LIG    1       27.103 -14.900   3.433  0.00  0.00    -0.273 N 
ATOM      9  H   LIG    1       28.047 -15.135   3.166  0.00  0.00    +0.152 HD
ENDROOT
BRANCH   1  14
ATOM     10  N   LIG    1       29.110 -11.904   5.567  0.00  0.00    -0.313 N 
ATOM     11  H   LIG    1       28.770 -12.144   6.487  0.00  0.00    +0.146 HD
ATOM     12  H   LIG    1       30.111 -11.758   5.511  0.00  0.00    +0.146 HD
ATOM     13  C   LIG    1       28.613 -12.611   4.523  0.00  0.00    +0.299 C 
ATOM     14  N   LIG    1       27.300 -12.926   4.688  0.00  0.00    -0.274 N 
ATOM     15  H   LIG    1       26.772 -12.257   5.226  0.00  0.00    +0.152 HD
ATOM     16  O   LIG    1       29.307 -12.936   3.572  0.00  0.00    -0.253 OA
ENDBRANCH   1  14
TORSDOF 1
ENDMDL
MODEL 5
REMARK VINA RESULT:      -5.0      6.848      8.288
REMARK  Name = *****
REMARK                            x       y       z     vdW  Elec       q    Type
REMARK                         _______ _______ _______ _____ _____    ______ ____
ROOT
ATOM      1  C   LIG    1       24.753 -20.086   5.674  0.00  0.00    +0.251 C 
ATOM      2  C   LIG    1       25.657 -19.909   4.430  0.00  0.00    +0.259 C 
ATOM      3  O   LIG    1       25.313 -19.657   3.286  0.00  0.00    -0.272 OA
ATOM      4  N   LIG    1       26.946 -20.114   4.821  0.00  0.00    -0.237 N 
ATOM      5  H   LIG    1       27.748 -20.060   4.216  0.00  0.00    +0.159 HD
ATOM      6  C   LIG    1       26.994 -20.524   6.109  0.00  0.00    +0.308 C 
ATOM      7  O   LIG    1       27.998 -20.812   6.734  0.00  0.00    -0.252 OA
ATOM      8  N   LIG    1       25.716 -20.584   6.604  0.00  0.00    -0.273 N 
ATOM      9  H   LIG    1       25.534 -20.776   7.578  0.00  0.00    +0.152 HD
ENDROOT
BRANCH   1  14
ATOM     10  N   LIG    1       21.589 -21.571   4.879  0.00  0.00    -0.313 N 
ATOM     11  H   LIG    1       21.633 -22.365   5.500  0.00  0.00    +0.146 HD
ATOM     12  H   LIG    1       20.651 -21.244   4.679  0.00  0.00    +0.146 HD
ATOM     13  C   LIG    1       22.471 -20.566   5.099  0.00  0.00    +0.299 C 
ATOM     14  N   LIG    1       23.685 -21.023   5.512  0.00  0.00    -0.274 N 
ATOM     15  H   LIG    1       23.934 -21.933   5.157  0.00  0.00    +0.152 HD
ATOM     16  O   LIG    1       22.164 -19.393   4.959  0.00  0.00    -0.253 OA
ENDBRANCH   1  14
TORSDOF 1
ENDMDL
MODEL 6
REMARK VINA RESULT:      -5.0      1.863      3.798
REMARK  Name = *****
REMARK                            x       y       z     vdW  Elec       q    Type
REMARK                         _______ _______ _______ _____ _____    ______ ____
ROOT
ATOM      1  C   LIG    1       26.130 -13.576   3.824  0.00  0.00    +0.251 C 
ATOM      2  C   LIG    1       27.654 -13.848   3.814  0.00  0.00    +0.259 C 
ATOM      3  O   LIG    1       28.559 -13.032   3.878  0.00  0.00    -0.272 OA
ATOM      4  N   LIG    1       27.835 -15.194   3.689  0.00  0.00    -0.237 N 
ATOM      5  H   LIG    1       28.728 -15.654   3.657  0.00  0.00    +0.159 HD
ATOM      6  C   LIG    1       26.651 -15.817   3.488  0.00  0.00    +0.308 C 
ATOM      7  O   LIG    1       26.489 -17.011   3.315  0.00  0.00    -0.252 OA
ATOM      8  N   LIG    1       25.649 -14.880   3.491  0.00  0.00    -0.273 N 
ATOM      9  H   LIG    1       24.676 -15.146   3.453  0.00  0.00    +0.152 HD
ENDROOT
BRANCH   1  14
ATOM     10  N   LIG    1       24.064 -11.447   1.813  0.00  0.00    -0.313 N 
ATOM     11  H   LIG    1       24.696 -11.310   1.038  0.00  0.00    +0.146 HD
ATOM     12  H   LIG    1       23.082 -11.389   1.571  0.00  0.00    +0.146 HD
ATOM     13  C   LIG    1       24.346 -12.462   2.666  0.00  0.00    +0.299 C 
ATOM     14  N   LIG    1       25.683 -12.619   2.860  0.00  0.00    -0.274 N 
ATOM     15  H   LIG    1       26.221 -11.770   2.786  0.00  0.00    +0.152 HD
ATOM     16  O   LIG    1       23.470 -13.154   3.161  0.00  0.00    -0.253 OA
ENDBRANCH   1  14
TORSDOF 1
ENDMDL
MODEL 7
REMARK VINA RESULT:      -4.9      6.883      7.124
REMARK  Name = *****
REMARK                            x       y       z     vdW  Elec       q    Type
REMARK                         _______ _______ _______ _____ _____    ______ ____
ROOT
ATOM      1  C   LIG    1       25.867 -20.716   4.917  0.00  0.00    +0.251 C 
ATOM      2  C   LIG    1       24.624 -20.533   4.014  0.00  0.00    +0.259 C 
ATOM      3  O   LIG    1       24.598 -20.337   2.809  0.00  0.00    -0.272 OA
ATOM      4  N   LIG    1       23.519 -20.599   4.809  0.00  0.00    -0.237 N 
ATOM      5  H   LIG    1       22.570 -20.514   4.485  0.00  0.00    +0.159 HD
ATOM      6  C   LIG    1       23.873 -20.670   6.112  0.00  0.00    +0.308 C 
ATOM      7  O   LIG    1       23.112 -20.713   7.062  0.00  0.00    -0.252 OA
ATOM      8  N   LIG    1       25.242 -20.666   6.201  0.00  0.00    -0.273 N 
ATOM      9  H   LIG    1       25.715 -20.809   7.081  0.00  0.00    +0.152 HD
ENDROOT
BRANCH   1  14
ATOM     10  N   LIG    1       28.883 -18.806   5.244  0.00  0.00    -0.313 N 
ATOM     11  H   LIG    1       28.508 -17.893   5.035  0.00  0.00    +0.146 HD
ATOM     12  H   LIG    1       29.687 -18.801   5.860  0.00  0.00    +0.146 HD
ATOM     13  C   LIG    1       27.992 -19.786   5.536  0.00  0.00    +0.299 C 
ATOM     14  N   LIG    1       26.852 -19.686   4.802  0.00  0.00    -0.274 N 
ATOM     15  H   LIG    1       26.976 -19.283   3.886  0.00  0.00    +0.152 HD
ATOM     16  O   LIG    1       28.215 -20.629   6.391  0.00  0.00    -0.253 OA
ENDBRANCH   1  14
TORSDOF 1
ENDMDL
MODEL 8
REMARK VINA RESULT:      -4.6      6.193      6.889
REMARK  Name = *****
REMARK                            x       y       z     vdW  Elec       q    Type
REMARK                         _______ _______ _______ _____ _____    ______ ____
ROOT
ATOM      1  C   LIG    1       24.658 -20.311   3.666  0.00  0.00    +0.251 C 
ATOM      2  C   LIG    1       23.739 -19.121   4.035  0.00  0.00    +0.259 C 
ATOM      3  O   LIG    1       23.850 -17.956   3.689  0.00  0.00    -0.272 OA
ATOM      4  N   LIG    1       22.764 -19.591   4.864  0.00  0.00    -0.237 N 
ATOM      5  H   LIG    1       22.026 -19.034   5.259  0.00  0.00    +0.159 HD
ATOM      6  C   LIG    1       22.995 -20.885   5.186  0.00  0.00    +0.308 C 
ATOM      7  O   LIG    1       22.317 -21.572   5.928  0.00  0.00    -0.252 OA
ATOM      8  N   LIG    1       24.138 -21.303   4.553  0.00  0.00    -0.273 N 
ATOM      9  H   LIG    1       24.436 -22.267   4.583  0.00  0.00    +0.152 HD
ENDROOT
BRANCH   1  14
ATOM     10  N   LIG    1       27.843 -20.030   5.286  0.00  0.00    -0.313 N 
ATOM     11  H   LIG    1       28.298 -19.421   4.622  0.00  0.00    +0.146 HD
ATOM     12  H   LIG    1       28.180 -19.944   6.237  0.00  0.00    +0.146 HD
ATOM     13  C   LIG    1       26.494 -20.134   5.203  0.00  0.00    +0.299 C 
ATOM     14  N   LIG    1       26.049 -20.097   3.918  0.00  0.00    -0.274 N 
ATOM     15  H   LIG    1       26.693 -20.474   3.240  0.00  0.00    +0.152 HD
ATOM     16  O   LIG    1       25.789 -20.219   6.196  0.00  0.00    -0.253 OA
ENDBRANCH   1  14
TORSDOF 1
ENDMDL
MODEL 9
REMARK VINA RESULT:      -4.6      1.912      2.967
REMARK  Name = *****
REMARK                            x       y       z     vdW  Elec       q    Type
REMARK                         _______ _______ _______ _____ _____    ______ ____
ROOT
ATOM      1  C   LIG    1       26.236 -13.833   4.799  0.00  0.00    +0.251 C 
ATOM      2  C   LIG    1       26.739 -14.812   3.710  0.00  0.00    +0.259 C 
ATOM      3  O   LIG    1       27.554 -15.712   3.834  0.00  0.00    -0.272 OA
ATOM      4  N   LIG    1       26.127 -14.479   2.538  0.00  0.00    -0.237 N 
ATOM      5  H   LIG    1       26.267 -14.952   1.661  0.00  0.00    +0.159 HD
ATOM      6  C   LIG    1       25.399 -13.349   2.685  0.00  0.00    +0.308 C 
ATOM      7  O   LIG    1       24.762 -12.787   1.812  0.00  0.00    -0.252 OA
ATOM      8  N   LIG    1       25.509 -12.914   3.981  0.00  0.00    -0.273 N 
ATOM      9  H   LIG    1       24.965 -12.137   4.326  0.00  0.00    +0.152 HD
ENDROOT
BRANCH   1  14
ATOM     10  N   LIG    1       29.124 -11.873   5.615  0.00  0.00    -0.313 N 
ATOM     11  H   LIG    1       29.304 -12.245   6.536  0.00  0.00    +0.146 HD
ATOM     12  H   LIG    1       29.945 -11.534   5.128  0.00  0.00    +0.146 HD
ATOM     13  C   LIG    1       28.283 -12.579   4.820  0.00  0.00    +0.299 C 
ATOM     14  N   LIG    1       27.267 -13.153   5.519  0.00  0.00    -0.274 N 
ATOM     15  H   LIG    1       26.981 -12.641   6.339  0.00  0.00    +0.152 HD
ATOM     16  O   LIG    1       28.468 -12.689   3.618  0.00  0.00    -0.253 OA
ENDBRANCH   1  14
TORSDOF 1
ENDMDL
