MODEL 1
REMARK VINA RESULT:      -8.8      0.000      0.000
REMARK  Name = *****
REMARK                            x       y       z     vdW  Elec       q    Type
REMARK                         _______ _______ _______ _____ _____    ______ ____
ROOT
ATOM      1  C   LIG    1       28.007 -21.271   6.849  0.00  0.00    +0.105 C 
ATOM      2  N   LIG    1       26.650 -20.733   6.629  0.00  0.00    -0.304 NA
ATOM      3  C   LIG    1       25.936 -21.864   6.028  0.00  0.00    +0.093 C 
ATOM      4  C   LIG    1       25.406 -22.547   7.313  0.00  0.00    +0.045 C 
ATOM      5  C   LIG    1       24.565 -21.437   7.881  0.00  0.00    +0.045 C 
ATOM      6  C   LIG    1       23.392 -21.164   6.934  0.00  0.00    +0.001 A 
ATOM      7  C   LIG    1       22.770 -22.189   6.166  0.00  0.00    +0.132 A 
ATOM      8  O   LIG    1       22.713 -23.530   6.476  0.00  0.00    -0.456 OA
ATOM      9  C   LIG    1       23.846 -24.323   6.488  0.00  0.00    +0.132 A 
ATOM     10  C   LIG    1       23.751 -25.620   5.990  0.00  0.00    +0.046 A 
ATOM     11  C   LIG    1       24.838 -26.523   6.106  0.00  0.00    +0.004 A 
ATOM     12  C   LIG    1       25.972 -26.166   6.777  0.00  0.00    +0.001 A 
ATOM     13  C   LIG    1       26.075 -24.885   7.265  0.00  0.00    +0.007 A 
ATOM     14  C   LIG    1       22.070 -21.857   4.998  0.00  0.00    +0.048 A 
ATOM     15  C   LIG    1       21.962 -20.530   4.585  0.00  0.00    +0.023 A 
ATOM     16  C   LIG    1       22.455 -19.519   5.399  0.00  0.00    +0.042 A 
ATOM     17 CL   LIG    1       22.337 -17.879   4.887  0.00  0.00    -0.084 Cl
ATOM     18  C   LIG    1       23.123 -19.824   6.586  0.00  0.00    +0.027 A 
ATOM     19  C   LIG    1       25.027 -23.947   7.060  0.00  0.00    -0.000 A 
ATOM     20  C   LIG    1       25.812 -20.424   7.857  0.00  0.00    +0.093 C 
ENDROOT
TORSDOF 0
ENDMDL
MODEL 2
REMARK VINA RESULT:      -7.0      2.506      4.700
REMARK  Name = *****
REMARK                            x       y       z     vdW  Elec       q    Type
REMARK                         _______ _______ _______ _____ _____    ______ ____
ROOT
ATOM      1  C   LIG    1       25.523 -21.796   9.579  0.00  0.00    +0.105 C 
ATOM      2  N   LIG    1       24.818 -21.599   8.297  0.00  0.00    -0.304 NA
ATOM      3  C   LIG    1       25.567 -20.505   7.668  0.00  0.00    +0.093 C 
ATOM      4  C   LIG    1       26.632 -21.329   6.903  0.00  0.00    +0.045 C 
ATOM      5  C   LIG    1       25.745 -22.148   6.005  0.00  0.00    +0.045 C 
ATOM      6  C   LIG    1       25.027 -21.215   5.025  0.00  0.00    +0.001 A 
ATOM      7  C   LIG    1       25.624 -20.025   4.520  0.00  0.00    +0.132 A 
ATOM      8  O   LIG    1       26.971 -19.778   4.372  0.00  0.00    -0.456 OA
ATOM      9  C   LIG    1       27.812 -19.654   5.464  0.00  0.00    +0.132 A 
ATOM     10  C   LIG    1       28.810 -18.683   5.422  0.00  0.00    +0.046 A 
ATOM     11  C   LIG    1       29.786 -18.604   6.447  0.00  0.00    +0.004 A 
ATOM     12  C   LIG    1       29.816 -19.525   7.455  0.00  0.00    +0.001 A 
ATOM     13  C   LIG    1       28.830 -20.480   7.505  0.00  0.00    +0.007 A 
ATOM     14  C   LIG    1       24.812 -18.985   4.046  0.00  0.00    +0.048 A 
ATOM     15  C   LIG    1       23.424 -19.107   4.048  0.00  0.00    +0.023 A 
ATOM     16  C   LIG    1       22.845 -20.314   4.418  0.00  0.00    +0.042 A 
ATOM     17 CL   LIG    1       21.130 -20.466   4.437  0.00  0.00    -0.084 Cl
ATOM     18  C   LIG    1       23.636 -21.377   4.858  0.00  0.00    +0.027 A 
ATOM     19  C   LIG    1       27.790 -20.498   6.536  0.00  0.00    -0.000 A 
ATOM     20  C   LIG    1       24.919 -22.708   7.265  0.00  0.00    +0.093 C 
ENDROOT
TORSDOF 0
ENDMDL
MODEL 3
REMARK VINA RESULT:      -6.1      3.214      5.670
REMARK  Name = *****
REMARK                            x       y       z     vdW  Elec       q    Type
REMARK                         _______ _______ _______ _____ _____    ______ ____
ROOT
ATOM      1  C   LIG    1       24.640 -24.437   6.875  0.00  0.00    +0.105 C 
ATOM      2  N   LIG    1       25.782 -23.607   7.309  0.00  0.00    -0.304 NA
ATOM      3  C   LIG    1       26.054 -22.773   6.133  0.00  0.00    +0.093 C 
ATOM      4  C   LIG    1       25.124 -21.575   6.446  0.00  0.00    +0.045 C 
ATOM      5  C   LIG    1       25.707 -21.116   7.755  0.00  0.00    +0.045 C 
ATOM      6  C   LIG    1       27.130 -20.601   7.515  0.00  0.00    +0.001 A 
ATOM      7  C   LIG    1       27.518 -19.950   6.310  0.00  0.00    +0.132 A 
ATOM      8  O   LIG    1       26.703 -19.239   5.458  0.00  0.00    -0.456 OA
ATOM      9  C   LIG    1       25.707 -19.856   4.722  0.00  0.00    +0.132 A 
ATOM     10  C   LIG    1       25.494 -19.432   3.413  0.00  0.00    +0.046 A 
ATOM     11  C   LIG    1       24.400 -19.926   2.659  0.00  0.00    +0.004 A 
ATOM     12  C   LIG    1       23.486 -20.768   3.226  0.00  0.00    +0.001 A 
ATOM     13  C   LIG    1       23.694 -21.196   4.516  0.00  0.00    +0.007 A 
ATOM     14  C   LIG    1       28.868 -19.937   5.929  0.00  0.00    +0.048 A 
ATOM     15  C   LIG    1       29.839 -20.541   6.725  0.00  0.00    +0.023 A 
ATOM     16  C   LIG    1       29.481 -21.063   7.962  0.00  0.00    +0.042 A 
ATOM     17 CL   LIG    1       30.675 -21.825   8.942  0.00  0.00    -0.084 Cl
ATOM     18  C   LIG    1       28.149 -21.054   8.379  0.00  0.00    +0.027 A 
ATOM     19  C   LIG    1       24.846 -20.782   5.238  0.00  0.00    -0.000 A 
ATOM     20  C   LIG    1       25.526 -22.578   8.395  0.00  0.00    +0.093 C 
ENDROOT
TORSDOF 0
ENDMDL
MODEL 4
REMARK VINA RESULT:      -5.8      2.779      5.370
REMARK  Name = *****
REMARK                            x       y       z     vdW  Elec       q    Type
REMARK                         _______ _______ _______ _____ _____    ______ ____
ROOT
ATOM      1  C   LIG    1       24.804 -19.433   3.283  0.00  0.00    +0.105 C 
ATOM      2  N   LIG    1       24.560 -20.595   4.160  0.00  0.00    -0.304 NA
ATOM      3  C   LIG    1       25.908 -20.966   4.606  0.00  0.00    +0.093 C 
ATOM      4  C   LIG    1       26.011 -20.087   5.876  0.00  0.00    +0.045 C 
ATOM      5  C   LIG    1       24.857 -20.632   6.674  0.00  0.00    +0.045 C 
ATOM      6  C   LIG    1       25.149 -22.090   7.044  0.00  0.00    +0.001 A 
ATOM      7  C   LIG    1       26.465 -22.568   7.302  0.00  0.00    +0.132 A 
ATOM      8  O   LIG    1       27.533 -21.832   7.764  0.00  0.00    -0.456 OA
ATOM      9  C   LIG    1       28.119 -20.840   6.997  0.00  0.00    +0.132 A 
ATOM     10  C   LIG    1       29.505 -20.712   7.029  0.00  0.00    +0.046 A 
ATOM     11  C   LIG    1       30.149 -19.630   6.378  0.00  0.00    +0.004 A 
ATOM     12  C   LIG    1       29.419 -18.647   5.772  0.00  0.00    +0.001 A 
ATOM     13  C   LIG    1       28.051 -18.772   5.731  0.00  0.00    +0.007 A 
ATOM     14  C   LIG    1       26.751 -23.932   7.153  0.00  0.00    +0.048 A 
ATOM     15  C   LIG    1       25.758 -24.832   6.771  0.00  0.00    +0.023 A 
ATOM     16  C   LIG    1       24.448 -24.390   6.645  0.00  0.00    +0.042 A 
ATOM     17 CL   LIG    1       23.220 -25.494   6.158  0.00  0.00    -0.084 Cl
ATOM     18  C   LIG    1       24.132 -23.042   6.824  0.00  0.00    +0.027 A 
ATOM     19  C   LIG    1       27.411 -19.909   6.293  0.00  0.00    -0.000 A 
ATOM     20  C   LIG    1       23.834 -20.343   5.469  0.00  0.00    +0.093 C 
ENDROOT
TORSDOF 0
ENDMDL
