MODEL 1
REMARK VINA RESULT:      -5.3      0.000      0.000
REMARK  Name = *****
REMARK                            x       y       z     vdW  Elec       q    Type
REMARK                         _______ _______ _______ _____ _____    ______ ____
ROOT
ATOM      1  C   LIG    1       25.502 -30.660   9.200  0.00  0.00    +0.129 C 
ATOM      2  C   LIG    1       24.475 -31.426  10.091  0.00  0.00    +0.061 C 
ATOM      3  C   LIG    1       24.747 -31.236  11.595  0.00  0.00    +0.190 C 
ATOM      4  C   LIG    1       23.625 -31.781  12.462  0.00  0.00    +0.141 C 
ATOM      5  C   LIG    1       22.377 -31.999  11.998  0.00  0.00    +0.046 C 
ATOM      6  C   LIG    1       21.975 -31.767  10.565  0.00  0.00    +0.060 C 
ATOM      7  C   LIG    1       20.584 -31.105  10.464  0.00  0.00    +0.154 C 
ATOM      8  C   LIG    1       19.539 -31.824  11.280  0.00  0.00    +0.014 A 
ATOM      9  C   LIG    1       19.909 -32.507  12.457  0.00  0.00    +0.070 A 
ATOM     10  C   LIG    1       18.930 -33.147  13.237  0.00  0.00    +0.128 A 
ATOM     11  C   LIG    1       17.591 -33.118  12.863  0.00  0.00    +0.047 A 
ATOM     12  C   LIG    1       17.212 -32.434  11.713  0.00  0.00    +0.024 A 
ATOM     13  C   LIG    1       18.175 -31.787  10.932  0.00  0.00    +0.048 A 
ATOM     14 CL   LIG    1       17.611 -30.921   9.547  0.00  0.00    -0.083 Cl
ATOM     15  C   LIG    1       21.326 -32.535  12.907  0.00  0.00    +0.197 C 
ATOM     16  O   LIG    1       21.614 -33.008  14.005  0.00  0.00    -0.287 OA
ATOM     17  C   LIG    1       24.930 -29.724  11.855  0.00  0.00    +0.210 C 
ATOM     18  O   LIG    1       24.145 -29.040  12.507  0.00  0.00    -0.288 OA
ATOM     19  C   LIG    1       26.068 -29.089  11.139  0.00  0.00    +0.121 C 
ATOM     20  C   LIG    1       23.031 -30.979   9.759  0.00  0.00    +0.020 C 
ATOM     21  C   LIG    1       26.291 -29.542   9.890  0.00  0.00    +0.127 C 
ENDROOT
BRANCH  19  22
ATOM     22  C   LIG    1       26.888 -28.070  11.845  0.00  0.00    +0.248 C 
ATOM     23  O   LIG    1       26.470 -26.949  12.105  0.00  0.00    -0.270 OA
ATOM     24  N   LIG    1       28.136 -28.448  12.237  0.00  0.00    -0.325 N 
ATOM     25  H   LIG    1       28.407 -29.424  12.194  0.00  0.00    +0.145 HD
ATOM     26  H   LIG    1       28.664 -27.807  12.811  0.00  0.00    +0.145 HD
ENDBRANCH  19  22
BRANCH   1  28
ATOM     27  C   LIG    1       26.101 -31.580   7.000  0.00  0.00    +0.105 C 
ATOM     28  N   LIG    1       26.469 -31.486   8.416  0.00  0.00    -0.298 NA
ATOM     29  C   LIG    1       26.678 -32.834   8.964  0.00  0.00    +0.105 C 
ENDBRANCH   1  28
BRANCH   3  30
ATOM     30  O   LIG    1       25.931 -31.952  11.948  0.00  0.00    -0.373 OA
ATOM     31  H   LIG    1       25.907 -32.761  11.393  0.00  0.00    +0.211 HD
ENDBRANCH   3  30
BRANCH   4  32
ATOM     32  O   LIG    1       24.027 -32.096  13.756  0.00  0.00    -0.507 OA
ATOM     33  H   LIG    1       24.314 -31.267  14.202  0.00  0.00    +0.292 HD
ENDBRANCH   4  32
BRANCH   7  34
ATOM     34  O   LIG    1       20.652 -29.753  10.898  0.00  0.00    -0.387 OA
ATOM     35  H   LIG    1       21.389 -29.667  11.528  0.00  0.00    +0.210 HD
ENDBRANCH   7  34
BRANCH  10  36
ATOM     36  O   LIG    1       19.207 -33.825  14.393  0.00  0.00    -0.506 OA
ATOM     37  H   LIG    1       20.023 -33.444  14.790  0.00  0.00    +0.292 HD
ENDBRANCH  10  36
BRANCH  21  38
ATOM     38  O   LIG    1       27.340 -29.055   9.108  0.00  0.00    -0.509 OA
ATOM     39  H   LIG    1       26.922 -28.856   8.238  0.00  0.00    +0.292 HD
ENDBRANCH  21  38
TORSDOF 7
ENDMDL
MODEL 2
REMARK VINA RESULT:      -5.3      3.607      6.584
REMARK  Name = *****
REMARK                            x       y       z     vdW  Elec       q    Type
REMARK                         _______ _______ _______ _____ _____    ______ ____
ROOT
ATOM      1  C   LIG    1       24.316 -28.237  13.422  0.00  0.00    +0.129 C 
ATOM      2  C   LIG    1       25.077 -29.161  12.420  0.00  0.00    +0.061 C 
ATOM      3  C   LIG    1       24.971 -30.651  12.801  0.00  0.00    +0.190 C 
ATOM      4  C   LIG    1       25.507 -31.567  11.714  0.00  0.00    +0.141 C 
ATOM      5  C   LIG    1       25.646 -31.180  10.429  0.00  0.00    +0.046 C 
ATOM      6  C   LIG    1       25.328 -29.790   9.944  0.00  0.00    +0.060 C 
ATOM      7  C   LIG    1       24.601 -29.814   8.583  0.00  0.00    +0.154 C 
ATOM      8  C   LIG    1       25.311 -30.667   7.562  0.00  0.00    +0.014 A 
ATOM      9  C   LIG    1       26.065 -31.785   7.976  0.00  0.00    +0.070 A 
ATOM     10  C   LIG    1       26.696 -32.600   7.021  0.00  0.00    +0.128 A 
ATOM     11  C   LIG    1       26.591 -32.321   5.663  0.00  0.00    +0.047 A 
ATOM     12  C   LIG    1       25.837 -31.231   5.242  0.00  0.00    +0.024 A 
ATOM     13  C   LIG    1       25.197 -30.416   6.180  0.00  0.00    +0.048 A 
ATOM     14 CL   LIG    1       24.241 -29.112   5.568  0.00  0.00    -0.083 Cl
ATOM     15  C   LIG    1       26.177 -32.135   9.416  0.00  0.00    +0.197 C 
ATOM     16  O   LIG    1       26.715 -33.189   9.753  0.00  0.00    -0.287 OA
ATOM     17  C   LIG    1       23.483 -30.964  13.073  0.00  0.00    +0.210 C 
ATOM     18  O   LIG    1       22.796 -31.698  12.366  0.00  0.00    -0.288 OA
ATOM     19  C   LIG    1       22.866 -30.200  14.190  0.00  0.00    +0.121 C 
ATOM     20  C   LIG    1       24.551 -28.950  10.981  0.00  0.00    +0.020 C 
ATOM     21  C   LIG    1       23.269 -28.921  14.307  0.00  0.00    +0.127 C 
ENDROOT
BRANCH  19  22
ATOM     22  C   LIG    1       21.920 -30.894  15.103  0.00  0.00    +0.248 C 
ATOM     23  O   LIG    1       20.884 -30.374  15.500  0.00  0.00    -0.270 OA
ATOM     24  N   LIG    1       22.231 -32.170  15.459  0.00  0.00    -0.325 N 
ATOM     25  H   LIG    1       22.978 -32.662  14.981  0.00  0.00    +0.145 HD
ATOM     26  H   LIG    1       21.548 -32.692  15.989  0.00  0.00    +0.145 HD
ENDBRANCH  19  22
BRANCH   1  28
ATOM     27  C   LIG    1       24.944 -25.931  13.999  0.00  0.00    +0.105 C 
ATOM     28  N   LIG    1       25.146 -27.353  14.295  0.00  0.00    -0.298 NA
ATOM     29  C   LIG    1       26.582 -27.667  14.262  0.00  0.00    +0.105 C 
ENDBRANCH   1  28
BRANCH   3  30
ATOM     30  O   LIG    1       25.755 -30.889  13.970  0.00  0.00    -0.373 OA
ATOM     31  H   LIG    1       25.282 -31.605  14.446  0.00  0.00    +0.211 HD
ENDBRANCH   3  30
BRANCH   4  32
ATOM     32  O   LIG    1       25.900 -32.815  12.186  0.00  0.00    -0.507 OA
ATOM     33  H   LIG    1       25.314 -33.497  11.786  0.00  0.00    +0.292 HD
ENDBRANCH   4  32
BRANCH   7  34
ATOM     34  O   LIG    1       23.276 -30.302   8.744  0.00  0.00    -0.387 OA
ATOM     35  H   LIG    1       23.137 -31.035   8.117  0.00  0.00    +0.210 HD
ENDBRANCH   7  34
BRANCH  10  36
ATOM     36  O   LIG    1       27.441 -33.704   7.342  0.00  0.00    -0.506 OA
ATOM     37  H   LIG    1       28.345 -33.588   6.971  0.00  0.00    +0.292 HD
ENDBRANCH  10  36
BRANCH  21  38
ATOM     38  O   LIG    1       22.792 -28.091  15.325  0.00  0.00    -0.509 OA
ATOM     39  H   LIG    1       21.881 -28.425  15.502  0.00  0.00    +0.292 HD
ENDBRANCH  21  38
TORSDOF 7
ENDMDL
MODEL 3
REMARK VINA RESULT:      -5.2      3.235      5.569
REMARK  Name = *****
REMARK                            x       y       z     vdW  Elec       q    Type
REMARK                         _______ _______ _______ _____ _____    ______ ____
ROOT
ATOM      1  C   LIG    1       25.475 -27.601  13.752  0.00  0.00    +0.129 C 
ATOM      2  C   LIG    1       25.239 -28.221  12.339  0.00  0.00    +0.061 C 
ATOM      3  C   LIG    1       26.558 -28.526  11.605  0.00  0.00    +0.190 C 
ATOM      4  C   LIG    1       26.344 -29.336  10.337  0.00  0.00    +0.141 C 
ATOM      5  C   LIG    1       25.230 -30.063  10.109  0.00  0.00    +0.046 C 
ATOM      6  C   LIG    1       24.066 -30.116  11.065  0.00  0.00    +0.060 C 
ATOM      7  C   LIG    1       23.503 -31.546  11.197  0.00  0.00    +0.154 C 
ATOM      8  C   LIG    1       23.222 -32.185   9.859  0.00  0.00    +0.014 A 
ATOM      9  C   LIG    1       23.996 -31.836   8.734  0.00  0.00    +0.070 A 
ATOM     10  C   LIG    1       23.757 -32.457   7.496  0.00  0.00    +0.128 A 
ATOM     11  C   LIG    1       22.762 -33.419   7.361  0.00  0.00    +0.047 A 
ATOM     12  C   LIG    1       22.003 -33.783   8.468  0.00  0.00    +0.024 A 
ATOM     13  C   LIG    1       22.234 -33.178   9.707  0.00  0.00    +0.048 A 
ATOM     14 CL   LIG    1       21.279 -33.724  11.040  0.00  0.00    -0.083 Cl
ATOM     15  C   LIG    1       25.089 -30.835   8.844  0.00  0.00    +0.197 C 
ATOM     16  O   LIG    1       25.848 -30.645   7.894  0.00  0.00    -0.287 OA
ATOM     17  C   LIG    1       27.474 -29.299  12.579  0.00  0.00    +0.210 C 
ATOM     18  O   LIG    1       27.798 -30.475  12.429  0.00  0.00    -0.288 OA
ATOM     19  C   LIG    1       27.843 -28.568  13.820  0.00  0.00    +0.121 C 
ATOM     20  C   LIG    1       24.390 -29.509  12.448  0.00  0.00    +0.020 C 
ATOM     21  C   LIG    1       26.873 -27.798  14.349  0.00  0.00    +0.127 C 
ENDROOT
BRANCH  19  22
ATOM     22  C   LIG    1       29.229 -28.690  14.345  0.00  0.00    +0.248 C 
ATOM     23  O   LIG    1       29.532 -28.378  15.489  0.00  0.00    -0.270 OA
ATOM     24  N   LIG    1       30.163 -29.209  13.502  0.00  0.00    -0.325 N 
ATOM     25  H   LIG    1       29.876 -29.643  12.631  0.00  0.00    +0.145 HD
ATOM     26  H   LIG    1       31.082 -29.399  13.875  0.00  0.00    +0.145 HD
ENDBRANCH  19  22
BRANCH   1  28
ATOM     27  C   LIG    1       23.670 -25.934  13.696  0.00  0.00    +0.105 C 
ATOM     28  N   LIG    1       25.097 -26.168  13.938  0.00  0.00    -0.298 NA
ATOM     29  C   LIG    1       25.896 -25.235  13.130  0.00  0.00    +0.105 C 
ENDBRANCH   1  28
BRANCH   3  30
ATOM     30  O   LIG    1       27.168 -27.295  11.213  0.00  0.00    -0.373 OA
ATOM     31  H   LIG    1       26.690 -26.607  11.724  0.00  0.00    +0.211 HD
ENDBRANCH   3  30
BRANCH   4  32
ATOM     32  O   LIG    1       27.373 -29.199   9.412  0.00  0.00    -0.507 OA
ATOM     33  H   LIG    1       27.612 -28.247   9.351  0.00  0.00    +0.292 HD
ENDBRANCH   4  32
BRANCH   7  34
ATOM     34  O   LIG    1       24.415 -32.369  11.913  0.00  0.00    -0.387 OA
ATOM     35  H   LIG    1       25.143 -31.811  12.240  0.00  0.00    +0.210 HD
ENDBRANCH   7  34
BRANCH  10  36
ATOM     36  O   LIG    1       24.467 -32.177   6.359  0.00  0.00    -0.506 OA
ATOM     37  H   LIG    1       24.356 -32.925   5.730  0.00  0.00    +0.292 HD
ENDBRANCH  10  36
BRANCH  21  38
ATOM     38  O   LIG    1       27.085 -27.036  15.499  0.00  0.00    -0.509 OA
ATOM     39  H   LIG    1       27.580 -26.246  15.178  0.00  0.00    +0.292 HD
ENDBRANCH  21  38
TORSDOF 7
ENDMDL
MODEL 4
REMARK VINA RESULT:      -5.1      2.908      4.120
REMARK  Name = *****
REMARK                            x       y       z     vdW  Elec       q    Type
REMARK                         _______ _______ _______ _____ _____    ______ ____
ROOT
ATOM      1  C   LIG    1       24.554 -31.815   6.401  0.00  0.00    +0.129 C 
ATOM      2  C   LIG    1       24.795 -32.198   7.895  0.00  0.00    +0.061 C 
ATOM      3  C   LIG    1       25.686 -31.175   8.625  0.00  0.00    +0.190 C 
ATOM      4  C   LIG    1       25.735 -31.414  10.125  0.00  0.00    +0.141 C 
ATOM      5  C   LIG    1       24.800 -32.127  10.786  0.00  0.00    +0.046 C 
ATOM      6  C   LIG    1       23.635 -32.797  10.105  0.00  0.00    +0.060 C 
ATOM      7  C   LIG    1       22.331 -32.634  10.914  0.00  0.00    +0.154 C 
ATOM      8  C   LIG    1       22.495 -33.023  12.362  0.00  0.00    +0.014 A 
ATOM      9  C   LIG    1       23.743 -32.863  13.000  0.00  0.00    +0.070 A 
ATOM     10  C   LIG    1       23.885 -33.192  14.359  0.00  0.00    +0.128 A 
ATOM     11  C   LIG    1       22.809 -33.677  15.092  0.00  0.00    +0.047 A 
ATOM     12  C   LIG    1       21.569 -33.824  14.479  0.00  0.00    +0.024 A 
ATOM     13  C   LIG    1       21.411 -33.494  13.129  0.00  0.00    +0.048 A 
ATOM     14 CL   LIG    1       19.827 -33.661  12.459  0.00  0.00    -0.083 Cl
ATOM     15  C   LIG    1       24.911 -32.318  12.259  0.00  0.00    +0.197 C 
ATOM     16  O   LIG    1       25.950 -32.049  12.860  0.00  0.00    -0.287 OA
ATOM     17  C   LIG    1       25.128 -29.766   8.330  0.00  0.00    +0.210 C 
ATOM     18  O   LIG    1       24.611 -29.042   9.178  0.00  0.00    -0.288 OA
ATOM     19  C   LIG    1       25.124 -29.370   6.897  0.00  0.00    +0.121 C 
ATOM     20  C   LIG    1       23.448 -32.345   8.640  0.00  0.00    +0.020 C 
ATOM     21  C   LIG    1       24.831 -30.355   6.026  0.00  0.00    +0.127 C 
ENDROOT
BRANCH  19  22
ATOM     22  C   LIG    1       25.484 -27.975   6.531  0.00  0.00    +0.248 C 
ATOM     23  O   LIG    1       24.999 -27.398   5.566  0.00  0.00    -0.270 OA
ATOM     24  N   LIG    1       26.362 -27.331   7.349  0.00  0.00    -0.325 N 
ATOM     25  H   LIG    1       26.611 -27.735   8.245  0.00  0.00    +0.145 HD
ATOM     26  H   LIG    1       26.534 -26.351   7.178  0.00  0.00    +0.145 HD
ENDBRANCH  19  22
BRANCH   1  28
ATOM     27  C   LIG    1       24.209 -33.462   4.610  0.00  0.00    +0.105 C 
ATOM     28  N   LIG    1       25.193 -32.682   5.366  0.00  0.00    -0.298 NA
ATOM     29  C   LIG    1       26.230 -33.576   5.901  0.00  0.00    +0.105 C 
ENDBRANCH   1  28
BRANCH   3  30
ATOM     30  O   LIG    1       27.025 -31.296   8.142  0.00  0.00    -0.373 OA
ATOM     31  H   LIG    1       27.073 -30.672   7.386  0.00  0.00    +0.211 HD
ENDBRANCH   3  30
BRANCH   4  32
ATOM     32  O   LIG    1       26.868 -30.884  10.734  0.00  0.00    -0.507 OA
ATOM     33  H   LIG    1       27.649 -31.100  10.177  0.00  0.00    +0.292 HD
ENDBRANCH   4  32
BRANCH   7  34
ATOM     34  O   LIG    1       21.880 -31.287  10.852  0.00  0.00    -0.387 OA
ATOM     35  H   LIG    1       22.625 -30.701  11.073  0.00  0.00    +0.210 HD
ENDBRANCH   7  34
BRANCH  10  36
ATOM     36  O   LIG    1       25.060 -33.061  15.050  0.00  0.00    -0.506 OA
ATOM     37  H   LIG    1       25.807 -33.146  14.415  0.00  0.00    +0.292 HD
ENDBRANCH  10  36
BRANCH  21  38
ATOM     38  O   LIG    1       24.814 -30.135   4.647  0.00  0.00    -0.509 OA
ATOM     39  H   LIG    1       24.241 -30.855   4.294  0.00  0.00    +0.292 HD
ENDBRANCH  21  38
TORSDOF 7
ENDMDL
MODEL 5
REMARK VINA RESULT:      -5.0      2.786      3.184
REMARK  Name = *****
REMARK                            x       y       z     vdW  Elec       q    Type
REMARK                         _______ _______ _______ _____ _____    ______ ____
ROOT
ATOM      1  C   LIG    1       26.126 -28.941  11.071  0.00  0.00    +0.129 C 
ATOM      2  C   LIG    1       24.827 -29.634  11.588  0.00  0.00    +0.061 C 
ATOM      3  C   LIG    1       25.113 -30.658  12.704  0.00  0.00    +0.190 C 
ATOM      4  C   LIG    1       23.843 -31.162  13.368  0.00  0.00    +0.141 C 
ATOM      5  C   LIG    1       22.670 -30.500  13.310  0.00  0.00    +0.046 C 
ATOM      6  C   LIG    1       22.482 -29.215  12.545  0.00  0.00    +0.060 C 
ATOM      7  C   LIG    1       21.617 -28.206  13.330  0.00  0.00    +0.154 C 
ATOM      8  C   LIG    1       20.328 -28.813  13.827  0.00  0.00    +0.014 A 
ATOM      9  C   LIG    1       20.269 -30.185  14.144  0.00  0.00    +0.070 A 
ATOM     10  C   LIG    1       19.078 -30.742  14.642  0.00  0.00    +0.128 A 
ATOM     11  C   LIG    1       17.947 -29.955  14.828  0.00  0.00    +0.047 A 
ATOM     12  C   LIG    1       17.998 -28.597  14.535  0.00  0.00    +0.024 A 
ATOM     13  C   LIG    1       19.178 -28.028  14.046  0.00  0.00    +0.048 A 
ATOM     14 CL   LIG    1       19.169 -26.325  13.753  0.00  0.00    -0.083 Cl
ATOM     15  C   LIG    1       21.465 -31.054  13.988  0.00  0.00    +0.197 C 
ATOM     16  O   LIG    1       21.443 -32.212  14.401  0.00  0.00    -0.287 OA
ATOM     17  C   LIG    1       26.024 -29.976  13.748  0.00  0.00    +0.210 C 
ATOM     18  O   LIG    1       25.670 -29.704  14.893  0.00  0.00    -0.288 OA
ATOM     19  C   LIG    1       27.347 -29.527  13.242  0.00  0.00    +0.121 C 
ATOM     20  C   LIG    1       23.815 -28.579  12.093  0.00  0.00    +0.020 C 
ATOM     21  C   LIG    1       27.349 -29.030  11.990  0.00  0.00    +0.127 C 
ENDROOT
BRANCH  19  22
ATOM     22  C   LIG    1       28.547 -29.700  14.102  0.00  0.00    +0.248 C 
ATOM     23  O   LIG    1       28.900 -30.791  14.533  0.00  0.00    -0.270 OA
ATOM     24  N   LIG    1       29.280 -28.584  14.369  0.00  0.00    -0.325 N 
ATOM     25  H   LIG    1       29.100 -27.725  13.859  0.00  0.00    +0.145 HD
ATOM     26  H   LIG    1       30.155 -28.700  14.860  0.00  0.00    +0.145 HD
ENDBRANCH  19  22
BRANCH   1  28
ATOM     27  C   LIG    1       26.275 -28.208   8.729  0.00  0.00    +0.105 C 
ATOM     28  N   LIG    1       26.570 -29.279   9.685  0.00  0.00    -0.298 NA
ATOM     29  C   LIG    1       26.031 -30.552   9.184  0.00  0.00    +0.105 C 
ENDBRANCH   1  28
BRANCH   3  30
ATOM     30  O   LIG    1       25.765 -31.795  12.136  0.00  0.00    -0.373 OA
ATOM     31  H   LIG    1       25.250 -32.565  12.460  0.00  0.00    +0.211 HD
ENDBRANCH   3  30
BRANCH   4  32
ATOM     32  O   LIG    1       23.994 -32.401  13.983  0.00  0.00    -0.507 OA
ATOM     33  H   LIG    1       23.149 -32.897  13.894  0.00  0.00    +0.292 HD
ENDBRANCH   4  32
BRANCH   7  34
ATOM     34  O   LIG    1       22.342 -27.699  14.442  0.00  0.00    -0.387 OA
ATOM     35  H   LIG    1       21.713 -27.506  15.161  0.00  0.00    +0.210 HD
ENDBRANCH   7  34
BRANCH  10  36
ATOM     36  O   LIG    1       18.942 -32.062  14.976  0.00  0.00    -0.506 OA
ATOM     37  H   LIG    1       19.620 -32.580  14.486  0.00  0.00    +0.292 HD
ENDBRANCH  10  36
BRANCH  21  38
ATOM     38  O   LIG    1       28.524 -28.593  11.375  0.00  0.00    -0.509 OA
ATOM     39  H   LIG    1       28.243 -28.344  10.463  0.00  0.00    +0.292 HD
ENDBRANCH  21  38
TORSDOF 7
ENDMDL
MODEL 6
REMARK VINA RESULT:      -5.0      2.861      4.985
REMARK  Name = *****
REMARK                            x       y       z     vdW  Elec       q    Type
REMARK                         _______ _______ _______ _____ _____    ______ ____
ROOT
ATOM      1  C   LIG    1       26.635 -26.894  14.333  0.00  0.00    +0.129 C 
ATOM      2  C   LIG    1       25.538 -27.483  13.391  0.00  0.00    +0.061 C 
ATOM      3  C   LIG    1       26.109 -28.520  12.405  0.00  0.00    +0.190 C 
ATOM      4  C   LIG    1       25.021 -29.263  11.649  0.00  0.00    +0.141 C 
ATOM      5  C   LIG    1       23.744 -29.334  12.079  0.00  0.00    +0.046 C 
ATOM      6  C   LIG    1       23.253 -28.650  13.328  0.00  0.00    +0.060 C 
ATOM      7  C   LIG    1       22.290 -29.552  14.130  0.00  0.00    +0.154 C 
ATOM      8  C   LIG    1       21.187 -30.124  13.275  0.00  0.00    +0.014 A 
ATOM      9  C   LIG    1       21.412 -30.378  11.907  0.00  0.00    +0.070 A 
ATOM     10  C   LIG    1       20.395 -30.945  11.120  0.00  0.00    +0.128 A 
ATOM     11  C   LIG    1       19.159 -31.263  11.672  0.00  0.00    +0.047 A 
ATOM     12  C   LIG    1       18.930 -31.032  13.024  0.00  0.00    +0.024 A 
ATOM     13  C   LIG    1       19.936 -30.475  13.821  0.00  0.00    +0.048 A 
ATOM     14 CL   LIG    1       19.584 -30.267  15.500  0.00  0.00    -0.083 Cl
ATOM     15  C   LIG    1       22.730 -30.082  11.286  0.00  0.00    +0.197 C 
ATOM     16  O   LIG    1       22.960 -30.439  10.131  0.00  0.00    -0.287 OA
ATOM     17  C   LIG    1       26.969 -29.517  13.213  0.00  0.00    +0.210 C 
ATOM     18  O   LIG    1       26.676 -30.700  13.376  0.00  0.00    -0.288 OA
ATOM     19  C   LIG    1       28.134 -28.925  13.920  0.00  0.00    +0.121 C 
ATOM     20  C   LIG    1       24.398 -28.120  14.219  0.00  0.00    +0.020 C 
ATOM     21  C   LIG    1       27.931 -27.703  14.447  0.00  0.00    +0.127 C 
ENDROOT
BRANCH  19  22
ATOM     22  C   LIG    1       29.418 -29.674  13.950  0.00  0.00    +0.248 C 
ATOM     23  O   LIG    1       29.714 -30.443  14.856  0.00  0.00    -0.270 OA
ATOM     24  N   LIG    1       30.256 -29.502  12.891  0.00  0.00    -0.325 N 
ATOM     25  H   LIG    1       29.930 -29.022  12.058  0.00  0.00    +0.145 HD
ATOM     26  H   LIG    1       31.080 -30.083  12.842  0.00  0.00    +0.145 HD
ENDBRANCH  19  22
BRANCH   1  28
ATOM     27  C   LIG    1       26.737 -24.642  15.315  0.00  0.00    +0.105 C 
ATOM     28  N   LIG    1       27.006 -25.461  14.129  0.00  0.00    -0.298 NA
ATOM     29  C   LIG    1       26.377 -24.848  12.951  0.00  0.00    +0.105 C 
ENDBRANCH   1  28
BRANCH   3  30
ATOM     30  O   LIG    1       26.907 -27.846  11.430  0.00  0.00    -0.373 OA
ATOM     31  H   LIG    1       27.409 -27.175  11.941  0.00  0.00    +0.211 HD
ENDBRANCH   3  30
BRANCH   4  32
ATOM     32  O   LIG    1       25.454 -29.802  10.442  0.00  0.00    -0.507 OA
ATOM     33  H   LIG    1       26.361 -29.468  10.260  0.00  0.00    +0.292 HD
ENDBRANCH   4  32
BRANCH   7  34
ATOM     34  O   LIG    1       23.006 -30.623  14.729  0.00  0.00    -0.387 OA
ATOM     35  H   LIG    1       23.757 -30.854  14.154  0.00  0.00    +0.210 HD
ENDBRANCH   7  34
BRANCH  10  36
ATOM     36  O   LIG    1       20.537 -31.226   9.787  0.00  0.00    -0.506 OA
ATOM     37  H   LIG    1       20.707 -30.384   9.307  0.00  0.00    +0.292 HD
ENDBRANCH  10  36
BRANCH  21  38
ATOM     38  O   LIG    1       28.944 -27.015  15.119  0.00  0.00    -0.509 OA
ATOM     39  H   LIG    1       28.476 -26.272  15.568  0.00  0.00    +0.292 HD
ENDBRANCH  21  38
TORSDOF 7
ENDMDL
MODEL 7
REMARK VINA RESULT:      -4.8      3.921      7.755
REMARK  Name = *****
REMARK                            x       y       z     vdW  Elec       q    Type
REMARK                         _______ _______ _______ _____ _____    ______ ____
ROOT
ATOM      1  C   LIG    1       24.607 -31.632  11.356  0.00  0.00    +0.129 C 
ATOM      2  C   LIG    1       24.766 -30.116  11.695  0.00  0.00    +0.061 C 
ATOM      3  C   LIG    1       23.484 -29.515  12.303  0.00  0.00    +0.190 C 
ATOM      4  C   LIG    1       23.702 -28.113  12.847  0.00  0.00    +0.141 C 
ATOM      5  C   LIG    1       24.921 -27.627  13.160  0.00  0.00    +0.046 C 
ATOM      6  C   LIG    1       26.197 -28.404  12.964  0.00  0.00    +0.060 C 
ATOM      7  C   LIG    1       27.162 -28.222  14.155  0.00  0.00    +0.154 C 
ATOM      8  C   LIG    1       27.381 -26.772  14.508  0.00  0.00    +0.014 A 
ATOM      9  C   LIG    1       26.358 -25.828  14.282  0.00  0.00    +0.070 A 
ATOM     10  C   LIG    1       26.549 -24.484  14.644  0.00  0.00    +0.128 A 
ATOM     11  C   LIG    1       27.740 -24.064  15.226  0.00  0.00    +0.047 A 
ATOM     12  C   LIG    1       28.750 -24.989  15.468  0.00  0.00    +0.024 A 
ATOM     13  C   LIG    1       28.571 -26.332  15.119  0.00  0.00    +0.048 A 
ATOM     14 CL   LIG    1       29.857 -27.422  15.500  0.00  0.00    -0.083 Cl
ATOM     15  C   LIG    1       25.058 -26.242  13.691  0.00  0.00    +0.197 C 
ATOM     16  O   LIG    1       24.126 -25.442  13.632  0.00  0.00    -0.287 OA
ATOM     17  C   LIG    1       23.011 -30.455  13.434  0.00  0.00    +0.210 C 
ATOM     18  O   LIG    1       23.018 -30.152  14.625  0.00  0.00    -0.288 OA
ATOM     19  C   LIG    1       22.666 -31.837  13.010  0.00  0.00    +0.121 C 
ATOM     20  C   LIG    1       25.955 -29.899  12.660  0.00  0.00    +0.020 C 
ATOM     21  C   LIG    1       23.450 -32.360  12.047  0.00  0.00    +0.127 C 
ENDROOT
BRANCH  19  22
ATOM     22  C   LIG    1       21.485 -32.506  13.618  0.00  0.00    +0.248 C 
ATOM     23  O   LIG    1       20.504 -32.838  12.964  0.00  0.00    -0.270 OA
ATOM     24  N   LIG    1       21.550 -32.778  14.950  0.00  0.00    -0.325 N 
ATOM     25  H   LIG    1       22.430 -32.680  15.446  0.00  0.00    +0.145 HD
ATOM     26  H   LIG    1       20.806 -33.327  15.356  0.00  0.00    +0.145 HD
ENDBRANCH  19  22
BRANCH   1  28
ATOM     27  C   LIG    1       25.781 -32.749   9.507  0.00  0.00    +0.105 C 
ATOM     28  N   LIG    1       24.583 -32.005   9.910  0.00  0.00    -0.298 NA
ATOM     29  C   LIG    1       24.383 -30.862   9.007  0.00  0.00    +0.105 C 
ENDBRANCH   1  28
BRANCH   3  30
ATOM     30  O   LIG    1       22.488 -29.416  11.285  0.00  0.00    -0.373 OA
ATOM     31  H   LIG    1       22.040 -28.560  11.457  0.00  0.00    +0.211 HD
ENDBRANCH   3  30
BRANCH   4  32
ATOM     32  O   LIG    1       22.534 -27.362  12.925  0.00  0.00    -0.507 OA
ATOM     33  H   LIG    1       22.604 -26.611  12.293  0.00  0.00    +0.292 HD
ENDBRANCH   4  32
BRANCH   7  34
ATOM     34  O   LIG    1       26.662 -28.900  15.300  0.00  0.00    -0.387 OA
ATOM     35  H   LIG    1       25.842 -28.460  15.587  0.00  0.00    +0.210 HD
ENDBRANCH   7  34
BRANCH  10  36
ATOM     36  O   LIG    1       25.605 -23.510  14.463  0.00  0.00    -0.506 OA
ATOM     37  H   LIG    1       25.776 -23.065  13.602  0.00  0.00    +0.292 HD
ENDBRANCH  10  36
BRANCH  21  38
ATOM     38  O   LIG    1       23.228 -33.639  11.534  0.00  0.00    -0.509 OA
ATOM     39  H   LIG    1       23.500 -34.244  12.264  0.00  0.00    +0.292 HD
ENDBRANCH  21  38
TORSDOF 7
ENDMDL
MODEL 8
REMARK VINA RESULT:      -4.6      4.015      6.755
REMARK  Name = *****
REMARK                            x       y       z     vdW  Elec       q    Type
REMARK                         _______ _______ _______ _____ _____    ______ ____
ROOT
ATOM      1  C   LIG    1       25.290 -32.050  13.202  0.00  0.00    +0.129 C 
ATOM      2  C   LIG    1       24.861 -32.334  11.728  0.00  0.00    +0.061 C 
ATOM      3  C   LIG    1       23.900 -31.261  11.180  0.00  0.00    +0.190 C 
ATOM      4  C   LIG    1       23.664 -31.401   9.686  0.00  0.00    +0.141 C 
ATOM      5  C   LIG    1       24.500 -32.075   8.870  0.00  0.00    +0.046 C 
ATOM      6  C   LIG    1       25.730 -32.796   9.357  0.00  0.00    +0.060 C 
ATOM      7  C   LIG    1       26.926 -32.588   8.404  0.00  0.00    +0.154 C 
ATOM      8  C   LIG    1       26.579 -32.881   6.966  0.00  0.00    +0.014 A 
ATOM      9  C   LIG    1       25.265 -32.673   6.500  0.00  0.00    +0.070 A 
ATOM     10  C   LIG    1       24.951 -32.912   5.151  0.00  0.00    +0.128 A 
ATOM     11  C   LIG    1       25.922 -33.355   4.260  0.00  0.00    +0.047 A 
ATOM     12  C   LIG    1       27.226 -33.548   4.705  0.00  0.00    +0.024 A 
ATOM     13  C   LIG    1       27.554 -33.308   6.043  0.00  0.00    +0.048 A 
ATOM     14 CL   LIG    1       29.206 -33.527   6.499  0.00  0.00    -0.083 Cl
ATOM     15  C   LIG    1       24.205 -32.170   7.413  0.00  0.00    +0.197 C 
ATOM     16  O   LIG    1       23.103 -31.857   6.964  0.00  0.00    -0.287 OA
ATOM     17  C   LIG    1       24.510 -29.877  11.493  0.00  0.00    +0.210 C 
ATOM     18  O   LIG    1       24.929 -29.102  10.636  0.00  0.00    -0.288 OA
ATOM     19  C   LIG    1       24.697 -29.575  12.937  0.00  0.00    +0.121 C 
ATOM     20  C   LIG    1       26.104 -32.440  10.813  0.00  0.00    +0.020 C 
ATOM     21  C   LIG    1       25.081 -30.616  13.700  0.00  0.00    +0.127 C 
ENDROOT
BRANCH  19  22
ATOM     22  C   LIG    1       24.404 -28.204  13.433  0.00  0.00    +0.248 C 
ATOM     23  O   LIG    1       25.143 -27.610  14.207  0.00  0.00    -0.270 OA
ATOM     24  N   LIG    1       23.281 -27.603  12.954  0.00  0.00    -0.325 N 
ATOM     25  H   LIG    1       22.778 -28.014  12.174  0.00  0.00    +0.145 HD
ATOM     26  H   LIG    1       23.124 -26.635  13.195  0.00  0.00    +0.145 HD
ENDBRANCH  19  22
BRANCH   1  28
ATOM     27  C   LIG    1       25.827 -33.825  14.816  0.00  0.00    +0.105 C 
ATOM     28  N   LIG    1       24.771 -32.979  14.251  0.00  0.00    -0.298 NA
ATOM     29  C   LIG    1       23.653 -33.818  13.798  0.00  0.00    +0.105 C 
ENDBRANCH   1  28
BRANCH   3  30
ATOM     30  O   LIG    1       22.630 -31.405  11.818  0.00  0.00    -0.373 OA
ATOM     31  H   LIG    1       22.842 -31.542  12.766  0.00  0.00    +0.211 HD
ENDBRANCH   3  30
BRANCH   4  32
ATOM     32  O   LIG    1       22.472 -30.827   9.258  0.00  0.00    -0.507 OA
ATOM     33  H   LIG    1       21.857 -31.547   8.993  0.00  0.00    +0.292 HD
ENDBRANCH   4  32
BRANCH   7  34
ATOM     34  O   LIG    1       27.400 -31.251   8.496  0.00  0.00    -0.387 OA
ATOM     35  H   LIG    1       28.313 -31.221   8.158  0.00  0.00    +0.210 HD
ENDBRANCH   7  34
BRANCH  10  36
ATOM     36  O   LIG    1       23.702 -32.729   4.621  0.00  0.00    -0.506 OA
ATOM     37  H   LIG    1       23.769 -32.088   3.877  0.00  0.00    +0.292 HD
ENDBRANCH  10  36
BRANCH  21  38
ATOM     38  O   LIG    1       25.271 -30.486  15.077  0.00  0.00    -0.509 OA
ATOM     39  H   LIG    1       25.750 -29.630  15.176  0.00  0.00    +0.292 HD
ENDBRANCH  21  38
TORSDOF 7
ENDMDL
MODEL 9
REMARK VINA RESULT:      -4.5      3.684      5.176
REMARK  Name = *****
REMARK                            x       y       z     vdW  Elec       q    Type
REMARK                         _______ _______ _______ _____ _____    ______ ____
ROOT
ATOM      1  C   LIG    1       27.861 -28.825  13.009  0.00  0.00    +0.129 C 
ATOM      2  C   LIG    1       26.893 -29.887  12.399  0.00  0.00    +0.061 C 
ATOM      3  C   LIG    1       25.478 -29.807  13.002  0.00  0.00    +0.190 C 
ATOM      4  C   LIG    1       24.478 -30.673  12.256  0.00  0.00    +0.141 C 
ATOM      5  C   LIG    1       24.678 -31.104  10.994  0.00  0.00    +0.046 C 
ATOM      6  C   LIG    1       25.928 -30.811  10.206  0.00  0.00    +0.060 C 
ATOM      7  C   LIG    1       25.607 -30.459   8.738  0.00  0.00    +0.154 C 
ATOM      8  C   LIG    1       24.701 -31.472   8.085  0.00  0.00    +0.014 A 
ATOM      9  C   LIG    1       23.760 -32.181   8.859  0.00  0.00    +0.070 A 
ATOM     10  C   LIG    1       22.891 -33.099   8.243  0.00  0.00    +0.128 A 
ATOM     11  C   LIG    1       22.944 -33.321   6.872  0.00  0.00    +0.047 A 
ATOM     12  C   LIG    1       23.856 -32.615   6.095  0.00  0.00    +0.024 A 
ATOM     13  C   LIG    1       24.722 -31.694   6.694  0.00  0.00    +0.048 A 
ATOM     14 CL   LIG    1       25.790 -30.825   5.649  0.00  0.00    -0.083 Cl
ATOM     15  C   LIG    1       23.651 -31.950  10.323  0.00  0.00    +0.197 C 
ATOM     16  O   LIG    1       22.735 -32.466  10.961  0.00  0.00    -0.287 OA
ATOM     17  C   LIG    1       25.032 -28.328  12.965  0.00  0.00    +0.210 C 
ATOM     18  O   LIG    1       24.120 -27.905  12.258  0.00  0.00    -0.288 OA
ATOM     19  C   LIG    1       25.876 -27.389  13.748  0.00  0.00    +0.121 C 
ATOM     20  C   LIG    1       26.817 -29.731  10.862  0.00  0.00    +0.020 C 
ATOM     21  C   LIG    1       27.199 -27.645  13.727  0.00  0.00    +0.127 C 
ENDROOT
BRANCH  19  22
ATOM     22  C   LIG    1       25.221 -26.299  14.518  0.00  0.00    +0.248 C 
ATOM     23  O   LIG    1       25.712 -25.182  14.632  0.00  0.00    -0.270 OA
ATOM     24  N   LIG    1       24.010 -26.579  15.073  0.00  0.00    -0.325 N 
ATOM     25  H   LIG    1       23.520 -27.430  14.818  0.00  0.00    +0.145 HD
ATOM     26  H   LIG    1       23.503 -25.821  15.506  0.00  0.00    +0.145 HD
ENDBRANCH  19  22
BRANCH   1  28
ATOM     27  C   LIG    1       30.156 -29.700  13.113  0.00  0.00    +0.105 C 
ATOM     28  N   LIG    1       28.962 -29.332  13.881  0.00  0.00    -0.298 NA
ATOM     29  C   LIG    1       28.565 -30.451  14.747  0.00  0.00    +0.105 C 
ENDBRANCH   1  28
BRANCH   3  30
ATOM     30  O   LIG    1       25.519 -30.284  14.348  0.00  0.00    -0.373 OA
ATOM     31  H   LIG    1       25.185 -31.205  14.296  0.00  0.00    +0.211 HD
ENDBRANCH   3  30
BRANCH   4  32
ATOM     32  O   LIG    1       23.374 -31.031  13.023  0.00  0.00    -0.507 OA
ATOM     33  H   LIG    1       23.413 -30.537  13.873  0.00  0.00    +0.292 HD
ENDBRANCH   4  32
BRANCH   7  34
ATOM     34  O   LIG    1       24.992 -29.180   8.664  0.00  0.00    -0.387 OA
ATOM     35  H   LIG    1       24.062 -29.267   8.938  0.00  0.00    +0.210 HD
ENDBRANCH   7  34
BRANCH  10  36
ATOM     36  O   LIG    1       21.949 -33.822   8.923  0.00  0.00    -0.506 OA
ATOM     37  H   LIG    1       22.248 -33.927   9.855  0.00  0.00    +0.292 HD
ENDBRANCH  10  36
BRANCH  21  38
ATOM     38  O   LIG    1       28.110 -26.860  14.437  0.00  0.00    -0.509 OA
ATOM     39  H   LIG    1       28.822 -27.490  14.696  0.00  0.00    +0.292 HD
ENDBRANCH  21  38
TORSDOF 7
ENDMDL
