MODEL 1
REMARK VINA RESULT:      -8.0      0.000      0.000
REMARK  Name = *****
REMARK                            x       y       z     vdW  Elec       q    Type
REMARK                         _______ _______ _______ _____ _____    ______ ____
ROOT
ATOM      1  C   LIG    1       26.715 -21.300   8.315  0.00  0.00    +0.015 C 
ATOM      2  C   LIG    1       25.694 -21.388   7.454  0.00  0.00    -0.000 C 
ATOM      3  C   LIG    1       24.347 -22.054   7.706  0.00  0.00    +0.029 C 
ATOM      4  C   LIG    1       24.061 -22.765   6.353  0.00  0.00    -0.016 C 
ATOM      5  C   LIG    1       24.189 -21.445   5.539  0.00  0.00    +0.036 C 
ATOM      6  C   LIG    1       23.199 -20.484   6.247  0.00  0.00    +0.015 C 
ATOM      7  C   LIG    1       24.036 -21.526   4.039  0.00  0.00    +0.020 C 
ATOM      8  C   LIG    1       25.090 -23.856   5.984  0.00  0.00    +0.012 C 
ATOM      9  C   LIG    1       22.674 -23.433   6.289  0.00  0.00    +0.012 C 
ATOM     10  C   LIG    1       23.301 -20.914   7.732  0.00  0.00    +0.010 C 
ATOM     11  C   LIG    1       25.562 -20.963   6.011  0.00  0.00    +0.166 C 
ATOM     12  O   LIG    1       26.363 -20.316   5.363  0.00  0.00    -0.292 OA
ENDROOT
BRANCH   1  17
ATOM     13  C   LIG    1       31.984 -19.055   7.513  0.00  0.00    +0.044 C 
ATOM     14  C   LIG    1       30.617 -19.625   7.746  0.00  0.00    -0.050 A 
ATOM     15  C   LIG    1       29.496 -18.788   7.787  0.00  0.00    +0.004 A 
ATOM     16  C   LIG    1       28.217 -19.323   7.965  0.00  0.00    +0.008 A 
ATOM     17  C   LIG    1       28.033 -20.704   8.076  0.00  0.00    -0.025 A 
ATOM     18  C   LIG    1       29.154 -21.541   8.034  0.00  0.00    +0.008 A 
ATOM     19  C   LIG    1       30.435 -21.008   7.859  0.00  0.00    +0.004 A 
ENDBRANCH   1  17
TORSDOF 1
ENDMDL
MODEL 2
REMARK VINA RESULT:      -7.7      1.490      2.757
REMARK  Name = *****
REMARK                            x       y       z     vdW  Elec       q    Type
REMARK                         _______ _______ _______ _____ _____    ______ ____
ROOT
ATOM      1  C   LIG    1       28.718 -21.279   6.877  0.00  0.00    +0.015 C 
ATOM      2  C   LIG    1       27.396 -21.458   6.993  0.00  0.00    -0.000 C 
ATOM      3  C   LIG    1       26.527 -22.381   6.148  0.00  0.00    +0.029 C 
ATOM      4  C   LIG    1       25.244 -21.532   5.929  0.00  0.00    -0.016 C 
ATOM      5  C   LIG    1       25.008 -21.346   7.456  0.00  0.00    +0.036 C 
ATOM      6  C   LIG    1       25.013 -22.796   8.004  0.00  0.00    +0.015 C 
ATOM      7  C   LIG    1       23.830 -20.505   7.888  0.00  0.00    +0.020 C 
ATOM      8  C   LIG    1       25.479 -20.222   5.145  0.00  0.00    +0.012 C 
ATOM      9  C   LIG    1       24.123 -22.289   5.189  0.00  0.00    +0.012 C 
ATOM     10  C   LIG    1       26.047 -23.507   7.095  0.00  0.00    +0.010 C 
ATOM     11  C   LIG    1       26.370 -20.794   7.879  0.00  0.00    +0.166 C 
ATOM     12  O   LIG    1       26.584 -20.016   8.789  0.00  0.00    -0.292 OA
ENDROOT
BRANCH   1  17
ATOM     13  C   LIG    1       32.092 -17.572   9.763  0.00  0.00    +0.044 C 
ATOM     14  C   LIG    1       31.239 -18.542   9.001  0.00  0.00    -0.050 A 
ATOM     15  C   LIG    1       31.364 -19.919   9.216  0.00  0.00    +0.004 A 
ATOM     16  C   LIG    1       30.543 -20.822   8.535  0.00  0.00    +0.008 A 
ATOM     17  C   LIG    1       29.564 -20.364   7.649  0.00  0.00    -0.025 A 
ATOM     18  C   LIG    1       29.438 -18.987   7.435  0.00  0.00    +0.008 A 
ATOM     19  C   LIG    1       30.261 -18.082   8.113  0.00  0.00    +0.004 A 
ENDBRANCH   1  17
TORSDOF 1
ENDMDL
MODEL 3
REMARK VINA RESULT:      -7.6      3.243      6.671
REMARK  Name = *****
REMARK                            x       y       z     vdW  Elec       q    Type
REMARK                         _______ _______ _______ _____ _____    ______ ____
ROOT
ATOM      1  C   LIG    1       26.007 -25.154   6.032  0.00  0.00    +0.015 C 
ATOM      2  C   LIG    1       25.356 -24.006   6.256  0.00  0.00    -0.000 C 
ATOM      3  C   LIG    1       25.932 -22.599   6.155  0.00  0.00    +0.029 C 
ATOM      4  C   LIG    1       25.287 -21.880   7.372  0.00  0.00    -0.016 C 
ATOM      5  C   LIG    1       23.840 -22.214   6.906  0.00  0.00    +0.036 C 
ATOM      6  C   LIG    1       23.795 -21.680   5.451  0.00  0.00    +0.015 C 
ATOM      7  C   LIG    1       22.697 -21.766   7.786  0.00  0.00    +0.020 C 
ATOM      8  C   LIG    1       25.681 -22.477   8.741  0.00  0.00    +0.012 C 
ATOM      9  C   LIG    1       25.613 -20.375   7.442  0.00  0.00    +0.012 C 
ATOM     10  C   LIG    1       25.236 -21.935   4.943  0.00  0.00    +0.010 C 
ATOM     11  C   LIG    1       23.950 -23.730   6.733  0.00  0.00    +0.166 C 
ATOM     12  O   LIG    1       23.060 -24.542   6.895  0.00  0.00    -0.292 OA
ENDROOT
BRANCH   1  17
ATOM     13  C   LIG    1       24.114 -30.588   6.618  0.00  0.00    +0.044 C 
ATOM     14  C   LIG    1       24.621 -29.186   6.445  0.00  0.00    -0.050 A 
ATOM     15  C   LIG    1       24.268 -28.438   5.317  0.00  0.00    +0.004 A 
ATOM     16  C   LIG    1       24.708 -27.119   5.174  0.00  0.00    +0.008 A 
ATOM     17  C   LIG    1       25.484 -26.516   6.168  0.00  0.00    -0.025 A 
ATOM     18  C   LIG    1       25.835 -27.265   7.297  0.00  0.00    +0.008 A 
ATOM     19  C   LIG    1       25.399 -28.586   7.440  0.00  0.00    +0.004 A 
ENDBRANCH   1  17
TORSDOF 1
ENDMDL
MODEL 4
REMARK VINA RESULT:      -7.3      3.322      5.693
REMARK  Name = *****
REMARK                            x       y       z     vdW  Elec       q    Type
REMARK                         _______ _______ _______ _____ _____    ______ ____
ROOT
ATOM      1  C   LIG    1       24.244 -23.686   7.041  0.00  0.00    +0.015 C 
ATOM      2  C   LIG    1       24.242 -22.595   6.265  0.00  0.00    -0.000 C 
ATOM      3  C   LIG    1       23.830 -21.188   6.677  0.00  0.00    +0.029 C 
ATOM      4  C   LIG    1       23.050 -20.684   5.431  0.00  0.00    -0.016 C 
ATOM      5  C   LIG    1       24.249 -20.946   4.474  0.00  0.00    +0.036 C 
ATOM      6  C   LIG    1       25.420 -20.179   5.140  0.00  0.00    +0.015 C 
ATOM      7  C   LIG    1       24.052 -20.656   3.004  0.00  0.00    +0.020 C 
ATOM      8  C   LIG    1       21.776 -21.496   5.111  0.00  0.00    +0.012 C 
ATOM      9  C   LIG    1       22.613 -19.209   5.532  0.00  0.00    +0.012 C 
ATOM     10  C   LIG    1       25.122 -20.337   6.653  0.00  0.00    +0.010 C 
ATOM     11  C   LIG    1       24.544 -22.411   4.797  0.00  0.00    +0.166 C 
ATOM     12  O   LIG    1       24.988 -23.245   4.031  0.00  0.00    -0.292 OA
ENDROOT
BRANCH   1  17
ATOM     13  C   LIG    1       25.785 -29.029   5.448  0.00  0.00    +0.044 C 
ATOM     14  C   LIG    1       25.386 -27.636   5.835  0.00  0.00    -0.050 A 
ATOM     15  C   LIG    1       24.124 -27.138   5.492  0.00  0.00    +0.004 A 
ATOM     16  C   LIG    1       23.737 -25.853   5.886  0.00  0.00    +0.008 A 
ATOM     17  C   LIG    1       24.592 -25.056   6.652  0.00  0.00    -0.025 A 
ATOM     18  C   LIG    1       25.854 -25.555   6.995  0.00  0.00    +0.008 A 
ATOM     19  C   LIG    1       26.244 -26.838   6.600  0.00  0.00    +0.004 A 
ENDBRANCH   1  17
TORSDOF 1
ENDMDL
MODEL 5
REMARK VINA RESULT:      -7.2      2.905      6.155
REMARK  Name = *****
REMARK                            x       y       z     vdW  Elec       q    Type
REMARK                         _______ _______ _______ _____ _____    ______ ____
ROOT
ATOM      1  C   LIG    1       25.500 -24.934   7.258  0.00  0.00    +0.015 C 
ATOM      2  C   LIG    1       25.223 -23.731   6.741  0.00  0.00    -0.000 C 
ATOM      3  C   LIG    1       25.155 -22.410   7.498  0.00  0.00    +0.029 C 
ATOM      4  C   LIG    1       23.929 -21.710   6.848  0.00  0.00    -0.016 C 
ATOM      5  C   LIG    1       24.527 -21.810   5.416  0.00  0.00    +0.036 C 
ATOM      6  C   LIG    1       25.928 -21.162   5.561  0.00  0.00    +0.015 C 
ATOM      7  C   LIG    1       23.698 -21.284   4.268  0.00  0.00    +0.020 C 
ATOM      8  C   LIG    1       22.594 -22.461   7.046  0.00  0.00    +0.012 C 
ATOM      9  C   LIG    1       23.700 -20.273   7.356  0.00  0.00    +0.012 C 
ATOM     10  C   LIG    1       26.350 -21.565   6.997  0.00  0.00    +0.010 C 
ATOM     11  C   LIG    1       24.827 -23.308   5.347  0.00  0.00    +0.166 C 
ATOM     12  O   LIG    1       24.804 -24.005   4.350  0.00  0.00    -0.292 OA
ENDROOT
BRANCH   1  17
ATOM     13  C   LIG    1       25.549 -30.097   4.649  0.00  0.00    +0.044 C 
ATOM     14  C   LIG    1       25.557 -28.766   5.341  0.00  0.00    -0.050 A 
ATOM     15  C   LIG    1       26.619 -27.875   5.154  0.00  0.00    +0.004 A 
ATOM     16  C   LIG    1       26.609 -26.619   5.768  0.00  0.00    +0.008 A 
ATOM     17  C   LIG    1       25.525 -26.221   6.556  0.00  0.00    -0.025 A 
ATOM     18  C   LIG    1       24.463 -27.113   6.742  0.00  0.00    +0.008 A 
ATOM     19  C   LIG    1       24.472 -28.371   6.132  0.00  0.00    +0.004 A 
ENDBRANCH   1  17
TORSDOF 1
ENDMDL
MODEL 6
REMARK VINA RESULT:      -7.2      2.967      6.046
REMARK  Name = *****
REMARK                            x       y       z     vdW  Elec       q    Type
REMARK                         _______ _______ _______ _____ _____    ______ ____
ROOT
ATOM      1  C   LIG    1       25.056 -24.318   4.775  0.00  0.00    +0.015 C 
ATOM      2  C   LIG    1       24.566 -23.122   5.124  0.00  0.00    -0.000 C 
ATOM      3  C   LIG    1       24.597 -21.849   4.287  0.00  0.00    +0.029 C 
ATOM      4  C   LIG    1       24.919 -20.756   5.345  0.00  0.00    -0.016 C 
ATOM      5  C   LIG    1       23.694 -21.134   6.228  0.00  0.00    +0.036 C 
ATOM      6  C   LIG    1       22.501 -21.070   5.240  0.00  0.00    +0.015 C 
ATOM      7  C   LIG    1       23.496 -20.375   7.518  0.00  0.00    +0.020 C 
ATOM      8  C   LIG    1       26.291 -20.927   6.033  0.00  0.00    +0.012 C 
ATOM      9  C   LIG    1       24.890 -19.323   4.778  0.00  0.00    +0.012 C 
ATOM     10  C   LIG    1       23.127 -21.549   3.906  0.00  0.00    +0.010 C 
ATOM     11  C   LIG    1       23.937 -22.634   6.406  0.00  0.00    +0.166 C 
ATOM     12  O   LIG    1       23.628 -23.306   7.372  0.00  0.00    -0.292 OA
ENDROOT
BRANCH   1  17
ATOM     13  C   LIG    1       25.324 -29.159   7.929  0.00  0.00    +0.044 C 
ATOM     14  C   LIG    1       25.261 -27.918   7.089  0.00  0.00    -0.050 A 
ATOM     15  C   LIG    1       24.254 -27.760   6.130  0.00  0.00    +0.004 A 
ATOM     16  C   LIG    1       24.172 -26.587   5.374  0.00  0.00    +0.008 A 
ATOM     17  C   LIG    1       25.077 -25.542   5.582  0.00  0.00    -0.025 A 
ATOM     18  C   LIG    1       26.083 -25.701   6.541  0.00  0.00    +0.008 A 
ATOM     19  C   LIG    1       26.169 -26.874   7.297  0.00  0.00    +0.004 A 
ENDBRANCH   1  17
TORSDOF 1
ENDMDL
MODEL 7
REMARK VINA RESULT:      -7.1      1.344      2.539
REMARK  Name = *****
REMARK                            x       y       z     vdW  Elec       q    Type
REMARK                         _______ _______ _______ _____ _____    ______ ____
ROOT
ATOM      1  C   LIG    1       26.731 -19.720   5.599  0.00  0.00    +0.015 C 
ATOM      2  C   LIG    1       25.747 -20.626   5.545  0.00  0.00    -0.000 C 
ATOM      3  C   LIG    1       24.425 -20.491   4.800  0.00  0.00    +0.029 C 
ATOM      4  C   LIG    1       23.409 -21.121   5.792  0.00  0.00    -0.016 C 
ATOM      5  C   LIG    1       24.185 -22.468   5.858  0.00  0.00    +0.036 C 
ATOM      6  C   LIG    1       24.323 -22.881   4.370  0.00  0.00    +0.015 C 
ATOM      7  C   LIG    1       23.648 -23.545   6.771  0.00  0.00    +0.020 C 
ATOM      8  C   LIG    1       23.295 -20.374   7.139  0.00  0.00    +0.012 C 
ATOM      9  C   LIG    1       21.979 -21.225   5.227  0.00  0.00    +0.012 C 
ATOM     10  C   LIG    1       24.475 -21.520   3.645  0.00  0.00    +0.010 C 
ATOM     11  C   LIG    1       25.581 -21.964   6.226  0.00  0.00    +0.166 C 
ATOM     12  O   LIG    1       26.412 -22.555   6.889  0.00  0.00    -0.292 OA
ENDROOT
BRANCH   1  17
ATOM     13  C   LIG    1       31.609 -19.999   8.693  0.00  0.00    +0.044 C 
ATOM     14  C   LIG    1       30.346 -19.900   7.891  0.00  0.00    -0.050 A 
ATOM     15  C   LIG    1       30.384 -19.474   6.558  0.00  0.00    +0.004 A 
ATOM     16  C   LIG    1       29.212 -19.418   5.797  0.00  0.00    +0.008 A 
ATOM     17  C   LIG    1       27.988 -19.812   6.346  0.00  0.00    -0.025 A 
ATOM     18  C   LIG    1       27.951 -20.239   7.679  0.00  0.00    +0.008 A 
ATOM     19  C   LIG    1       29.122 -20.292   8.442  0.00  0.00    +0.004 A 
ENDBRANCH   1  17
TORSDOF 1
ENDMDL
MODEL 8
REMARK VINA RESULT:      -6.5      6.055      8.670
REMARK  Name = *****
REMARK                            x       y       z     vdW  Elec       q    Type
REMARK                         _______ _______ _______ _____ _____    ______ ____
ROOT
ATOM      1  C   LIG    1       24.560 -28.352   6.419  0.00  0.00    +0.015 C 
ATOM      2  C   LIG    1       24.955 -29.283   7.297  0.00  0.00    -0.000 C 
ATOM      3  C   LIG    1       24.598 -30.764   7.274  0.00  0.00    +0.029 C 
ATOM      4  C   LIG    1       24.359 -31.079   8.777  0.00  0.00    -0.016 C 
ATOM      5  C   LIG    1       25.773 -30.577   9.191  0.00  0.00    +0.036 C 
ATOM      6  C   LIG    1       26.727 -31.380   8.271  0.00  0.00    +0.015 C 
ATOM      7  C   LIG    1       26.127 -30.606  10.658  0.00  0.00    +0.020 C 
ATOM      8  C   LIG    1       23.185 -30.299   9.407  0.00  0.00    +0.012 C 
ATOM      9  C   LIG    1       24.094 -32.571   9.059  0.00  0.00    +0.012 C 
ATOM     10  C   LIG    1       25.913 -31.518   6.960  0.00  0.00    +0.010 C 
ATOM     11  C   LIG    1       25.761 -29.179   8.569  0.00  0.00    +0.166 C 
ATOM     12  O   LIG    1       26.338 -28.196   8.991  0.00  0.00    -0.292 OA
ENDROOT
BRANCH   1  17
ATOM     13  C   LIG    1       25.602 -22.663   6.394  0.00  0.00    +0.044 C 
ATOM     14  C   LIG    1       25.343 -24.140   6.376  0.00  0.00    -0.050 A 
ATOM     15  C   LIG    1       26.405 -25.048   6.464  0.00  0.00    +0.004 A 
ATOM     16  C   LIG    1       26.162 -26.425   6.486  0.00  0.00    +0.008 A 
ATOM     17  C   LIG    1       24.854 -26.917   6.449  0.00  0.00    -0.025 A 
ATOM     18  C   LIG    1       23.793 -26.008   6.362  0.00  0.00    +0.008 A 
ATOM     19  C   LIG    1       24.034 -24.631   6.337  0.00  0.00    +0.004 A 
ENDBRANCH   1  17
TORSDOF 1
ENDMDL
MODEL 9
REMARK VINA RESULT:      -6.4      2.710      6.036
REMARK  Name = *****
REMARK                            x       y       z     vdW  Elec       q    Type
REMARK                         _______ _______ _______ _____ _____    ______ ____
ROOT
ATOM      1  C   LIG    1       23.403 -24.449   6.052  0.00  0.00    +0.015 C 
ATOM      2  C   LIG    1       23.895 -23.217   6.229  0.00  0.00    -0.000 C 
ATOM      3  C   LIG    1       23.093 -21.927   6.350  0.00  0.00    +0.029 C 
ATOM      4  C   LIG    1       23.947 -20.919   5.531  0.00  0.00    -0.016 C 
ATOM      5  C   LIG    1       25.222 -21.181   6.384  0.00  0.00    +0.036 C 
ATOM      6  C   LIG    1       24.742 -20.940   7.839  0.00  0.00    +0.015 C 
ATOM      7  C   LIG    1       26.487 -20.450   6.001  0.00  0.00    +0.020 C 
ATOM      8  C   LIG    1       24.084 -21.275   4.035  0.00  0.00    +0.012 C 
ATOM      9  C   LIG    1       23.416 -19.473   5.589  0.00  0.00    +0.012 C 
ATOM     10  C   LIG    1       23.276 -21.442   7.808  0.00  0.00    +0.010 C 
ATOM     11  C   LIG    1       25.314 -22.704   6.280  0.00  0.00    +0.166 C 
ATOM     12  O   LIG    1       26.332 -23.369   6.293  0.00  0.00    -0.292 OA
ENDROOT
BRANCH   1  17
ATOM     13  C   LIG    1       26.328 -29.370   5.225  0.00  0.00    +0.044 C 
ATOM     14  C   LIG    1       25.546 -28.107   5.435  0.00  0.00    -0.050 A 
ATOM     15  C   LIG    1       24.734 -27.955   6.564  0.00  0.00    +0.004 A 
ATOM     16  C   LIG    1       24.035 -26.763   6.781  0.00  0.00    +0.008 A 
ATOM     17  C   LIG    1       24.158 -25.695   5.888  0.00  0.00    -0.025 A 
ATOM     18  C   LIG    1       24.971 -25.848   4.759  0.00  0.00    +0.008 A 
ATOM     19  C   LIG    1       25.668 -27.040   4.539  0.00  0.00    +0.004 A 
ENDBRANCH   1  17
TORSDOF 1
ENDMDL
