MODEL 1
REMARK VINA RESULT:      10.5      0.000      0.000
REMARK  Name = *****
REMARK                            x       y       z     vdW  Elec       q    Type
REMARK                         _______ _______ _______ _____ _____    ______ ____
ROOT
ATOM      1  C   LIG    1       26.334 -18.565   4.426  0.00  0.00    +0.237 C 
ATOM      2  N   LIG    1       25.582 -17.577   3.790  0.00  0.00    -0.288 N 
ATOM      3  C   LIG    1       24.173 -17.358   4.197  0.00  0.00    +0.166 C 
ATOM      4  C   LIG    1       23.746 -16.138   3.365  0.00  0.00    +0.029 C 
ATOM      5  C   LIG    1       24.167 -14.669   3.586  0.00  0.00    -0.025 C 
ATOM      6  C   LIG    1       23.462 -13.576   2.818  0.00  0.00    +0.011 C 
ATOM      7  C   LIG    1       24.708 -14.203   4.914  0.00  0.00    +0.011 C 
ATOM      8  C   LIG    1       24.986 -15.592   2.736  0.00  0.00    +0.018 C 
ATOM      9  C   LIG    1       26.144 -16.356   3.248  0.00  0.00    +0.113 C 
ATOM     10  O   LIG    1       25.782 -19.513   4.984  0.00  0.00    -0.274 OA
ENDROOT
BRANCH   3  11
ATOM     11  C   LIG    1       23.240 -18.576   3.953  0.00  0.00    +0.234 C 
ATOM     12  N   LIG    1       22.359 -18.832   4.982  0.00  0.00    -0.304 N 
ATOM     13  H   LIG    1       22.381 -18.179   5.760  0.00  0.00    +0.149 HD
ATOM     14  O   LIG    1       23.373 -19.330   2.993  0.00  0.00    -0.274 OA
BRANCH  12  15
ATOM     15  C   LIG    1       21.318 -19.860   4.932  0.00  0.00    +0.149 C 
BRANCH  15  16
ATOM     16  C   LIG    1       20.367 -19.574   3.775  0.00  0.00    +0.237 C 
ATOM     17  O   LIG    1       19.857 -20.429   3.057  0.00  0.00    -0.285 OA
BRANCH  16  18
ATOM     18  C   LIG    1       20.146 -18.106   3.442  0.00  0.00    +0.279 C 
ATOM     19  O   LIG    1       20.465 -17.224   4.238  0.00  0.00    -0.267 OA
ATOM     20  N   LIG    1       19.506 -17.859   2.263  0.00  0.00    -0.323 N 
ATOM     21  H   LIG    1       19.328 -16.900   1.997  0.00  0.00    +0.145 HD
ATOM     22  H   LIG    1       19.283 -18.602   1.610  0.00  0.00    +0.145 HD
ENDBRANCH  16  18
ENDBRANCH  15  16
BRANCH  15  23
ATOM     23  C   LIG    1       21.929 -21.266   4.777  0.00  0.00    +0.034 C 
BRANCH  23  24
ATOM     24  C   LIG    1       22.904 -21.572   5.907  0.00  0.00    -0.009 C 
ATOM     25  C   LIG    1       24.422 -21.564   5.627  0.00  0.00    +0.004 C 
ATOM     26  C   LIG    1       24.601 -21.009   7.059  0.00  0.00    +0.000 C 
ATOM     27  C   LIG    1       23.168 -20.448   6.942  0.00  0.00    +0.004 C 
ENDBRANCH  23  24
ENDBRANCH  15  23
ENDBRANCH  12  15
ENDBRANCH   3  11
BRANCH   1  28
ATOM     28  C   LIG    1       27.887 -18.514   4.372  0.00  0.00    +0.166 C 
BRANCH  28  32
ATOM     29  N   LIG    1       28.432 -14.826   3.987  0.00  0.00    -0.295 N 
ATOM     30  H   LIG    1       29.195 -15.009   3.369  0.00  0.00    +0.151 HD
ATOM     31  C   LIG    1       27.837 -15.950   4.518  0.00  0.00    +0.301 C 
ATOM     32  N   LIG    1       28.345 -17.130   3.996  0.00  0.00    -0.288 N 
ATOM     33  H   LIG    1       29.222 -17.070   3.500  0.00  0.00    +0.151 HD
ATOM     34  O   LIG    1       26.902 -15.931   5.339  0.00  0.00    -0.253 OA
BRANCH  29  36
ATOM     35  C   LIG    1       27.032 -12.918   3.247  0.00  0.00    +0.031 C 
ATOM     36  C   LIG    1       28.158 -13.362   4.219  0.00  0.00    +0.028 C 
ATOM     37  C   LIG    1       27.674 -13.052   5.647  0.00  0.00    +0.031 C 
ATOM     38  C   LIG    1       29.381 -12.459   3.979  0.00  0.00    +0.031 C 
ENDBRANCH  29  36
ENDBRANCH  28  32
BRANCH  28  39
ATOM     39  C   LIG    1       28.586 -19.028   5.706  0.00  0.00    -0.011 C 
ATOM     40  C   LIG    1       29.475 -17.962   6.376  0.00  0.00    +0.013 C 
ATOM     41  C   LIG    1       29.474 -20.273   5.504  0.00  0.00    +0.013 C 
ATOM     42  C   LIG    1       27.505 -19.366   6.752  0.00  0.00    +0.013 C 
ENDBRANCH  28  39
ENDBRANCH   1  28
TORSDOF 10
ENDMDL
