MODEL 1
REMARK VINA RESULT:      -7.0      0.000      0.000
REMARK  Name = *****
REMARK                            x       y       z     vdW  Elec       q    Type
REMARK                         _______ _______ _______ _____ _____    ______ ____
ROOT
ATOM      1  C   LIG    1       23.265 -22.025   7.597  0.00  0.00    +0.067 C 
ATOM      2  C   LIG    1       24.271 -21.364   6.710  0.00  0.00    +0.059 C 
ATOM      3  N   LIG    1       25.630 -21.457   7.038  0.00  0.00    -0.282 N 
ATOM      4  C   LIG    1       26.226 -22.784   7.249  0.00  0.00    +0.171 C 
ATOM      5  N   LIG    1       26.319 -20.684   6.077  0.00  0.00    -0.216 N 
ATOM      6  C   LIG    1       25.395 -20.130   5.178  0.00  0.00    +0.293 C 
ATOM      7  O   LIG    1       25.600 -19.375   4.240  0.00  0.00    -0.264 OA
ATOM      8  C   LIG    1       24.014 -20.596   5.630  0.00  0.00    +0.117 C 
ENDROOT
BRANCH   5   9
ATOM      9  C   LIG    1       27.565 -20.083   6.381  0.00  0.00    +0.067 A 
ATOM     10  C   LIG    1       28.277 -19.394   5.393  0.00  0.00    +0.028 A 
ATOM     11  C   LIG    1       29.509 -18.802   5.686  0.00  0.00    +0.002 A 
ATOM     12  C   LIG    1       30.027 -18.869   6.978  0.00  0.00    +0.000 A 
ATOM     13  C   LIG    1       29.323 -19.541   7.973  0.00  0.00    +0.002 A 
ATOM     14  C   LIG    1       28.106 -20.157   7.673  0.00  0.00    +0.028 A 
ENDBRANCH   5   9
BRANCH   8  15
ATOM     15  N   LIG    1       22.835 -20.226   4.989  0.00  0.00    -0.330 N 
ATOM     16  C   LIG    1       21.792 -21.207   4.686  0.00  0.00    +0.129 C 
ATOM     17  C   LIG    1       22.475 -18.840   4.725  0.00  0.00    +0.129 C 
ENDBRANCH   8  15
TORSDOF 2
ENDMDL
MODEL 2
REMARK VINA RESULT:      -7.0      0.015      1.169
REMARK  Name = *****
REMARK                            x       y       z     vdW  Elec       q    Type
REMARK                         _______ _______ _______ _____ _____    ______ ____
ROOT
ATOM      1  C   LIG    1       23.273 -22.024   7.592  0.00  0.00    +0.067 C 
ATOM      2  C   LIG    1       24.277 -21.360   6.704  0.00  0.00    +0.059 C 
ATOM      3  N   LIG    1       25.636 -21.449   7.033  0.00  0.00    -0.282 N 
ATOM      4  C   LIG    1       26.237 -22.774   7.243  0.00  0.00    +0.171 C 
ATOM      5  N   LIG    1       26.323 -20.674   6.072  0.00  0.00    -0.216 N 
ATOM      6  C   LIG    1       25.398 -20.123   5.172  0.00  0.00    +0.293 C 
ATOM      7  O   LIG    1       25.600 -19.368   4.234  0.00  0.00    -0.264 OA
ATOM      8  C   LIG    1       24.018 -20.593   5.625  0.00  0.00    +0.117 C 
ENDROOT
BRANCH   5   9
ATOM      9  C   LIG    1       27.567 -20.070   6.375  0.00  0.00    +0.067 A 
ATOM     10  C   LIG    1       28.099 -20.157   7.666  0.00  0.00    +0.028 A 
ATOM     11  C   LIG    1       29.325 -19.561   7.973  0.00  0.00    +0.002 A 
ATOM     12  C   LIG    1       30.046 -18.894   6.983  0.00  0.00    +0.000 A 
ATOM     13  C   LIG    1       29.533 -18.810   5.691  0.00  0.00    +0.002 A 
ATOM     14  C   LIG    1       28.294 -19.381   5.392  0.00  0.00    +0.028 A 
ENDBRANCH   5   9
BRANCH   8  15
ATOM     15  N   LIG    1       22.838 -20.227   4.984  0.00  0.00    -0.330 N 
ATOM     16  C   LIG    1       21.795 -21.210   4.686  0.00  0.00    +0.129 C 
ATOM     17  C   LIG    1       22.476 -18.842   4.714  0.00  0.00    +0.129 C 
ENDBRANCH   8  15
TORSDOF 2
ENDMDL
MODEL 3
REMARK VINA RESULT:      -6.9      2.217      4.945
REMARK  Name = *****
REMARK                            x       y       z     vdW  Elec       q    Type
REMARK                         _______ _______ _______ _____ _____    ______ ____
ROOT
ATOM      1  C   LIG    1       26.253 -22.971   8.609  0.00  0.00    +0.067 C 
ATOM      2  C   LIG    1       25.757 -22.698   7.225  0.00  0.00    +0.059 C 
ATOM      3  N   LIG    1       25.618 -21.369   6.803  0.00  0.00    -0.282 N 
ATOM      4  C   LIG    1       26.770 -20.462   6.904  0.00  0.00    +0.171 C 
ATOM      5  N   LIG    1       25.066 -21.426   5.504  0.00  0.00    -0.216 N 
ATOM      6  C   LIG    1       24.873 -22.767   5.139  0.00  0.00    +0.293 C 
ATOM      7  O   LIG    1       24.383 -23.217   4.116  0.00  0.00    -0.264 OA
ATOM      8  C   LIG    1       25.339 -23.611   6.322  0.00  0.00    +0.117 C 
ENDROOT
BRANCH   5   9
ATOM      9  C   LIG    1       24.281 -20.361   4.998  0.00  0.00    +0.067 A 
ATOM     10  C   LIG    1       23.013 -20.102   5.529  0.00  0.00    +0.028 A 
ATOM     11  C   LIG    1       22.233 -19.055   5.032  0.00  0.00    +0.002 A 
ATOM     12  C   LIG    1       22.725 -18.238   4.016  0.00  0.00    +0.000 A 
ATOM     13  C   LIG    1       23.990 -18.478   3.485  0.00  0.00    +0.002 A 
ATOM     14  C   LIG    1       24.758 -19.542   3.964  0.00  0.00    +0.028 A 
ENDBRANCH   5   9
BRANCH   8  15
ATOM     15  N   LIG    1       25.279 -25.001   6.340  0.00  0.00    -0.330 N 
ATOM     16  C   LIG    1       23.998 -25.709   6.354  0.00  0.00    +0.129 C 
ATOM     17  C   LIG    1       26.452 -25.849   6.179  0.00  0.00    +0.129 C 
ENDBRANCH   8  15
TORSDOF 2
ENDMDL
MODEL 4
REMARK VINA RESULT:      -6.8      1.984      3.249
REMARK  Name = *****
REMARK                            x       y       z     vdW  Elec       q    Type
REMARK                         _______ _______ _______ _____ _____    ______ ____
ROOT
ATOM      1  C   LIG    1       25.775 -20.565   4.201  0.00  0.00    +0.067 C 
ATOM      2  C   LIG    1       26.235 -20.393   5.614  0.00  0.00    +0.059 C 
ATOM      3  N   LIG    1       27.552 -19.980   5.854  0.00  0.00    -0.282 N 
ATOM      4  C   LIG    1       28.044 -18.750   5.216  0.00  0.00    +0.171 C 
ATOM      5  N   LIG    1       27.714 -19.983   7.257  0.00  0.00    -0.216 N 
ATOM      6  C   LIG    1       26.516 -20.389   7.862  0.00  0.00    +0.293 C 
ATOM      7  O   LIG    1       26.276 -20.554   9.048  0.00  0.00    -0.264 OA
ATOM      8  C   LIG    1       25.531 -20.671   6.732  0.00  0.00    +0.117 C 
ENDROOT
BRANCH   5   9
ATOM      9  C   LIG    1       28.988 -20.180   7.844  0.00  0.00    +0.067 A 
ATOM     10  C   LIG    1       29.772 -19.083   8.215  0.00  0.00    +0.028 A 
ATOM     11  C   LIG    1       31.031 -19.270   8.793  0.00  0.00    +0.002 A 
ATOM     12  C   LIG    1       31.507 -20.558   9.030  0.00  0.00    +0.000 A 
ATOM     13  C   LIG    1       30.731 -21.659   8.675  0.00  0.00    +0.002 A 
ATOM     14  C   LIG    1       29.486 -21.471   8.073  0.00  0.00    +0.028 A 
ENDBRANCH   5   9
BRANCH   8  15
ATOM     15  N   LIG    1       24.231 -21.121   6.945  0.00  0.00    -0.330 N 
ATOM     16  C   LIG    1       23.073 -20.284   6.628  0.00  0.00    +0.129 C 
ATOM     17  C   LIG    1       23.917 -22.489   7.331  0.00  0.00    +0.129 C 
ENDBRANCH   8  15
TORSDOF 2
ENDMDL
MODEL 5
REMARK VINA RESULT:      -6.5      1.716      2.354
REMARK  Name = *****
REMARK                            x       y       z     vdW  Elec       q    Type
REMARK                         _______ _______ _______ _____ _____    ______ ____
ROOT
ATOM      1  C   LIG    1       23.859 -20.727   7.338  0.00  0.00    +0.067 C 
ATOM      2  C   LIG    1       25.271 -20.671   6.850  0.00  0.00    +0.059 C 
ATOM      3  N   LIG    1       26.312 -20.909   7.757  0.00  0.00    -0.282 N 
ATOM      4  C   LIG    1       26.305 -22.151   8.544  0.00  0.00    +0.171 C 
ATOM      5  N   LIG    1       27.511 -20.713   7.037  0.00  0.00    -0.216 N 
ATOM      6  C   LIG    1       27.207 -20.363   5.713  0.00  0.00    +0.293 C 
ATOM      7  O   LIG    1       27.969 -20.077   4.803  0.00  0.00    -0.264 OA
ATOM      8  C   LIG    1       25.685 -20.331   5.611  0.00  0.00    +0.117 C 
ENDROOT
BRANCH   5   9
ATOM      9  C   LIG    1       28.700 -20.312   7.694  0.00  0.00    +0.067 A 
ATOM     10  C   LIG    1       29.692 -21.250   7.998  0.00  0.00    +0.028 A 
ATOM     11  C   LIG    1       30.866 -20.861   8.649  0.00  0.00    +0.002 A 
ATOM     12  C   LIG    1       31.072 -19.523   8.977  0.00  0.00    +0.000 A 
ATOM     13  C   LIG    1       30.098 -18.576   8.670  0.00  0.00    +0.002 A 
ATOM     14  C   LIG    1       28.912 -18.970   8.045  0.00  0.00    +0.028 A 
ENDBRANCH   5   9
BRANCH   8  15
ATOM     15  N   LIG    1       25.004 -19.997   4.444  0.00  0.00    -0.330 N 
ATOM     16  C   LIG    1       25.250 -18.731   3.752  0.00  0.00    +0.129 C 
ATOM     17  C   LIG    1       24.134 -20.927   3.737  0.00  0.00    +0.129 C 
ENDBRANCH   8  15
TORSDOF 2
ENDMDL
MODEL 6
REMARK VINA RESULT:      -6.3      1.881      2.934
REMARK  Name = *****
REMARK                            x       y       z     vdW  Elec       q    Type
REMARK                         _______ _______ _______ _____ _____    ______ ____
ROOT
ATOM      1  C   LIG    1       24.040 -21.964   3.622  0.00  0.00    +0.067 C 
ATOM      2  C   LIG    1       24.808 -21.695   4.877  0.00  0.00    +0.059 C 
ATOM      3  N   LIG    1       25.766 -20.672   4.881  0.00  0.00    -0.282 N 
ATOM      4  C   LIG    1       25.369 -19.319   4.465  0.00  0.00    +0.171 C 
ATOM      5  N   LIG    1       26.371 -20.708   6.157  0.00  0.00    -0.216 N 
ATOM      6  C   LIG    1       25.791 -21.734   6.918  0.00  0.00    +0.293 C 
ATOM      7  O   LIG    1       26.073 -22.100   8.049  0.00  0.00    -0.264 OA
ATOM      8  C   LIG    1       24.742 -22.396   6.029  0.00  0.00    +0.117 C 
ENDROOT
BRANCH   5   9
ATOM      9  C   LIG    1       27.698 -20.253   6.348  0.00  0.00    +0.067 A 
ATOM     10  C   LIG    1       28.210 -19.215   5.562  0.00  0.00    +0.028 A 
ATOM     11  C   LIG    1       29.519 -18.763   5.743  0.00  0.00    +0.002 A 
ATOM     12  C   LIG    1       30.322 -19.326   6.733  0.00  0.00    +0.000 A 
ATOM     13  C   LIG    1       29.822 -20.352   7.531  0.00  0.00    +0.002 A 
ATOM     14  C   LIG    1       28.522 -20.822   7.330  0.00  0.00    +0.028 A 
ENDBRANCH   5   9
BRANCH   8  15
ATOM     15  N   LIG    1       23.968 -23.479   6.436  0.00  0.00    -0.330 N 
ATOM     16  C   LIG    1       22.556 -23.320   6.784  0.00  0.00    +0.129 C 
ATOM     17  C   LIG    1       24.441 -24.856   6.389  0.00  0.00    +0.129 C 
ENDBRANCH   8  15
TORSDOF 2
ENDMDL
MODEL 7
REMARK VINA RESULT:      -6.2      2.580      4.952
REMARK  Name = *****
REMARK                            x       y       z     vdW  Elec       q    Type
REMARK                         _______ _______ _______ _____ _____    ______ ____
ROOT
ATOM      1  C   LIG    1       26.900 -19.760   5.561  0.00  0.00    +0.067 C 
ATOM      2  C   LIG    1       25.909 -20.865   5.748  0.00  0.00    +0.059 C 
ATOM      3  N   LIG    1       26.354 -22.102   6.232  0.00  0.00    -0.282 N 
ATOM      4  C   LIG    1       27.108 -22.147   7.493  0.00  0.00    +0.171 C 
ATOM      5  N   LIG    1       25.227 -22.953   6.227  0.00  0.00    -0.216 N 
ATOM      6  C   LIG    1       24.113 -22.246   5.749  0.00  0.00    +0.293 C 
ATOM      7  O   LIG    1       22.976 -22.649   5.561  0.00  0.00    -0.264 OA
ATOM      8  C   LIG    1       24.599 -20.838   5.421  0.00  0.00    +0.117 C 
ENDROOT
BRANCH   5   9
ATOM      9  C   LIG    1       25.372 -24.356   6.098  0.00  0.00    +0.067 A 
ATOM     10  C   LIG    1       25.718 -25.136   7.207  0.00  0.00    +0.028 A 
ATOM     11  C   LIG    1       25.866 -26.520   7.086  0.00  0.00    +0.002 A 
ATOM     12  C   LIG    1       25.642 -27.142   5.859  0.00  0.00    +0.000 A 
ATOM     13  C   LIG    1       25.285 -26.379   4.750  0.00  0.00    +0.002 A 
ATOM     14  C   LIG    1       25.166 -24.992   4.865  0.00  0.00    +0.028 A 
ENDBRANCH   5   9
BRANCH   8  15
ATOM     15  N   LIG    1       23.774 -19.847   4.897  0.00  0.00    -0.330 N 
ATOM     16  C   LIG    1       24.036 -19.251   3.586  0.00  0.00    +0.129 C 
ATOM     17  C   LIG    1       22.517 -19.449   5.516  0.00  0.00    +0.129 C 
ENDBRANCH   8  15
TORSDOF 2
ENDMDL
MODEL 8
REMARK VINA RESULT:      -6.2      2.419      6.055
REMARK  Name = *****
REMARK                            x       y       z     vdW  Elec       q    Type
REMARK                         _______ _______ _______ _____ _____    ______ ____
ROOT
ATOM      1  C   LIG    1       29.230 -18.225   5.789  0.00  0.00    +0.067 C 
ATOM      2  C   LIG    1       28.653 -19.439   6.445  0.00  0.00    +0.059 C 
ATOM      3  N   LIG    1       27.462 -19.980   5.944  0.00  0.00    -0.282 N 
ATOM      4  C   LIG    1       27.379 -20.330   4.519  0.00  0.00    +0.171 C 
ATOM      5  N   LIG    1       27.128 -21.052   6.801  0.00  0.00    -0.216 N 
ATOM      6  C   LIG    1       28.100 -21.164   7.806  0.00  0.00    +0.293 C 
ATOM      7  O   LIG    1       28.139 -21.938   8.750  0.00  0.00    -0.264 OA
ATOM      8  C   LIG    1       29.118 -20.056   7.552  0.00  0.00    +0.117 C 
ENDROOT
BRANCH   5   9
ATOM      9  C   LIG    1       25.782 -21.458   6.972  0.00  0.00    +0.067 A 
ATOM     10  C   LIG    1       24.799 -20.522   7.310  0.00  0.00    +0.028 A 
ATOM     11  C   LIG    1       23.469 -20.917   7.483  0.00  0.00    +0.002 A 
ATOM     12  C   LIG    1       23.105 -22.248   7.291  0.00  0.00    +0.000 A 
ATOM     13  C   LIG    1       24.072 -23.188   6.942  0.00  0.00    +0.002 A 
ATOM     14  C   LIG    1       25.405 -22.798   6.798  0.00  0.00    +0.028 A 
ENDBRANCH   5   9
BRANCH   8  15
ATOM     15  N   LIG    1       30.226 -19.834   8.365  0.00  0.00    -0.330 N 
ATOM     16  C   LIG    1       30.388 -18.585   9.110  0.00  0.00    +0.129 C 
ATOM     17  C   LIG    1       31.208 -20.866   8.669  0.00  0.00    +0.129 C 
ENDBRANCH   8  15
TORSDOF 2
ENDMDL
MODEL 9
REMARK VINA RESULT:      -6.2      2.260      4.352
REMARK  Name = *****
REMARK                            x       y       z     vdW  Elec       q    Type
REMARK                         _______ _______ _______ _____ _____    ______ ____
ROOT
ATOM      1  C   LIG    1       25.387 -18.674   3.491  0.00  0.00    +0.067 C 
ATOM      2  C   LIG    1       24.768 -19.694   4.392  0.00  0.00    +0.059 C 
ATOM      3  N   LIG    1       25.572 -20.715   4.915  0.00  0.00    -0.282 N 
ATOM      4  C   LIG    1       26.796 -20.359   5.647  0.00  0.00    +0.171 C 
ATOM      5  N   LIG    1       24.708 -21.555   5.653  0.00  0.00    -0.216 N 
ATOM      6  C   LIG    1       23.399 -21.053   5.582  0.00  0.00    +0.293 C 
ATOM      7  O   LIG    1       22.375 -21.521   6.053  0.00  0.00    -0.264 OA
ATOM      8  C   LIG    1       23.461 -19.798   4.716  0.00  0.00    +0.117 C 
ENDROOT
BRANCH   5   9
ATOM      9  C   LIG    1       25.006 -22.927   5.837  0.00  0.00    +0.067 A 
ATOM     10  C   LIG    1       24.820 -23.837   4.791  0.00  0.00    +0.028 A 
ATOM     11  C   LIG    1       25.110 -25.193   4.968  0.00  0.00    +0.002 A 
ATOM     12  C   LIG    1       25.615 -25.648   6.185  0.00  0.00    +0.000 A 
ATOM     13  C   LIG    1       25.815 -24.750   7.230  0.00  0.00    +0.002 A 
ATOM     14  C   LIG    1       25.499 -23.400   7.062  0.00  0.00    +0.028 A 
ENDBRANCH   5   9
BRANCH   8  15
ATOM     15  N   LIG    1       22.343 -19.032   4.398  0.00  0.00    -0.330 N 
ATOM     16  C   LIG    1       21.111 -19.650   3.905  0.00  0.00    +0.129 C 
ATOM     17  C   LIG    1       22.249 -17.607   4.682  0.00  0.00    +0.129 C 
ENDBRANCH   8  15
TORSDOF 2
ENDMDL
