MODEL 1
REMARK VINA RESULT:      -8.1      0.000      0.000
REMARK  Name = *****
REMARK                            x       y       z     vdW  Elec       q    Type
REMARK                         _______ _______ _______ _____ _____    ______ ____
ROOT
ATOM      1  C   LIG    1       29.787 -20.683   7.223  0.00  0.00    +0.084 C 
ATOM      2  C   LIG    1       30.171 -19.398   7.165  0.00  0.00    +0.128 C 
ATOM      3 CL   LIG    1       29.541 -18.249   6.047  0.00  0.00    -0.076 Cl
ATOM      4  C   LIG    1       31.209 -18.914   8.123  0.00  0.00    +0.273 C 
ATOM      5  O   LIG    1       31.619 -17.758   8.134  0.00  0.00    -0.266 OA
ATOM      6  N   LIG    1       31.688 -19.842   9.009  0.00  0.00    -0.274 N 
ATOM      7  H   LIG    1       32.386 -19.536   9.670  0.00  0.00    +0.173 HD
ATOM      8  C   LIG    1       31.314 -21.153   9.062  0.00  0.00    +0.327 C 
ATOM      9  O   LIG    1       31.805 -21.933   9.873  0.00  0.00    -0.247 OA
ATOM     10  N   LIG    1       30.363 -21.526   8.159  0.00  0.00    -0.307 N 
ATOM     11  H   LIG    1       30.078 -22.513   8.161  0.00  0.00    +0.170 HD
ENDROOT
BRANCH   1  12
ATOM     12  C   LIG    1       28.737 -21.315   6.332  0.00  0.00    +0.280 C 
BRANCH  12  16
ATOM     13  N   LIG    1       26.412 -20.092   4.951  0.00  0.00    -0.104 NA
ATOM     14  H   LIG    1       25.477 -19.782   4.660  0.00  0.00    +0.363 HD
ATOM     15  C   LIG    1       26.368 -20.541   6.156  0.00  0.00    +0.281 C 
ATOM     16  N   LIG    1       27.422 -21.037   6.866  0.00  0.00    -0.219 N 
ATOM     17  C   LIG    1       27.051 -21.410   8.215  0.00  0.00    +0.226 C 
ATOM     18  C   LIG    1       25.726 -20.660   8.401  0.00  0.00    +0.056 C 
ATOM     19  C   LIG    1       25.119 -20.575   6.998  0.00  0.00    +0.131 C 
ENDBRANCH  12  16
ENDBRANCH   1  12
TORSDOF 2
ENDMDL
MODEL 2
REMARK VINA RESULT:      -8.0      4.032      5.632
REMARK  Name = *****
REMARK                            x       y       z     vdW  Elec       q    Type
REMARK                         _______ _______ _______ _____ _____    ______ ____
ROOT
ATOM      1  C   LIG    1       25.367 -21.327   6.430  0.00  0.00    +0.084 C 
ATOM      2  C   LIG    1       26.577 -20.764   6.587  0.00  0.00    +0.128 C 
ATOM      3 CL   LIG    1       27.541 -20.923   8.006  0.00  0.00    -0.076 Cl
ATOM      4  C   LIG    1       27.139 -19.946   5.472  0.00  0.00    +0.273 C 
ATOM      5  O   LIG    1       28.233 -19.395   5.536  0.00  0.00    -0.266 OA
ATOM      6  N   LIG    1       26.360 -19.843   4.351  0.00  0.00    -0.274 N 
ATOM      7  H   LIG    1       26.723 -19.300   3.582  0.00  0.00    +0.173 HD
ATOM      8  C   LIG    1       25.125 -20.398   4.191  0.00  0.00    +0.327 C 
ATOM      9  O   LIG    1       24.474 -20.243   3.161  0.00  0.00    -0.247 OA
ATOM     10  N   LIG    1       24.672 -21.131   5.248  0.00  0.00    -0.307 N 
ATOM     11  H   LIG    1       23.735 -21.542   5.165  0.00  0.00    +0.170 HD
ENDROOT
BRANCH   1  12
ATOM     12  C   LIG    1       24.674 -22.194   7.461  0.00  0.00    +0.280 C 
BRANCH  12  16
ATOM     13  N   LIG    1       22.371 -23.894   6.678  0.00  0.00    -0.104 NA
ATOM     14  H   LIG    1       21.755 -24.618   6.288  0.00  0.00    +0.363 HD
ATOM     15  C   LIG    1       23.597 -24.277   6.598  0.00  0.00    +0.281 C 
ATOM     16  N   LIG    1       24.686 -23.571   7.018  0.00  0.00    -0.219 N 
ATOM     17  C   LIG    1       25.922 -24.303   6.836  0.00  0.00    +0.226 C 
ATOM     18  C   LIG    1       25.418 -25.742   6.664  0.00  0.00    +0.056 C 
ATOM     19  C   LIG    1       24.032 -25.603   6.030  0.00  0.00    +0.131 C 
ENDBRANCH  12  16
ENDBRANCH   1  12
TORSDOF 2
ENDMDL
MODEL 3
REMARK VINA RESULT:      -7.9      4.161      5.524
REMARK  Name = *****
REMARK                            x       y       z     vdW  Elec       q    Type
REMARK                         _______ _______ _______ _____ _____    ______ ____
ROOT
ATOM      1  C   LIG    1       25.372 -21.316   6.394  0.00  0.00    +0.084 C 
ATOM      2  C   LIG    1       24.750 -20.783   5.330  0.00  0.00    +0.128 C 
ATOM      3 CL   LIG    1       23.082 -21.013   4.969  0.00  0.00    -0.076 Cl
ATOM      4  C   LIG    1       25.537 -19.932   4.389  0.00  0.00    +0.273 C 
ATOM      5  O   LIG    1       25.047 -19.412   3.392  0.00  0.00    -0.266 OA
ATOM      6  N   LIG    1       26.858 -19.753   4.702  0.00  0.00    -0.274 N 
ATOM      7  H   LIG    1       27.408 -19.177   4.084  0.00  0.00    +0.173 HD
ATOM      8  C   LIG    1       27.500 -20.305   5.772  0.00  0.00    +0.327 C 
ATOM      9  O   LIG    1       28.696 -20.117   5.976  0.00  0.00    -0.247 OA
ATOM     10  N   LIG    1       26.721 -21.070   6.589  0.00  0.00    -0.307 N 
ATOM     11  H   LIG    1       27.183 -21.517   7.391  0.00  0.00    +0.170 HD
ENDROOT
BRANCH   1  12
ATOM     12  C   LIG    1       24.706 -22.183   7.443  0.00  0.00    +0.280 C 
BRANCH  12  16
ATOM     13  N   LIG    1       22.392 -23.881   6.691  0.00  0.00    -0.104 NA
ATOM     14  H   LIG    1       21.769 -24.604   6.309  0.00  0.00    +0.363 HD
ATOM     15  C   LIG    1       23.616 -24.266   6.597  0.00  0.00    +0.281 C 
ATOM     16  N   LIG    1       24.711 -23.561   7.002  0.00  0.00    -0.219 N 
ATOM     17  C   LIG    1       25.944 -24.295   6.807  0.00  0.00    +0.226 C 
ATOM     18  C   LIG    1       25.435 -25.733   6.643  0.00  0.00    +0.056 C 
ATOM     19  C   LIG    1       24.042 -25.593   6.026  0.00  0.00    +0.131 C 
ENDBRANCH  12  16
ENDBRANCH   1  12
TORSDOF 2
ENDMDL
MODEL 4
REMARK VINA RESULT:      -7.7      3.382      4.868
REMARK  Name = *****
REMARK                            x       y       z     vdW  Elec       q    Type
REMARK                         _______ _______ _______ _____ _____    ______ ____
ROOT
ATOM      1  C   LIG    1       25.657 -21.017   6.038  0.00  0.00    +0.084 C 
ATOM      2  C   LIG    1       25.266 -21.000   7.323  0.00  0.00    +0.128 C 
ATOM      3 CL   LIG    1       23.673 -21.381   7.855  0.00  0.00    -0.076 Cl
ATOM      4  C   LIG    1       26.262 -20.630   8.372  0.00  0.00    +0.273 C 
ATOM      5  O   LIG    1       25.986 -20.585   9.567  0.00  0.00    -0.266 OA
ATOM      6  N   LIG    1       27.524 -20.342   7.927  0.00  0.00    -0.274 N 
ATOM      7  H   LIG    1       28.215 -20.095   8.619  0.00  0.00    +0.173 HD
ATOM      8  C   LIG    1       27.923 -20.342   6.623  0.00  0.00    +0.327 C 
ATOM      9  O   LIG    1       29.071 -20.050   6.298  0.00  0.00    -0.247 OA
ATOM     10  N   LIG    1       26.963 -20.688   5.719  0.00  0.00    -0.307 N 
ATOM     11  H   LIG    1       27.230 -20.675   4.726  0.00  0.00    +0.170 HD
ENDROOT
BRANCH   1  12
ATOM     12  C   LIG    1       24.769 -21.387   4.867  0.00  0.00    +0.280 C 
BRANCH  12  16
ATOM     13  N   LIG    1       25.476 -18.879   3.447  0.00  0.00    -0.104 NA
ATOM     14  H   LIG    1       25.469 -18.001   2.913  0.00  0.00    +0.363 HD
ATOM     15  C   LIG    1       24.279 -19.174   3.817  0.00  0.00    +0.281 C 
ATOM     16  N   LIG    1       23.911 -20.269   4.541  0.00  0.00    -0.219 N 
ATOM     17  C   LIG    1       22.494 -20.282   4.841  0.00  0.00    +0.226 C 
ATOM     18  C   LIG    1       22.103 -18.820   4.595  0.00  0.00    +0.056 C 
ATOM     19  C   LIG    1       23.070 -18.327   3.516  0.00  0.00    +0.131 C 
ENDBRANCH  12  16
ENDBRANCH   1  12
TORSDOF 2
ENDMDL
MODEL 5
REMARK VINA RESULT:      -7.4      3.538      4.998
REMARK  Name = *****
REMARK                            x       y       z     vdW  Elec       q    Type
REMARK                         _______ _______ _______ _____ _____    ______ ____
ROOT
ATOM      1  C   LIG    1       25.683 -21.030   5.999  0.00  0.00    +0.084 C 
ATOM      2  C   LIG    1       25.284 -20.987   7.281  0.00  0.00    +0.128 C 
ATOM      3 CL   LIG    1       23.694 -21.384   7.813  0.00  0.00    -0.076 Cl
ATOM      4  C   LIG    1       26.266 -20.572   8.325  0.00  0.00    +0.273 C 
ATOM      5  O   LIG    1       25.983 -20.502   9.516  0.00  0.00    -0.266 OA
ATOM      6  N   LIG    1       27.526 -20.272   7.880  0.00  0.00    -0.274 N 
ATOM      7  H   LIG    1       28.208 -19.994   8.569  0.00  0.00    +0.173 HD
ATOM      8  C   LIG    1       27.933 -20.297   6.578  0.00  0.00    +0.327 C 
ATOM      9  O   LIG    1       29.076 -19.993   6.252  0.00  0.00    -0.247 OA
ATOM     10  N   LIG    1       26.985 -20.684   5.678  0.00  0.00    -0.307 N 
ATOM     11  H   LIG    1       27.256 -20.692   4.687  0.00  0.00    +0.170 HD
ENDROOT
BRANCH   1  12
ATOM     12  C   LIG    1       24.809 -21.446   4.833  0.00  0.00    +0.280 C 
BRANCH  12  16
ATOM     13  N   LIG    1       21.847 -21.425   5.006  0.00  0.00    -0.104 NA
ATOM     14  H   LIG    1       20.855 -21.164   5.068  0.00  0.00    +0.363 HD
ATOM     15  C   LIG    1       22.547 -20.396   4.678  0.00  0.00    +0.281 C 
ATOM     16  N   LIG    1       23.900 -20.370   4.504  0.00  0.00    -0.219 N 
ATOM     17  C   LIG    1       24.377 -19.069   4.083  0.00  0.00    +0.226 C 
ATOM     18  C   LIG    1       23.090 -18.405   3.579  0.00  0.00    +0.056 C 
ATOM     19  C   LIG    1       21.968 -19.031   4.412  0.00  0.00    +0.131 C 
ENDBRANCH  12  16
ENDBRANCH   1  12
TORSDOF 2
ENDMDL
MODEL 6
REMARK VINA RESULT:      -7.0      3.401      4.767
REMARK  Name = *****
REMARK                            x       y       z     vdW  Elec       q    Type
REMARK                         _______ _______ _______ _____ _____    ______ ____
ROOT
ATOM      1  C   LIG    1       26.647 -21.343   6.773  0.00  0.00    +0.084 C 
ATOM      2  C   LIG    1       27.838 -20.723   6.783  0.00  0.00    +0.128 C 
ATOM      3 CL   LIG    1       29.056 -20.987   7.972  0.00  0.00    -0.076 Cl
ATOM      4  C   LIG    1       28.146 -19.740   5.703  0.00  0.00    +0.273 C 
ATOM      5  O   LIG    1       29.207 -19.128   5.641  0.00  0.00    -0.266 OA
ATOM      6  N   LIG    1       27.168 -19.554   4.762  0.00  0.00    -0.274 N 
ATOM      7  H   LIG    1       27.356 -18.899   4.019  0.00  0.00    +0.173 HD
ATOM      8  C   LIG    1       25.950 -20.168   4.755  0.00  0.00    +0.327 C 
ATOM      9  O   LIG    1       25.112 -19.934   3.889  0.00  0.00    -0.247 OA
ATOM     10  N   LIG    1       25.736 -21.052   5.771  0.00  0.00    -0.307 N 
ATOM     11  H   LIG    1       24.818 -21.514   5.804  0.00  0.00    +0.170 HD
ENDROOT
BRANCH   1  12
ATOM     12  C   LIG    1       26.197 -22.374   7.788  0.00  0.00    +0.280 C 
BRANCH  12  16
ATOM     13  N   LIG    1       23.360 -21.514   7.920  0.00  0.00    -0.104 NA
ATOM     14  H   LIG    1       22.352 -21.383   7.773  0.00  0.00    +0.363 HD
ATOM     15  C   LIG    1       23.753 -22.579   7.312  0.00  0.00    +0.281 C 
ATOM     16  N   LIG    1       25.028 -23.063   7.289  0.00  0.00    -0.219 N 
ATOM     17  C   LIG    1       25.130 -24.311   6.561  0.00  0.00    +0.226 C 
ATOM     18  C   LIG    1       23.670 -24.776   6.518  0.00  0.00    +0.056 C 
ATOM     19  C   LIG    1       22.843 -23.488   6.528  0.00  0.00    +0.131 C 
ENDBRANCH  12  16
ENDBRANCH   1  12
TORSDOF 2
ENDMDL
MODEL 7
REMARK VINA RESULT:      -6.8      1.905      2.573
REMARK  Name = *****
REMARK                            x       y       z     vdW  Elec       q    Type
REMARK                         _______ _______ _______ _____ _____    ______ ____
ROOT
ATOM      1  C   LIG    1       29.277 -20.863   7.412  0.00  0.00    +0.084 C 
ATOM      2  C   LIG    1       30.280 -20.847   8.305  0.00  0.00    +0.128 C 
ATOM      3 CL   LIG    1       30.619 -22.131   9.403  0.00  0.00    -0.076 Cl
ATOM      4  C   LIG    1       31.170 -19.650   8.364  0.00  0.00    +0.273 C 
ATOM      5  O   LIG    1       32.105 -19.553   9.152  0.00  0.00    -0.266 OA
ATOM      6  N   LIG    1       30.888 -18.647   7.475  0.00  0.00    -0.274 N 
ATOM      7  H   LIG    1       31.480 -17.831   7.493  0.00  0.00    +0.173 HD
ATOM      8  C   LIG    1       29.861 -18.650   6.577  0.00  0.00    +0.327 C 
ATOM      9  O   LIG    1       29.657 -17.702   5.825  0.00  0.00    -0.247 OA
ATOM     10  N   LIG    1       29.089 -19.774   6.578  0.00  0.00    -0.307 N 
ATOM     11  H   LIG    1       28.294 -19.795   5.927  0.00  0.00    +0.170 HD
ENDROOT
BRANCH   1  12
ATOM     12  C   LIG    1       28.304 -22.009   7.222  0.00  0.00    +0.280 C 
BRANCH  12  16
ATOM     13  N   LIG    1       26.607 -20.639   5.209  0.00  0.00    -0.104 NA
ATOM     14  H   LIG    1       25.831 -20.243   4.665  0.00  0.00    +0.363 HD
ATOM     15  C   LIG    1       26.194 -20.967   6.383  0.00  0.00    +0.281 C 
ATOM     16  N   LIG    1       26.950 -21.523   7.373  0.00  0.00    -0.219 N 
ATOM     17  C   LIG    1       26.199 -21.723   8.595  0.00  0.00    +0.226 C 
ATOM     18  C   LIG    1       24.992 -20.801   8.382  0.00  0.00    +0.056 C 
ATOM     19  C   LIG    1       24.781 -20.769   6.866  0.00  0.00    +0.131 C 
ENDBRANCH  12  16
ENDBRANCH   1  12
TORSDOF 2
ENDMDL
MODEL 8
REMARK VINA RESULT:      -6.7      3.324      5.346
REMARK  Name = *****
REMARK                            x       y       z     vdW  Elec       q    Type
REMARK                         _______ _______ _______ _____ _____    ______ ____
ROOT
ATOM      1  C   LIG    1       26.666 -20.308   6.200  0.00  0.00    +0.084 C 
ATOM      2  C   LIG    1       25.462 -20.449   5.622  0.00  0.00    +0.128 C 
ATOM      3 CL   LIG    1       25.185 -20.352   3.925  0.00  0.00    -0.076 Cl
ATOM      4  C   LIG    1       24.275 -20.709   6.490  0.00  0.00    +0.273 C 
ATOM      5  O   LIG    1       23.141 -20.846   6.044  0.00  0.00    -0.266 OA
ATOM      6  N   LIG    1       24.520 -20.794   7.834  0.00  0.00    -0.274 N 
ATOM      7  H   LIG    1       23.734 -20.975   8.439  0.00  0.00    +0.173 HD
ATOM      8  C   LIG    1       25.737 -20.635   8.428  0.00  0.00    +0.327 C 
ATOM      9  O   LIG    1       25.876 -20.703   9.647  0.00  0.00    -0.247 OA
ATOM     10  N   LIG    1       26.776 -20.400   7.577  0.00  0.00    -0.307 N 
ATOM     11  H   LIG    1       27.702 -20.254   7.999  0.00  0.00    +0.170 HD
ENDROOT
BRANCH   1  12
ATOM     12  C   LIG    1       27.961 -20.058   5.454  0.00  0.00    +0.280 C 
BRANCH  12  16
ATOM     13  N   LIG    1       29.380 -21.796   7.397  0.00  0.00    -0.104 NA
ATOM     14  H   LIG    1       30.045 -22.211   8.061  0.00  0.00    +0.363 HD
ATOM     15  C   LIG    1       29.665 -20.554   7.213  0.00  0.00    +0.281 C 
ATOM     16  N   LIG    1       28.996 -19.691   6.396  0.00  0.00    -0.219 N 
ATOM     17  C   LIG    1       29.535 -18.348   6.452  0.00  0.00    +0.226 C 
ATOM     18  C   LIG    1       30.344 -18.384   7.755  0.00  0.00    +0.056 C 
ATOM     19  C   LIG    1       30.799 -19.839   7.899  0.00  0.00    +0.131 C 
ENDBRANCH  12  16
ENDBRANCH   1  12
TORSDOF 2
ENDMDL
MODEL 9
REMARK VINA RESULT:      -6.7      4.578      6.607
REMARK  Name = *****
REMARK                            x       y       z     vdW  Elec       q    Type
REMARK                         _______ _______ _______ _____ _____    ______ ____
ROOT
ATOM      1  C   LIG    1       24.628 -20.456   4.556  0.00  0.00    +0.084 C 
ATOM      2  C   LIG    1       23.328 -20.128   4.628  0.00  0.00    +0.128 C 
ATOM      3 CL   LIG    1       22.107 -21.149   5.287  0.00  0.00    -0.076 Cl
ATOM      4  C   LIG    1       22.893 -18.798   4.108  0.00  0.00    +0.273 C 
ATOM      5  O   LIG    1       21.725 -18.423   4.132  0.00  0.00    -0.266 OA
ATOM      6  N   LIG    1       23.882 -17.999   3.600  0.00  0.00    -0.274 N 
ATOM      7  H   LIG    1       23.612 -17.093   3.248  0.00  0.00    +0.173 HD
ATOM      8  C   LIG    1       25.201 -18.332   3.509  0.00  0.00    +0.327 C 
ATOM      9  O   LIG    1       26.029 -17.570   3.018  0.00  0.00    -0.247 OA
ATOM     10  N   LIG    1       25.528 -19.561   4.001  0.00  0.00    -0.307 N 
ATOM     11  H   LIG    1       26.511 -19.849   3.927  0.00  0.00    +0.170 HD
ENDROOT
BRANCH   1  12
ATOM     12  C   LIG    1       25.222 -21.758   5.054  0.00  0.00    +0.280 C 
BRANCH  12  16
ATOM     13  N   LIG    1       27.773 -20.548   5.970  0.00  0.00    -0.104 NA
ATOM     14  H   LIG    1       28.527 -20.101   6.506  0.00  0.00    +0.363 HD
ATOM     15  C   LIG    1       26.848 -20.949   6.771  0.00  0.00    +0.281 C 
ATOM     16  N   LIG    1       25.696 -21.584   6.410  0.00  0.00    -0.219 N 
ATOM     17  C   LIG    1       24.888 -21.952   7.554  0.00  0.00    +0.226 C 
ATOM     18  C   LIG    1       25.902 -21.867   8.701  0.00  0.00    +0.056 C 
ATOM     19  C   LIG    1       26.901 -20.791   8.268  0.00  0.00    +0.131 C 
ENDBRANCH  12  16
ENDBRANCH   1  12
TORSDOF 2
ENDMDL
