MODEL 1
REMARK VINA RESULT:      -4.7      0.000      0.000
REMARK  Name = *****
REMARK                            x       y       z     vdW  Elec       q    Type
REMARK                         _______ _______ _______ _____ _____    ______ ____
ROOT
ATOM      1  C   LIG    1       31.503 -18.831   8.878  0.00  0.00    +0.387 C 
ATOM      2  F   LIG    1       30.188 -18.958   8.575  0.00  0.00    -0.172 F 
ATOM      3  F   LIG    1       32.145 -18.477   7.733  0.00  0.00    -0.172 F 
ENDROOT
BRANCH   1   4
ATOM      4  C   LIG    1       31.739 -17.774   9.966  0.00  0.00    +0.270 C 
ATOM      5 CL   LIG    1       30.268 -17.467  10.944  0.00  0.00    -0.095 Cl
ATOM      6 CL   LIG    1       32.298 -16.218   9.275  0.00  0.00    -0.095 Cl
ENDBRANCH   1   4
BRANCH   1   8
ATOM      7  C   LIG    1       31.130 -21.154   8.868  0.00  0.00    +0.200 C 
ATOM      8  O   LIG    1       32.007 -20.110   9.263  0.00  0.00    -0.321 OA
ENDBRANCH   1   8
TORSDOF 2
ENDMDL
MODEL 2
REMARK VINA RESULT:      -4.6      8.874      9.573
REMARK  Name = *****
REMARK                            x       y       z     vdW  Elec       q    Type
REMARK                         _______ _______ _______ _____ _____    ______ ____
ROOT
ATOM      1  C   LIG    1       22.766 -20.449   5.518  0.00  0.00    +0.387 C 
ATOM      2  F   LIG    1       21.698 -21.141   5.053  0.00  0.00    -0.172 F 
ATOM      3  F   LIG    1       22.366 -19.161   5.688  0.00  0.00    -0.172 F 
ENDROOT
BRANCH   1   4
ATOM      4  C   LIG    1       23.284 -21.023   6.844  0.00  0.00    +0.270 C 
ATOM      5 CL   LIG    1       25.026 -20.681   7.096  0.00  0.00    -0.095 Cl
ATOM      6 CL   LIG    1       23.029 -22.792   6.952  0.00  0.00    -0.095 Cl
ENDBRANCH   1   4
BRANCH   1   8
ATOM      7  C   LIG    1       23.761 -19.236   3.764  0.00  0.00    +0.200 C 
ATOM      8  O   LIG    1       23.777 -20.443   4.510  0.00  0.00    -0.321 OA
ENDBRANCH   1   8
TORSDOF 2
ENDMDL
MODEL 3
REMARK VINA RESULT:      -4.5      9.119      9.806
REMARK  Name = *****
REMARK                            x       y       z     vdW  Elec       q    Type
REMARK                         _______ _______ _______ _____ _____    ______ ____
ROOT
ATOM      1  C   LIG    1       22.714 -20.839   5.270  0.00  0.00    +0.387 C 
ATOM      2  F   LIG    1       21.503 -21.379   4.992  0.00  0.00    -0.172 F 
ATOM      3  F   LIG    1       22.490 -19.648   5.886  0.00  0.00    -0.172 F 
ENDROOT
BRANCH   1   4
ATOM      4  C   LIG    1       23.553 -21.753   6.174  0.00  0.00    +0.270 C 
ATOM      5 CL   LIG    1       22.618 -23.162   6.771  0.00  0.00    -0.095 Cl
ATOM      6 CL   LIG    1       24.217 -20.871   7.585  0.00  0.00    -0.095 Cl
ENDBRANCH   1   4
BRANCH   1   8
ATOM      7  C   LIG    1       23.601 -19.162   3.878  0.00  0.00    +0.200 C 
ATOM      8  O   LIG    1       23.379 -20.554   4.039  0.00  0.00    -0.321 OA
ENDBRANCH   1   8
TORSDOF 2
ENDMDL
MODEL 4
REMARK VINA RESULT:      -4.5      8.803      9.230
REMARK  Name = *****
REMARK                            x       y       z     vdW  Elec       q    Type
REMARK                         _______ _______ _______ _____ _____    ______ ____
ROOT
ATOM      1  C   LIG    1       22.927 -20.368   5.700  0.00  0.00    +0.387 C 
ATOM      2  F   LIG    1       22.365 -19.143   5.835  0.00  0.00    -0.172 F 
ATOM      3  F   LIG    1       21.945 -21.218   5.299  0.00  0.00    -0.172 F 
ENDROOT
BRANCH   1   4
ATOM      4  C   LIG    1       24.072 -20.361   4.677  0.00  0.00    +0.270 C 
ATOM      5 CL   LIG    1       25.684 -20.389   5.461  0.00  0.00    -0.095 Cl
ATOM      6 CL   LIG    1       23.990 -18.937   3.593  0.00  0.00    -0.095 Cl
ENDBRANCH   1   4
BRANCH   1   8
ATOM      7  C   LIG    1       23.187 -22.211   7.140  0.00  0.00    +0.200 C 
ATOM      8  O   LIG    1       23.366 -20.811   6.985  0.00  0.00    -0.321 OA
ENDBRANCH   1   8
TORSDOF 2
ENDMDL
MODEL 5
REMARK VINA RESULT:      -4.4      7.579      8.449
REMARK  Name = *****
REMARK                            x       y       z     vdW  Elec       q    Type
REMARK                         _______ _______ _______ _____ _____    ______ ____
ROOT
ATOM      1  C   LIG    1       24.338 -21.335   7.215  0.00  0.00    +0.387 C 
ATOM      2  F   LIG    1       25.051 -20.454   6.473  0.00  0.00    -0.172 F 
ATOM      3  F   LIG    1       23.093 -20.812   7.372  0.00  0.00    -0.172 F 
ENDROOT
BRANCH   1   4
ATOM      4  C   LIG    1       24.252 -22.712   6.540  0.00  0.00    +0.270 C 
ATOM      5 CL   LIG    1       22.658 -23.492   6.790  0.00  0.00    -0.095 Cl
ATOM      6 CL   LIG    1       25.529 -23.823   7.126  0.00  0.00    -0.095 Cl
ENDBRANCH   1   4
BRANCH   1   8
ATOM      7  C   LIG    1       26.081 -20.599   8.613  0.00  0.00    +0.200 C 
ATOM      8  O   LIG    1       24.925 -21.416   8.514  0.00  0.00    -0.321 OA
ENDBRANCH   1   8
TORSDOF 2
ENDMDL
MODEL 6
REMARK VINA RESULT:      -4.4      8.023      8.838
REMARK  Name = *****
REMARK                            x       y       z     vdW  Elec       q    Type
REMARK                         _______ _______ _______ _____ _____    ______ ____
ROOT
ATOM      1  C   LIG    1       24.108 -21.037   7.145  0.00  0.00    +0.387 C 
ATOM      2  F   LIG    1       25.169 -20.353   6.653  0.00  0.00    -0.172 F 
ATOM      3  F   LIG    1       23.217 -20.118   7.604  0.00  0.00    -0.172 F 
ENDROOT
BRANCH   1   4
ATOM      4  C   LIG    1       23.452 -21.921   6.075  0.00  0.00    +0.270 C 
ATOM      5 CL   LIG    1       22.193 -21.045   5.148  0.00  0.00    -0.095 Cl
ATOM      6 CL   LIG    1       22.717 -23.393   6.784  0.00  0.00    -0.095 Cl
ENDBRANCH   1   4
BRANCH   1   8
ATOM      7  C   LIG    1       25.956 -21.796   8.389  0.00  0.00    +0.200 C 
ATOM      8  O   LIG    1       24.541 -21.799   8.272  0.00  0.00    -0.321 OA
ENDBRANCH   1   8
TORSDOF 2
ENDMDL
MODEL 7
REMARK VINA RESULT:      -4.3      8.050      8.880
REMARK  Name = *****
REMARK                            x       y       z     vdW  Elec       q    Type
REMARK                         _______ _______ _______ _____ _____    ______ ____
ROOT
ATOM      1  C   LIG    1       24.844 -23.932   6.650  0.00  0.00    +0.387 C 
ATOM      2  F   LIG    1       25.780 -24.650   7.316  0.00  0.00    -0.172 F 
ATOM      3  F   LIG    1       23.635 -24.485   6.939  0.00  0.00    -0.172 F 
ENDROOT
BRANCH   1   4
ATOM      4  C   LIG    1       24.861 -22.453   7.059  0.00  0.00    +0.270 C 
ATOM      5 CL   LIG    1       25.925 -22.151   8.470  0.00  0.00    -0.095 Cl
ATOM      6 CL   LIG    1       23.220 -21.847   7.444  0.00  0.00    -0.095 Cl
ENDBRANCH   1   4
BRANCH   1   8
ATOM      7  C   LIG    1       25.118 -25.471   4.891  0.00  0.00    +0.200 C 
ATOM      8  O   LIG    1       25.056 -24.099   5.248  0.00  0.00    -0.321 OA
ENDBRANCH   1   8
TORSDOF 2
ENDMDL
MODEL 8
REMARK VINA RESULT:      -4.3      9.112      9.913
REMARK  Name = *****
REMARK                            x       y       z     vdW  Elec       q    Type
REMARK                         _______ _______ _______ _____ _____    ______ ____
ROOT
ATOM      1  C   LIG    1       24.921 -25.153   5.661  0.00  0.00    +0.387 C 
ATOM      2  F   LIG    1       24.992 -25.177   4.308  0.00  0.00    -0.172 F 
ATOM      3  F   LIG    1       26.125 -25.573   6.133  0.00  0.00    -0.172 F 
ENDROOT
BRANCH   1   4
ATOM      4  C   LIG    1       24.606 -23.747   6.191  0.00  0.00    +0.270 C 
ATOM      5 CL   LIG    1       25.729 -23.246   7.496  0.00  0.00    -0.095 Cl
ATOM      6 CL   LIG    1       22.928 -23.626   6.806  0.00  0.00    -0.095 Cl
ENDBRANCH   1   4
BRANCH   1   8
ATOM      7  C   LIG    1       24.432 -27.437   5.942  0.00  0.00    +0.200 C 
ATOM      8  O   LIG    1       23.948 -26.110   6.082  0.00  0.00    -0.321 OA
ENDBRANCH   1   8
TORSDOF 2
ENDMDL
MODEL 9
REMARK VINA RESULT:      -4.3      7.895      8.601
REMARK  Name = *****
REMARK                            x       y       z     vdW  Elec       q    Type
REMARK                         _______ _______ _______ _____ _____    ______ ____
ROOT
ATOM      1  C   LIG    1       24.240 -20.906   6.951  0.00  0.00    +0.387 C 
ATOM      2  F   LIG    1       25.405 -20.319   7.318  0.00  0.00    -0.172 F 
ATOM      3  F   LIG    1       23.258 -20.362   7.720  0.00  0.00    -0.172 F 
ENDROOT
BRANCH   1   4
ATOM      4  C   LIG    1       23.932 -20.684   5.464  0.00  0.00    +0.270 C 
ATOM      5 CL   LIG    1       25.360 -20.092   4.556  0.00  0.00    -0.095 Cl
ATOM      6 CL   LIG    1       22.586 -19.527   5.226  0.00  0.00    -0.095 Cl
ENDBRANCH   1   4
BRANCH   1   8
ATOM      7  C   LIG    1       23.171 -22.997   6.800  0.00  0.00    +0.200 C 
ATOM      8  O   LIG    1       24.307 -22.294   7.279  0.00  0.00    -0.321 OA
ENDBRANCH   1   8
TORSDOF 2
ENDMDL
