MODEL 1
REMARK VINA RESULT:      -1.5      0.000      0.000
REMARK  Name = *****
REMARK                            x       y       z     vdW  Elec       q    Type
REMARK                         _______ _______ _______ _____ _____    ______ ____
ROOT
ATOM      1  C   LIG    1       24.246 -21.304   6.344  0.00  0.00    +0.100 C 
ENDROOT
BRANCH   1   2
ATOM      2  C   LIG    1       22.980 -20.938   5.486  0.00  0.00    -0.028 A 
ATOM      3  C   LIG    1       21.985 -21.914   5.230  0.00  0.00    +0.005 A 
ATOM      4  C   LIG    1       20.816 -21.618   4.530  0.00  0.00    +0.000 A 
ATOM      5  C   LIG    1       20.601 -20.328   4.064  0.00  0.00    +0.000 A 
ATOM      6  C   LIG    1       21.556 -19.343   4.304  0.00  0.00    +0.000 A 
ATOM      7  C   LIG    1       22.731 -19.640   5.011  0.00  0.00    +0.005 A 
ENDBRANCH   1   2
BRANCH   1   8
ATOM      8  C   LIG    1       24.699 -22.807   6.147  0.00  0.00    -0.028 A 
ATOM      9  C   LIG    1       24.584 -23.467   4.901  0.00  0.00    +0.005 A 
ATOM     10  C   LIG    1       25.012 -24.792   4.723  0.00  0.00    +0.000 A 
ATOM     11  C   LIG    1       25.554 -25.507   5.777  0.00  0.00    +0.000 A 
ATOM     12  C   LIG    1       25.663 -24.900   7.020  0.00  0.00    +0.000 A 
ATOM     13  C   LIG    1       25.234 -23.577   7.199  0.00  0.00    +0.005 A 
ENDBRANCH   1   8
BRANCH   1  17
ATOM     14  N   LIG    1       24.992 -20.855   8.723  0.00  0.00    -0.328 N 
ATOM     15  H   LIG    1       25.951 -20.859   8.400  0.00  0.00    +0.145 HD
ATOM     16  H   LIG    1       24.796 -20.677   9.697  0.00  0.00    +0.145 HD
ATOM     17  C   LIG    1       23.928 -21.072   7.883  0.00  0.00    +0.226 C 
ATOM     18  O   LIG    1       22.803 -21.051   8.375  0.00  0.00    -0.275 OA
ENDBRANCH   1  17
BRANCH   1  19
ATOM     19  C   LIG    1       25.408 -20.305   5.905  0.00  0.00    +0.028 C 
ATOM     20  C   LIG    1       26.804 -20.930   5.730  0.00  0.00    +0.089 C 
ATOM     21  N   LIG    1       27.514 -20.131   4.721  0.00  0.00    -0.302 NA
ATOM     22  C   LIG    1       26.452 -19.794   3.758  0.00  0.00    +0.085 C 
ATOM     23  C   LIG    1       25.197 -19.531   4.588  0.00  0.00    +0.022 C 
BRANCH  21  24
ATOM     24  C   LIG    1       28.176 -18.919   5.235  0.00  0.00    +0.089 C 
BRANCH  24  25
ATOM     25  C   LIG    1       28.150 -18.802   6.768  0.00  0.00    +0.050 C 
BRANCH  25  26
ATOM     26  C   LIG    1       29.307 -19.534   7.412  0.00  0.00    -0.046 A 
ATOM     27  C   LIG    1       29.316 -20.937   7.473  0.00  0.00    +0.011 A 
ATOM     28  C   LIG    1       30.389 -21.566   8.082  0.00  0.00    -0.002 A 
ATOM     29  C   LIG    1       30.612 -23.006   8.333  0.00  0.00    +0.080 C 
ATOM     30  C   LIG    1       32.039 -22.959   8.886  0.00  0.00    +0.234 C 
ATOM     31  O   LIG    1       32.396 -21.598   9.221  0.00  0.00    -0.491 OA
ATOM     32  C   LIG    1       31.431 -20.835   8.622  0.00  0.00    +0.124 A 
ATOM     33  C   LIG    1       31.458 -19.458   8.571  0.00  0.00    +0.046 A 
ATOM     34  C   LIG    1       30.389 -18.804   7.954  0.00  0.00    +0.007 A 
ENDBRANCH  25  26
ENDBRANCH  24  25
ENDBRANCH  21  24
ENDBRANCH   1  19
TORSDOF 7
ENDMDL
MODEL 2
REMARK VINA RESULT:      -1.5      1.832      2.772
REMARK  Name = *****
REMARK                            x       y       z     vdW  Elec       q    Type
REMARK                         _______ _______ _______ _____ _____    ______ ____
ROOT
ATOM      1  C   LIG    1       23.829 -22.496   5.912  0.00  0.00    +0.100 C 
ENDROOT
BRANCH   1   2
ATOM      2  C   LIG    1       23.803 -21.606   4.616  0.00  0.00    -0.028 A 
ATOM      3  C   LIG    1       23.803 -20.192   4.721  0.00  0.00    +0.005 A 
ATOM      4  C   LIG    1       23.845 -19.363   3.600  0.00  0.00    +0.000 A 
ATOM      5  C   LIG    1       23.891 -19.925   2.330  0.00  0.00    +0.000 A 
ATOM      6  C   LIG    1       23.897 -21.311   2.193  0.00  0.00    +0.000 A 
ATOM      7  C   LIG    1       23.859 -22.144   3.320  0.00  0.00    +0.005 A 
ENDBRANCH   1   2
BRANCH   1   8
ATOM      8  C   LIG    1       24.257 -23.990   5.613  0.00  0.00    -0.028 A 
ATOM      9  C   LIG    1       25.019 -24.337   4.474  0.00  0.00    +0.005 A 
ATOM     10  C   LIG    1       25.420 -25.660   4.226  0.00  0.00    +0.000 A 
ATOM     11  C   LIG    1       25.066 -26.680   5.093  0.00  0.00    +0.000 A 
ATOM     12  C   LIG    1       24.299 -26.381   6.210  0.00  0.00    +0.000 A 
ATOM     13  C   LIG    1       23.897 -25.060   6.457  0.00  0.00    +0.005 A 
ENDBRANCH   1   8
BRANCH   1  17
ATOM     14  N   LIG    1       21.302 -22.529   5.731  0.00  0.00    -0.328 N 
ATOM     15  H   LIG    1       21.396 -22.515   4.724  0.00  0.00    +0.145 HD
ATOM     16  H   LIG    1       20.382 -22.568   6.145  0.00  0.00    +0.145 HD
ATOM     17  C   LIG    1       22.386 -22.509   6.575  0.00  0.00    +0.226 C 
ATOM     18  O   LIG    1       22.165 -22.525   7.783  0.00  0.00    -0.275 OA
ENDBRANCH   1  17
BRANCH   1  19
ATOM     19  C   LIG    1       24.852 -21.811   6.924  0.00  0.00    +0.028 C 
ATOM     20  C   LIG    1       24.224 -21.066   8.116  0.00  0.00    +0.089 C 
ATOM     21  N   LIG    1       25.189 -21.128   9.224  0.00  0.00    -0.302 NA
ATOM     22  C   LIG    1       25.761 -22.478   9.090  0.00  0.00    +0.085 C 
ATOM     23  C   LIG    1       25.892 -22.735   7.590  0.00  0.00    +0.022 C 
BRANCH  21  24
ATOM     24  C   LIG    1       26.239 -20.095   9.197  0.00  0.00    +0.089 C 
BRANCH  24  25
ATOM     25  C   LIG    1       27.041 -20.061   7.884  0.00  0.00    +0.050 C 
BRANCH  25  26
ATOM     26  C   LIG    1       28.531 -20.159   8.129  0.00  0.00    -0.046 A 
ATOM     27  C   LIG    1       29.136 -21.409   8.337  0.00  0.00    +0.011 A 
ATOM     28  C   LIG    1       30.501 -21.452   8.570  0.00  0.00    -0.002 A 
ATOM     29  C   LIG    1       31.363 -22.613   8.878  0.00  0.00    +0.080 C 
ATOM     30  C   LIG    1       32.736 -21.936   8.853  0.00  0.00    +0.234 C 
ATOM     31  O   LIG    1       32.580 -20.498   8.879  0.00  0.00    -0.491 OA
ATOM     32  C   LIG    1       31.256 -20.294   8.600  0.00  0.00    +0.124 A 
ATOM     33  C   LIG    1       30.695 -19.053   8.389  0.00  0.00    +0.046 A 
ATOM     34  C   LIG    1       29.321 -18.988   8.146  0.00  0.00    +0.007 A 
ENDBRANCH  25  26
ENDBRANCH  24  25
ENDBRANCH  21  24
ENDBRANCH   1  19
TORSDOF 7
ENDMDL
MODEL 3
REMARK VINA RESULT:      -0.2      2.514      6.474
REMARK  Name = *****
REMARK                            x       y       z     vdW  Elec       q    Type
REMARK                         _______ _______ _______ _____ _____    ______ ____
ROOT
ATOM      1  C   LIG    1       25.274 -21.144   6.836  0.00  0.00    +0.100 C 
ENDROOT
BRANCH   1   2
ATOM      2  C   LIG    1       26.830 -20.935   6.754  0.00  0.00    -0.028 A 
ATOM      3  C   LIG    1       27.371 -19.925   5.919  0.00  0.00    +0.005 A 
ATOM      4  C   LIG    1       28.739 -19.660   5.863  0.00  0.00    +0.000 A 
ATOM      5  C   LIG    1       29.616 -20.399   6.647  0.00  0.00    +0.000 A 
ATOM      6  C   LIG    1       29.116 -21.395   7.483  0.00  0.00    +0.000 A 
ATOM      7  C   LIG    1       27.739 -21.659   7.542  0.00  0.00    +0.005 A 
ENDBRANCH   1   2
BRANCH   1   8
ATOM      8  C   LIG    1       24.502 -20.421   5.660  0.00  0.00    -0.028 A 
ATOM      9  C   LIG    1       25.141 -20.069   4.449  0.00  0.00    +0.005 A 
ATOM     10  C   LIG    1       24.445 -19.452   3.396  0.00  0.00    +0.000 A 
ATOM     11  C   LIG    1       23.099 -19.155   3.518  0.00  0.00    +0.000 A 
ATOM     12  C   LIG    1       22.442 -19.466   4.700  0.00  0.00    +0.000 A 
ATOM     13  C   LIG    1       23.137 -20.080   5.752  0.00  0.00    +0.005 A 
ENDBRANCH   1   8
BRANCH   1  17
ATOM     14  N   LIG    1       25.651 -20.382   9.223  0.00  0.00    -0.328 N 
ATOM     15  H   LIG    1       26.631 -20.609   9.118  0.00  0.00    +0.145 HD
ATOM     16  H   LIG    1       25.321 -19.991  10.094  0.00  0.00    +0.145 HD
ATOM     17  C   LIG    1       24.736 -20.573   8.218  0.00  0.00    +0.226 C 
ATOM     18  O   LIG    1       23.568 -20.269   8.447  0.00  0.00    -0.275 OA
ENDBRANCH   1  17
BRANCH   1  19
ATOM     19  C   LIG    1       25.015 -22.716   6.797  0.00  0.00    +0.028 C 
ATOM     20  C   LIG    1       23.553 -23.163   6.976  0.00  0.00    +0.089 C 
ATOM     21  N   LIG    1       23.395 -24.433   6.252  0.00  0.00    -0.302 NA
ATOM     22  C   LIG    1       24.231 -24.238   5.056  0.00  0.00    +0.085 C 
ATOM     23  C   LIG    1       25.460 -23.460   5.521  0.00  0.00    +0.022 C 
BRANCH  21  24
ATOM     24  C   LIG    1       23.801 -25.635   7.001  0.00  0.00    +0.089 C 
BRANCH  24  25
ATOM     25  C   LIG    1       23.882 -26.905   6.136  0.00  0.00    +0.050 C 
BRANCH  25  26
ATOM     26  C   LIG    1       25.246 -27.072   5.503  0.00  0.00    -0.046 A 
ATOM     27  C   LIG    1       26.401 -26.653   6.182  0.00  0.00    +0.011 A 
ATOM     28  C   LIG    1       27.629 -26.814   5.560  0.00  0.00    -0.002 A 
ATOM     29  C   LIG    1       28.973 -26.405   6.021  0.00  0.00    +0.080 C 
ATOM     30  C   LIG    1       29.830 -27.032   4.917  0.00  0.00    +0.234 C 
ATOM     31  O   LIG    1       28.996 -27.425   3.804  0.00  0.00    -0.491 OA
ATOM     32  C   LIG    1       27.721 -27.370   4.297  0.00  0.00    +0.124 A 
ATOM     33  C   LIG    1       26.608 -27.800   3.608  0.00  0.00    +0.046 A 
ATOM     34  C   LIG    1       25.361 -27.654   4.220  0.00  0.00    +0.007 A 
ENDBRANCH  25  26
ENDBRANCH  24  25
ENDBRANCH  21  24
ENDBRANCH   1  19
TORSDOF 7
ENDMDL
MODEL 4
REMARK VINA RESULT:       1.3      1.724      6.317
REMARK  Name = *****
REMARK                            x       y       z     vdW  Elec       q    Type
REMARK                         _______ _______ _______ _____ _____    ______ ____
ROOT
ATOM      1  C   LIG    1       27.160 -21.287   7.374  0.00  0.00    +0.100 C 
ENDROOT
BRANCH   1   2
ATOM      2  C   LIG    1       26.763 -22.808   7.340  0.00  0.00    -0.028 A 
ATOM      3  C   LIG    1       26.140 -23.408   8.462  0.00  0.00    +0.005 A 
ATOM      4  C   LIG    1       25.712 -24.736   8.453  0.00  0.00    +0.000 A 
ATOM      5  C   LIG    1       25.893 -25.509   7.314  0.00  0.00    +0.000 A 
ATOM      6  C   LIG    1       26.498 -24.947   6.191  0.00  0.00    +0.000 A 
ATOM      7  C   LIG    1       26.924 -23.611   6.200  0.00  0.00    +0.005 A 
ENDBRANCH   1   2
BRANCH   1   8
ATOM      8  C   LIG    1       28.620 -21.053   7.936  0.00  0.00    -0.028 A 
ATOM      9  C   LIG    1       29.171 -19.758   8.078  0.00  0.00    +0.005 A 
ATOM     10  C   LIG    1       30.457 -19.553   8.602  0.00  0.00    +0.000 A 
ATOM     11  C   LIG    1       31.241 -20.626   8.990  0.00  0.00    +0.000 A 
ATOM     12  C   LIG    1       30.744 -21.913   8.846  0.00  0.00    +0.000 A 
ATOM     13  C   LIG    1       29.460 -22.119   8.320  0.00  0.00    +0.005 A 
ENDBRANCH   1   8
BRANCH   1  17
ATOM     14  N   LIG    1       24.796 -20.662   8.039  0.00  0.00    -0.328 N 
ATOM     15  H   LIG    1       24.454 -21.248   7.289  0.00  0.00    +0.145 HD
ATOM     16  H   LIG    1       24.139 -20.185   8.638  0.00  0.00    +0.145 HD
ATOM     17  C   LIG    1       26.135 -20.493   8.293  0.00  0.00    +0.226 C 
ATOM     18  O   LIG    1       26.448 -19.757   9.225  0.00  0.00    -0.275 OA
ENDBRANCH   1  17
BRANCH   1  19
ATOM     19  C   LIG    1       27.039 -20.741   5.882  0.00  0.00    +0.028 C 
ATOM     20  C   LIG    1       26.023 -19.607   5.658  0.00  0.00    +0.089 C 
ATOM     21  N   LIG    1       26.510 -18.803   4.529  0.00  0.00    -0.302 NA
ATOM     22  C   LIG    1       27.969 -18.800   4.729  0.00  0.00    +0.085 C 
ATOM     23  C   LIG    1       28.328 -20.196   5.235  0.00  0.00    +0.022 C 
BRANCH  21  24
ATOM     24  C   LIG    1       26.153 -19.316   3.195  0.00  0.00    +0.089 C 
BRANCH  24  25
ATOM     25  C   LIG    1       24.640 -19.318   2.917  0.00  0.00    +0.050 C 
BRANCH  25  26
ATOM     26  C   LIG    1       23.883 -20.173   3.909  0.00  0.00    -0.046 A 
ATOM     27  C   LIG    1       24.297 -21.489   4.174  0.00  0.00    +0.011 A 
ATOM     28  C   LIG    1       23.568 -22.242   5.080  0.00  0.00    -0.002 A 
ATOM     29  C   LIG    1       23.748 -23.653   5.484  0.00  0.00    +0.080 C 
ATOM     30  C   LIG    1       22.704 -23.741   6.601  0.00  0.00    +0.234 C 
ATOM     31  O   LIG    1       21.822 -22.595   6.547  0.00  0.00    -0.491 OA
ATOM     32  C   LIG    1       22.456 -21.717   5.711  0.00  0.00    +0.124 A 
ATOM     33  C   LIG    1       22.028 -20.427   5.481  0.00  0.00    +0.046 A 
ATOM     34  C   LIG    1       22.754 -19.648   4.576  0.00  0.00    +0.007 A 
ENDBRANCH  25  26
ENDBRANCH  24  25
ENDBRANCH  21  24
ENDBRANCH   1  19
TORSDOF 7
ENDMDL
