MODEL 1
REMARK VINA RESULT:      -8.5      0.000      0.000
REMARK  Name = *****
REMARK                            x       y       z     vdW  Elec       q    Type
REMARK                         _______ _______ _______ _____ _____    ______ ____
ROOT
ATOM      1  C   LIG    1       28.814 -19.618   5.981  0.00  0.00    +0.138 C 
ATOM      2  N   LIG    1       27.546 -20.117   6.495  0.00  0.00    -0.270 N 
ATOM      3  C   LIG    1       27.440 -20.267   7.884  0.00  0.00    +0.271 C 
ATOM      4  O   LIG    1       28.404 -20.105   8.641  0.00  0.00    -0.270 OA
ATOM      5  C   LIG    1       26.032 -20.593   8.454  0.00  0.00    +0.320 C 
ATOM      6  N   LIG    1       25.753 -21.986   8.137  0.00  0.00    -0.243 NA
ATOM      7  C   LIG    1       25.517 -22.287   6.905  0.00  0.00    +0.079 C 
ATOM      8  C   LIG    1       25.459 -21.300   5.786  0.00  0.00    +0.023 A 
ATOM      9  C   LIG    1       24.394 -21.430   4.874  0.00  0.00    +0.032 A 
ATOM     10  C   LIG    1       24.339 -20.623   3.744  0.00  0.00    +0.042 A 
ATOM     11 CL   LIG    1       23.040 -20.795   2.631  0.00  0.00    -0.084 Cl
ATOM     12  C   LIG    1       25.334 -19.686   3.507  0.00  0.00    +0.022 A 
ATOM     13  C   LIG    1       26.386 -19.542   4.418  0.00  0.00    +0.025 A 
ATOM     14  C   LIG    1       26.461 -20.326   5.586  0.00  0.00    +0.045 A 
ENDROOT
BRANCH   7  15
ATOM     15  C   LIG    1       25.237 -23.723   6.609  0.00  0.00    +0.019 A 
ATOM     16  C   LIG    1       23.947 -24.269   6.582  0.00  0.00    +0.050 A 
ATOM     17 CL   LIG    1       22.519 -23.323   6.812  0.00  0.00    -0.083 Cl
ATOM     18  C   LIG    1       23.776 -25.631   6.315  0.00  0.00    +0.021 A 
ATOM     19  C   LIG    1       24.884 -26.446   6.065  0.00  0.00    +0.002 A 
ATOM     20  C   LIG    1       26.165 -25.900   6.068  0.00  0.00    +0.001 A 
ATOM     21  C   LIG    1       26.343 -24.542   6.333  0.00  0.00    +0.011 A 
ENDBRANCH   7  15
BRANCH   5  22
ATOM     22  O   LIG    1       25.997 -20.347   9.852  0.00  0.00    -0.364 OA
ATOM     23  H   LIG    1       26.820 -20.753  10.177  0.00  0.00    +0.212 HD
ENDBRANCH   5  22
TORSDOF 2
ENDMDL
MODEL 2
REMARK VINA RESULT:      -6.9      2.695      4.857
REMARK  Name = *****
REMARK                            x       y       z     vdW  Elec       q    Type
REMARK                         _______ _______ _______ _____ _____    ______ ____
ROOT
ATOM      1  C   LIG    1       21.956 -22.541   6.750  0.00  0.00    +0.138 C 
ATOM      2  N   LIG    1       23.298 -22.611   6.189  0.00  0.00    -0.270 N 
ATOM      3  C   LIG    1       23.969 -23.835   6.302  0.00  0.00    +0.271 C 
ATOM      4  O   LIG    1       23.508 -24.784   6.948  0.00  0.00    -0.270 OA
ATOM      5  C   LIG    1       25.306 -23.983   5.525  0.00  0.00    +0.320 C 
ATOM      6  N   LIG    1       26.306 -23.205   6.242  0.00  0.00    -0.243 NA
ATOM      7  C   LIG    1       26.217 -21.919   6.194  0.00  0.00    +0.079 C 
ATOM      8  C   LIG    1       25.188 -21.168   5.413  0.00  0.00    +0.023 A 
ATOM      9  C   LIG    1       25.638 -20.066   4.661  0.00  0.00    +0.032 A 
ATOM     10  C   LIG    1       24.725 -19.250   4.003  0.00  0.00    +0.042 A 
ATOM     11 CL   LIG    1       25.281 -17.901   3.096  0.00  0.00    -0.084 Cl
ATOM     12  C   LIG    1       23.366 -19.517   4.085  0.00  0.00    +0.022 A 
ATOM     13  C   LIG    1       22.915 -20.621   4.817  0.00  0.00    +0.025 A 
ATOM     14  C   LIG    1       23.814 -21.482   5.477  0.00  0.00    +0.045 A 
ENDROOT
BRANCH   7  15
ATOM     15  C   LIG    1       27.254 -21.148   6.941  0.00  0.00    +0.019 A 
ATOM     16  C   LIG    1       27.013 -20.521   8.171  0.00  0.00    +0.050 A 
ATOM     17 CL   LIG    1       25.505 -20.633   9.006  0.00  0.00    -0.083 Cl
ATOM     18  C   LIG    1       28.038 -19.801   8.793  0.00  0.00    +0.021 A 
ATOM     19  C   LIG    1       29.300 -19.714   8.201  0.00  0.00    +0.002 A 
ATOM     20  C   LIG    1       29.548 -20.357   6.991  0.00  0.00    +0.001 A 
ATOM     21  C   LIG    1       28.531 -21.077   6.363  0.00  0.00    +0.011 A 
ENDBRANCH   7  15
BRANCH   5  22
ATOM     22  O   LIG    1       25.668 -25.351   5.421  0.00  0.00    -0.364 OA
ATOM     23  H   LIG    1       25.135 -25.783   6.113  0.00  0.00    +0.212 HD
ENDBRANCH   5  22
TORSDOF 2
ENDMDL
MODEL 3
REMARK VINA RESULT:      -6.6      7.579      9.659
REMARK  Name = *****
REMARK                            x       y       z     vdW  Elec       q    Type
REMARK                         _______ _______ _______ _____ _____    ______ ____
ROOT
ATOM      1  C   LIG    1       23.363 -32.384   7.331  0.00  0.00    +0.138 C 
ATOM      2  N   LIG    1       24.585 -31.789   7.854  0.00  0.00    -0.270 N 
ATOM      3  C   LIG    1       25.465 -32.644   8.531  0.00  0.00    +0.271 C 
ATOM      4  O   LIG    1       25.179 -33.819   8.787  0.00  0.00    -0.270 OA
ATOM      5  C   LIG    1       26.860 -32.070   8.904  0.00  0.00    +0.320 C 
ATOM      6  N   LIG    1       26.663 -31.154  10.018  0.00  0.00    -0.243 NA
ATOM      7  C   LIG    1       26.071 -30.033   9.779  0.00  0.00    +0.079 C 
ATOM      8  C   LIG    1       25.617 -29.584   8.428  0.00  0.00    +0.023 A 
ATOM      9  C   LIG    1       25.897 -28.251   8.071  0.00  0.00    +0.032 A 
ATOM     10  C   LIG    1       25.405 -27.729   6.881  0.00  0.00    +0.042 A 
ATOM     11 CL   LIG    1       25.743 -26.098   6.457  0.00  0.00    -0.084 Cl
ATOM     12  C   LIG    1       24.633 -28.518   6.039  0.00  0.00    +0.022 A 
ATOM     13  C   LIG    1       24.366 -29.847   6.382  0.00  0.00    +0.025 A 
ATOM     14  C   LIG    1       24.869 -30.416   7.568  0.00  0.00    +0.045 A 
ENDROOT
BRANCH   7  15
ATOM     15  C   LIG    1       25.880 -29.116  10.940  0.00  0.00    +0.019 A 
ATOM     16  C   LIG    1       24.696 -29.052  11.688  0.00  0.00    +0.050 A 
ATOM     17 CL   LIG    1       23.343 -30.086  11.398  0.00  0.00    -0.083 Cl
ATOM     18  C   LIG    1       24.596 -28.148  12.750  0.00  0.00    +0.021 A 
ATOM     19  C   LIG    1       25.672 -27.319  13.075  0.00  0.00    +0.002 A 
ATOM     20  C   LIG    1       26.858 -27.398  12.350  0.00  0.00    +0.001 A 
ATOM     21  C   LIG    1       26.966 -28.297  11.288  0.00  0.00    +0.011 A 
ENDBRANCH   7  15
BRANCH   5  22
ATOM     22  O   LIG    1       27.755 -33.122   9.230  0.00  0.00    -0.364 OA
ATOM     23  H   LIG    1       28.184 -32.813  10.048  0.00  0.00    +0.212 HD
ENDBRANCH   5  22
TORSDOF 2
ENDMDL
MODEL 4
REMARK VINA RESULT:      -6.2      7.425      9.580
REMARK  Name = *****
REMARK                            x       y       z     vdW  Elec       q    Type
REMARK                         _______ _______ _______ _____ _____    ______ ____
ROOT
ATOM      1  C   LIG    1       24.148 -32.160   5.177  0.00  0.00    +0.138 C 
ATOM      2  N   LIG    1       25.040 -31.659   6.214  0.00  0.00    -0.270 N 
ATOM      3  C   LIG    1       25.802 -32.608   6.907  0.00  0.00    +0.271 C 
ATOM      4  O   LIG    1       25.650 -33.824   6.744  0.00  0.00    -0.270 OA
ATOM      5  C   LIG    1       26.905 -32.070   7.860  0.00  0.00    +0.320 C 
ATOM      6  N   LIG    1       26.233 -31.538   9.036  0.00  0.00    -0.243 NA
ATOM      7  C   LIG    1       25.565 -30.442   8.904  0.00  0.00    +0.079 C 
ATOM      8  C   LIG    1       25.473 -29.651   7.641  0.00  0.00    +0.023 A 
ATOM      9  C   LIG    1       25.625 -28.255   7.750  0.00  0.00    +0.032 A 
ATOM     10  C   LIG    1       25.437 -27.443   6.638  0.00  0.00    +0.042 A 
ATOM     11 CL   LIG    1       25.614 -25.740   6.781  0.00  0.00    -0.084 Cl
ATOM     12  C   LIG    1       25.096 -28.004   5.415  0.00  0.00    +0.022 A 
ATOM     13  C   LIG    1       24.960 -29.391   5.298  0.00  0.00    +0.025 A 
ATOM     14  C   LIG    1       25.167 -30.245   6.398  0.00  0.00    +0.045 A 
ENDROOT
BRANCH   7  15
ATOM     15  C   LIG    1       24.884 -29.922  10.127  0.00  0.00    +0.019 A 
ATOM     16  C   LIG    1       25.549 -29.222  11.142  0.00  0.00    +0.050 A 
ATOM     17 CL   LIG    1       27.225 -28.810  11.061  0.00  0.00    -0.083 Cl
ATOM     18  C   LIG    1       24.836 -28.788  12.265  0.00  0.00    +0.021 A 
ATOM     19  C   LIG    1       23.466 -29.038  12.371  0.00  0.00    +0.002 A 
ATOM     20  C   LIG    1       22.799 -29.712  11.352  0.00  0.00    +0.001 A 
ATOM     21  C   LIG    1       23.503 -30.149  10.229  0.00  0.00    +0.011 A 
ENDBRANCH   7  15
BRANCH   5  22
ATOM     22  O   LIG    1       27.820 -33.103   8.189  0.00  0.00    -0.364 OA
ATOM     23  H   LIG    1       28.671 -32.772   7.851  0.00  0.00    +0.212 HD
ENDBRANCH   5  22
TORSDOF 2
ENDMDL
MODEL 5
REMARK VINA RESULT:      -6.1      7.002     10.191
REMARK  Name = *****
REMARK                            x       y       z     vdW  Elec       q    Type
REMARK                         _______ _______ _______ _____ _____    ______ ____
ROOT
ATOM      1  C   LIG    1       27.409 -33.205   8.269  0.00  0.00    +0.138 C 
ATOM      2  N   LIG    1       26.283 -32.518   7.651  0.00  0.00    -0.270 N 
ATOM      3  C   LIG    1       26.120 -32.684   6.270  0.00  0.00    +0.271 C 
ATOM      4  O   LIG    1       26.950 -33.281   5.574  0.00  0.00    -0.270 OA
ATOM      5  C   LIG    1       24.810 -32.134   5.641  0.00  0.00    +0.320 C 
ATOM      6  N   LIG    1       24.930 -30.685   5.598  0.00  0.00    -0.243 NA
ATOM      7  C   LIG    1       24.871 -30.042   6.716  0.00  0.00    +0.079 C 
ATOM      8  C   LIG    1       24.638 -30.676   8.048  0.00  0.00    +0.023 A 
ATOM      9  C   LIG    1       23.713 -30.044   8.901  0.00  0.00    +0.032 A 
ATOM     10  C   LIG    1       23.530 -30.507  10.198  0.00  0.00    +0.042 A 
ATOM     11 CL   LIG    1       22.407 -29.725  11.237  0.00  0.00    -0.084 Cl
ATOM     12  C   LIG    1       24.259 -31.594  10.660  0.00  0.00    +0.022 A 
ATOM     13  C   LIG    1       25.167 -32.236   9.811  0.00  0.00    +0.025 A 
ATOM     14  C   LIG    1       25.360 -31.807   8.482  0.00  0.00    +0.045 A 
ENDROOT
BRANCH   7  15
ATOM     15  C   LIG    1       25.001 -28.557   6.641  0.00  0.00    +0.019 A 
ATOM     16  C   LIG    1       25.797 -27.807   7.516  0.00  0.00    +0.050 A 
ATOM     17 CL   LIG    1       26.784 -28.522   8.741  0.00  0.00    -0.083 Cl
ATOM     18  C   LIG    1       25.845 -26.414   7.387  0.00  0.00    +0.021 A 
ATOM     19  C   LIG    1       25.115 -25.773   6.384  0.00  0.00    +0.002 A 
ATOM     20  C   LIG    1       24.343 -26.519   5.497  0.00  0.00    +0.001 A 
ATOM     21  C   LIG    1       24.289 -27.908   5.619  0.00  0.00    +0.011 A 
ENDBRANCH   7  15
BRANCH   5  22
ATOM     22  O   LIG    1       24.609 -32.692   4.351  0.00  0.00    -0.364 OA
ATOM     23  H   LIG    1       24.680 -33.652   4.503  0.00  0.00    +0.212 HD
ENDBRANCH   5  22
TORSDOF 2
ENDMDL
MODEL 6
REMARK VINA RESULT:      -6.1      7.343      9.481
REMARK  Name = *****
REMARK                            x       y       z     vdW  Elec       q    Type
REMARK                         _______ _______ _______ _____ _____    ______ ____
ROOT
ATOM      1  C   LIG    1       24.744 -27.579  12.892  0.00  0.00    +0.138 C 
ATOM      2  N   LIG    1       25.263 -28.568  11.957  0.00  0.00    -0.270 N 
ATOM      3  C   LIG    1       26.650 -28.588  11.762  0.00  0.00    +0.271 C 
ATOM      4  O   LIG    1       27.400 -27.737  12.257  0.00  0.00    -0.270 OA
ATOM      5  C   LIG    1       27.231 -29.769  10.937  0.00  0.00    +0.320 C 
ATOM      6  N   LIG    1       26.893 -29.526   9.543  0.00  0.00    -0.243 NA
ATOM      7  C   LIG    1       25.659 -29.656   9.191  0.00  0.00    +0.079 C 
ATOM      8  C   LIG    1       24.558 -30.089  10.102  0.00  0.00    +0.023 A 
ATOM      9  C   LIG    1       23.656 -31.049   9.602  0.00  0.00    +0.032 A 
ATOM     10  C   LIG    1       22.541 -31.414  10.347  0.00  0.00    +0.042 A 
ATOM     11 CL   LIG    1       21.440 -32.578   9.725  0.00  0.00    -0.084 Cl
ATOM     12  C   LIG    1       22.309 -30.834  11.586  0.00  0.00    +0.022 A 
ATOM     13  C   LIG    1       23.210 -29.892  12.094  0.00  0.00    +0.025 A 
ATOM     14  C   LIG    1       24.363 -29.517  11.377  0.00  0.00    +0.045 A 
ENDROOT
BRANCH   7  15
ATOM     15  C   LIG    1       25.341 -29.397   7.756  0.00  0.00    +0.019 A 
ATOM     16  C   LIG    1       25.524 -30.346   6.741  0.00  0.00    +0.050 A 
ATOM     17 CL   LIG    1       26.068 -31.958   7.045  0.00  0.00    -0.083 Cl
ATOM     18  C   LIG    1       25.219 -30.012   5.417  0.00  0.00    +0.021 A 
ATOM     19  C   LIG    1       24.723 -28.743   5.106  0.00  0.00    +0.002 A 
ATOM     20  C   LIG    1       24.518 -27.808   6.116  0.00  0.00    +0.001 A 
ATOM     21  C   LIG    1       24.819 -28.133   7.439  0.00  0.00    +0.011 A 
ENDBRANCH   7  15
BRANCH   5  22
ATOM     22  O   LIG    1       28.633 -29.869  11.137  0.00  0.00    -0.364 OA
ATOM     23  H   LIG    1       28.734 -29.771  12.101  0.00  0.00    +0.212 HD
ENDBRANCH   5  22
TORSDOF 2
ENDMDL
MODEL 7
REMARK VINA RESULT:      -6.1      8.381     10.491
REMARK  Name = *****
REMARK                            x       y       z     vdW  Elec       q    Type
REMARK                         _______ _______ _______ _____ _____    ______ ____
ROOT
ATOM      1  C   LIG    1       25.157 -31.951  11.815  0.00  0.00    +0.138 C 
ATOM      2  N   LIG    1       25.368 -30.537  11.533  0.00  0.00    -0.270 N 
ATOM      3  C   LIG    1       26.337 -30.222  10.571  0.00  0.00    +0.271 C 
ATOM      4  O   LIG    1       27.070 -31.080  10.066  0.00  0.00    -0.270 OA
ATOM      5  C   LIG    1       26.420 -28.740  10.111  0.00  0.00    +0.320 C 
ATOM      6  N   LIG    1       27.040 -27.990  11.192  0.00  0.00    -0.243 NA
ATOM      7  C   LIG    1       26.351 -27.801  12.267  0.00  0.00    +0.079 C 
ATOM      8  C   LIG    1       24.942 -28.255  12.463  0.00  0.00    +0.023 A 
ATOM      9  C   LIG    1       24.050 -27.334  13.046  0.00  0.00    +0.032 A 
ATOM     10  C   LIG    1       22.755 -27.723  13.365  0.00  0.00    +0.042 A 
ATOM     11 CL   LIG    1       21.675 -26.596  14.085  0.00  0.00    -0.084 Cl
ATOM     12  C   LIG    1       22.334 -29.021  13.114  0.00  0.00    +0.022 A 
ATOM     13  C   LIG    1       23.211 -29.935  12.520  0.00  0.00    +0.025 A 
ATOM     14  C   LIG    1       24.523 -29.568  12.161  0.00  0.00    +0.045 A 
ENDROOT
BRANCH   7  15
ATOM     15  C   LIG    1       27.015 -27.030  13.360  0.00  0.00    +0.019 A 
ATOM     16  C   LIG    1       27.541 -27.625  14.514  0.00  0.00    +0.050 A 
ATOM     17 CL   LIG    1       27.552 -29.334  14.773  0.00  0.00    -0.083 Cl
ATOM     18  C   LIG    1       28.129 -26.824  15.500  0.00  0.00    +0.021 A 
ATOM     19  C   LIG    1       28.204 -25.440  15.332  0.00  0.00    +0.002 A 
ATOM     20  C   LIG    1       27.704 -24.849  14.174  0.00  0.00    +0.001 A 
ATOM     21  C   LIG    1       27.116 -25.641  13.187  0.00  0.00    +0.011 A 
ENDBRANCH   7  15
BRANCH   5  22
ATOM     22  O   LIG    1       27.155 -28.640   8.901  0.00  0.00    -0.364 OA
ATOM     23  H   LIG    1       26.581 -28.098   8.329  0.00  0.00    +0.212 HD
ENDBRANCH   5  22
TORSDOF 2
ENDMDL
MODEL 8
REMARK VINA RESULT:      -6.0      8.420     10.154
REMARK  Name = *****
REMARK                            x       y       z     vdW  Elec       q    Type
REMARK                         _______ _______ _______ _____ _____    ______ ____
ROOT
ATOM      1  C   LIG    1       28.526 -27.768  15.017  0.00  0.00    +0.138 C 
ATOM      2  N   LIG    1       27.517 -28.650  14.447  0.00  0.00    -0.270 N 
ATOM      3  C   LIG    1       27.850 -30.006  14.339  0.00  0.00    +0.271 C 
ATOM      4  O   LIG    1       28.983 -30.432  14.598  0.00  0.00    -0.270 OA
ATOM      5  C   LIG    1       26.712 -30.984  13.933  0.00  0.00    +0.320 C 
ATOM      6  N   LIG    1       26.462 -30.784  12.514  0.00  0.00    -0.243 NA
ATOM      7  C   LIG    1       25.888 -29.686  12.152  0.00  0.00    +0.079 C 
ATOM      8  C   LIG    1       25.415 -28.626  13.092  0.00  0.00    +0.023 A 
ATOM      9  C   LIG    1       24.137 -28.085  12.853  0.00  0.00    +0.032 A 
ATOM     10  C   LIG    1       23.678 -27.016  13.613  0.00  0.00    +0.042 A 
ATOM     11 CL   LIG    1       22.121 -26.355  13.308  0.00  0.00    -0.084 Cl
ATOM     12  C   LIG    1       24.477 -26.475  14.610  0.00  0.00    +0.022 A 
ATOM     13  C   LIG    1       25.741 -27.019  14.862  0.00  0.00    +0.025 A 
ATOM     14  C   LIG    1       26.228 -28.118  14.128  0.00  0.00    +0.045 A 
ENDROOT
BRANCH   7  15
ATOM     15  C   LIG    1       25.646 -29.508  10.690  0.00  0.00    +0.019 A 
ATOM     16  C   LIG    1       24.636 -30.177   9.987  0.00  0.00    +0.050 A 
ATOM     17 CL   LIG    1       23.500 -31.233  10.748  0.00  0.00    -0.083 Cl
ATOM     18  C   LIG    1       24.493 -29.966   8.611  0.00  0.00    +0.021 A 
ATOM     19  C   LIG    1       25.343 -29.083   7.941  0.00  0.00    +0.002 A 
ATOM     20  C   LIG    1       26.331 -28.398   8.642  0.00  0.00    +0.001 A 
ATOM     21  C   LIG    1       26.481 -28.603  10.014  0.00  0.00    +0.011 A 
ENDBRANCH   7  15
BRANCH   5  22
ATOM     22  O   LIG    1       27.083 -32.322  14.227  0.00  0.00    -0.364 OA
ATOM     23  H   LIG    1       27.192 -32.322  15.195  0.00  0.00    +0.212 HD
ENDBRANCH   5  22
TORSDOF 2
ENDMDL
MODEL 9
REMARK VINA RESULT:      -5.9      8.599      9.840
REMARK  Name = *****
REMARK                            x       y       z     vdW  Elec       q    Type
REMARK                         _______ _______ _______ _____ _____    ______ ____
ROOT
ATOM      1  C   LIG    1       27.413 -26.653  13.865  0.00  0.00    +0.138 C 
ATOM      2  N   LIG    1       26.717 -27.912  13.637  0.00  0.00    -0.270 N 
ATOM      3  C   LIG    1       27.467 -29.086  13.785  0.00  0.00    +0.271 C 
ATOM      4  O   LIG    1       28.688 -29.070  13.980  0.00  0.00    -0.270 OA
ATOM      5  C   LIG    1       26.688 -30.430  13.754  0.00  0.00    +0.320 C 
ATOM      6  N   LIG    1       26.311 -30.675  12.370  0.00  0.00    -0.243 NA
ATOM      7  C   LIG    1       25.392 -29.929  11.855  0.00  0.00    +0.079 C 
ATOM      8  C   LIG    1       24.651 -28.863  12.595  0.00  0.00    +0.023 A 
ATOM      9  C   LIG    1       23.256 -28.812  12.412  0.00  0.00    +0.032 A 
ATOM     10  C   LIG    1       22.516 -27.778  12.974  0.00  0.00    +0.042 A 
ATOM     11 CL   LIG    1       20.814 -27.717  12.738  0.00  0.00    -0.084 Cl
ATOM     12  C   LIG    1       23.148 -26.791  13.716  0.00  0.00    +0.022 A 
ATOM     13  C   LIG    1       24.531 -26.847  13.915  0.00  0.00    +0.025 A 
ATOM     14  C   LIG    1       25.309 -27.892  13.380  0.00  0.00    +0.045 A 
ENDROOT
BRANCH   7  15
ATOM     15  C   LIG    1       25.027 -30.200  10.434  0.00  0.00    +0.019 A 
ATOM     16  C   LIG    1       25.519 -29.454   9.355  0.00  0.00    +0.050 A 
ATOM     17 CL   LIG    1       26.669 -28.177   9.538  0.00  0.00    -0.083 Cl
ATOM     18  C   LIG    1       25.109 -29.765   8.054  0.00  0.00    +0.021 A 
ATOM     19  C   LIG    1       24.223 -30.821   7.826  0.00  0.00    +0.002 A 
ATOM     20  C   LIG    1       23.753 -31.579   8.895  0.00  0.00    +0.001 A 
ATOM     21  C   LIG    1       24.157 -31.276  10.196  0.00  0.00    +0.011 A 
ENDBRANCH   7  15
BRANCH   5  22
ATOM     22  O   LIG    1       27.489 -31.477  14.281  0.00  0.00    -0.364 OA
ATOM     23  H   LIG    1       27.403 -32.187  13.620  0.00  0.00    +0.212 HD
ENDBRANCH   5  22
TORSDOF 2
ENDMDL
