MODEL 1
REMARK VINA RESULT:      15.2      0.000      0.000
REMARK  Name = *****
REMARK                            x       y       z     vdW  Elec       q    Type
REMARK                         _______ _______ _______ _____ _____    ______ ____
ROOT
ATOM      1  C   LIG    1       26.138 -17.884   3.895  0.00  0.00    +0.197 C 
ATOM      2  O   LIG    1       25.656 -18.227   2.808  0.00  0.00    -0.286 OA
ENDROOT
BRANCH   1   4
ATOM      3  C   LIG    1       27.047 -19.967   5.682  0.00  0.00    +0.117 A 
ATOM      4  C   LIG    1       26.122 -19.096   5.027  0.00  0.00    +0.071 A 
ATOM      5  C   LIG    1       24.781 -19.689   5.581  0.00  0.00    +0.033 A 
ATOM      6  C   LIG    1       25.045 -20.779   6.406  0.00  0.00    +0.136 A 
ATOM      7  C   LIG    1       24.046 -21.565   7.057  0.00  0.00    +0.049 A 
ATOM      8  C   LIG    1       22.706 -21.395   6.614  0.00  0.00    +0.028 A 
ATOM      9  C   LIG    1       22.401 -20.414   5.670  0.00  0.00    +0.049 A 
ATOM     10  C   LIG    1       23.388 -19.420   5.431  0.00  0.00    +0.036 A 
ATOM     11  O   LIG    1       26.390 -20.918   6.474  0.00  0.00    -0.459 OA
BRANCH   9  12
ATOM     12  N   LIG    1       21.093 -20.255   5.046  0.00  0.00    -0.221 N 
ATOM     13  H   LIG    1       20.410 -19.846   5.676  0.00  0.00    +0.173 HD
BRANCH  12  14
ATOM     14  S   LIG    1       20.777 -19.627   3.480  0.00  0.00    +0.040 S 
ATOM     15  O   LIG    1       19.357 -19.834   3.245  0.00  0.00    -0.155 OA
ATOM     16  O   LIG    1       21.749 -20.125   2.533  0.00  0.00    -0.155 OA
ATOM     17  C   LIG    1       20.971 -17.837   3.561  0.00  0.00    +0.218 C 
ENDBRANCH  12  14
ENDBRANCH   9  12
BRANCH   3  18
ATOM     18  C   LIG    1       28.527 -20.244   5.809  0.00  0.00    +0.075 C 
BRANCH  18  19
ATOM     19  C   LIG    1       29.472 -19.079   5.867  0.00  0.00    +0.007 C 
BRANCH  19  21
ATOM     20  C   LIG    1       29.186 -16.630   5.112  0.00  0.00    +0.004 C 
ATOM     21  C   LIG    1       29.267 -18.066   4.717  0.00  0.00    -0.003 C 
ENDBRANCH  19  21
ENDBRANCH  18  19
ENDBRANCH   3  18
ENDBRANCH   1   4
BRANCH   1  22
ATOM     22  C   LIG    1       26.677 -16.337   3.732  0.00  0.00    +0.023 A 
ATOM     23  C   LIG    1       26.515 -15.228   4.753  0.00  0.00    +0.015 A 
ATOM     24  C   LIG    1       26.792 -13.733   4.635  0.00  0.00    +0.046 A 
ATOM     25  C   LIG    1       27.533 -13.212   3.438  0.00  0.00    +0.120 A 
ATOM     26  C   LIG    1       27.571 -14.524   2.379  0.00  0.00    +0.046 A 
ATOM     27  C   LIG    1       27.121 -15.846   2.546  0.00  0.00    +0.015 A 
BRANCH  25  28
ATOM     28  O   LIG    1       26.805 -11.696   2.372  0.00  0.00    -0.492 OA
BRANCH  28  29
ATOM     29  C   LIG    1       24.877 -12.222   2.096  0.00  0.00    +0.230 C 
BRANCH  29  30
ATOM     30  C   LIG    1       23.611 -12.112   3.100  0.00  0.00    +0.056 C 
BRANCH  30  31
ATOM     31  C   LIG    1       24.096 -11.454   4.322  0.00  0.00    +0.088 C 
BRANCH  31  32
ATOM     32  N   LIG    1       24.012 -12.153   5.573  0.00  0.00    -0.302 NA
BRANCH  32  33
ATOM     33  C   LIG    1       22.648 -12.446   6.000  0.00  0.00    +0.084 C 
BRANCH  33  34
ATOM     34  C   LIG    1       22.184 -13.929   6.045  0.00  0.00    +0.015 C 
BRANCH  34  35
ATOM     35  C   LIG    1       22.896 -15.129   5.350  0.00  0.00    -0.002 C 
ATOM     36  C   LIG    1       23.209 -15.119   3.844  0.00  0.00    +0.004 C 
ENDBRANCH  34  35
ENDBRANCH  33  34
ENDBRANCH  32  33
BRANCH  32  37
ATOM     37  C   LIG    1       24.833 -13.327   5.647  0.00  0.00    +0.084 C 
BRANCH  37  38
ATOM     38  C   LIG    1       25.871 -13.355   6.785  0.00  0.00    +0.015 C 
BRANCH  38  39
ATOM     39  C   LIG    1       27.994 -13.448   7.056  0.00  0.00    -0.002 C 
ATOM     40  C   LIG    1       28.428 -12.017   5.650  0.00  0.00    +0.004 C 
ENDBRANCH  38  39
ENDBRANCH  37  38
ENDBRANCH  32  37
ENDBRANCH  31  32
ENDBRANCH  30  31
ENDBRANCH  29  30
ENDBRANCH  28  29
ENDBRANCH  25  28
ENDBRANCH   1  22
TORSDOF 18
ENDMDL
MODEL 2
REMARK VINA RESULT:      17.2      2.452      8.076
REMARK  Name = *****
REMARK                            x       y       z     vdW  Elec       q    Type
REMARK                         _______ _______ _______ _____ _____    ______ ____
ROOT
ATOM      1  C   LIG    1       23.908 -14.795   4.243  0.00  0.00    +0.197 C 
ATOM      2  O   LIG    1       23.681 -14.740   5.459  0.00  0.00    -0.286 OA
ENDROOT
BRANCH   1   4
ATOM      3  C   LIG    1       25.237 -12.614   2.887  0.00  0.00    +0.117 A 
ATOM      4  C   LIG    1       25.092 -13.742   3.754  0.00  0.00    +0.071 A 
ATOM      5  C   LIG    1       26.593 -13.944   4.158  0.00  0.00    +0.033 A 
ATOM      6  C   LIG    1       27.394 -13.009   3.507  0.00  0.00    +0.136 A 
ATOM      7  C   LIG    1       28.813 -12.928   3.634  0.00  0.00    +0.049 A 
ATOM      8  C   LIG    1       29.468 -14.036   4.237  0.00  0.00    +0.028 A 
ATOM      9  C   LIG    1       28.719 -15.082   4.775  0.00  0.00    +0.049 A 
ATOM     10  C   LIG    1       27.333 -14.845   4.979  0.00  0.00    +0.036 A 
ATOM     11  O   LIG    1       26.575 -12.215   2.776  0.00  0.00    -0.459 OA
BRANCH   9  12
ATOM     12  N   LIG    1       29.291 -16.324   5.282  0.00  0.00    -0.221 N 
ATOM     13  H   LIG    1       29.667 -16.223   6.219  0.00  0.00    +0.173 HD
BRANCH  12  14
ATOM     14  S   LIG    1       28.590 -17.888   5.183  0.00  0.00    +0.040 S 
ATOM     15  O   LIG    1       29.037 -18.447   3.918  0.00  0.00    -0.155 OA
ATOM     16  O   LIG    1       27.179 -17.826   5.492  0.00  0.00    -0.155 OA
ATOM     17  C   LIG    1       29.372 -18.916   6.439  0.00  0.00    +0.218 C 
ENDBRANCH  12  14
ENDBRANCH   9  12
BRANCH   3  18
ATOM     18  C   LIG    1       24.433 -11.686   2.008  0.00  0.00    +0.075 C 
BRANCH  18  19
ATOM     19  C   LIG    1       22.975 -11.491   2.313  0.00  0.00    +0.007 C 
BRANCH  19  21
ATOM     20  C   LIG    1       23.850 -11.447   4.738  0.00  0.00    +0.004 C 
ATOM     21  C   LIG    1       22.668 -11.448   3.828  0.00  0.00    -0.003 C 
ENDBRANCH  19  21
ENDBRANCH  18  19
ENDBRANCH   3  18
ENDBRANCH   1   4
BRANCH   1  22
ATOM     22  C   LIG    1       22.958 -15.982   3.614  0.00  0.00    +0.023 A 
ATOM     23  C   LIG    1       21.589 -15.787   2.991  0.00  0.00    +0.015 A 
ATOM     24  C   LIG    1       20.548 -16.815   2.560  0.00  0.00    +0.046 A 
ATOM     25  C   LIG    1       20.921 -18.269   2.513  0.00  0.00    +0.120 A 
ATOM     26  C   LIG    1       22.414 -18.332   3.294  0.00  0.00    +0.046 A 
ATOM     27  C   LIG    1       23.220 -17.300   3.808  0.00  0.00    +0.015 A 
BRANCH  25  28
ATOM     28  O   LIG    1       19.794 -19.637   3.419  0.00  0.00    -0.492 OA
BRANCH  28  29
ATOM     29  C   LIG    1       20.783 -19.968   5.145  0.00  0.00    +0.230 C 
BRANCH  29  30
ATOM     30  C   LIG    1       21.529 -21.302   5.682  0.00  0.00    +0.056 C 
BRANCH  30  31
ATOM     31  C   LIG    1       22.635 -21.572   4.753  0.00  0.00    +0.088 C 
BRANCH  31  32
ATOM     32  N   LIG    1       23.987 -21.469   5.226  0.00  0.00    -0.302 NA
BRANCH  32  33
ATOM     33  C   LIG    1       24.989 -21.476   4.165  0.00  0.00    +0.084 C 
BRANCH  33  34
ATOM     34  C   LIG    1       24.974 -20.329   3.117  0.00  0.00    +0.015 C 
BRANCH  34  35
ATOM     35  C   LIG    1       26.062 -19.224   2.958  0.00  0.00    -0.002 C 
ATOM     36  C   LIG    1       25.711 -17.729   3.046  0.00  0.00    +0.004 C 
ENDBRANCH  34  35
ENDBRANCH  33  34
ENDBRANCH  32  33
BRANCH  32  37
ATOM     37  C   LIG    1       24.212 -20.380   6.132  0.00  0.00    +0.084 C 
BRANCH  37  38
ATOM     38  C   LIG    1       25.433 -20.515   7.060  0.00  0.00    +0.015 C 
BRANCH  38  39
ATOM     39  C   LIG    1       27.409 -21.345   7.050  0.00  0.00    -0.002 C 
ATOM     40  C   LIG    1       27.636 -21.269   5.012  0.00  0.00    +0.004 C 
ENDBRANCH  38  39
ENDBRANCH  37  38
ENDBRANCH  32  37
ENDBRANCH  31  32
ENDBRANCH  30  31
ENDBRANCH  29  30
ENDBRANCH  28  29
ENDBRANCH  25  28
ENDBRANCH   1  22
TORSDOF 18
ENDMDL
