MODEL 1
REMARK VINA RESULT:      -3.5      0.000      0.000
REMARK  Name = *****
REMARK                            x       y       z     vdW  Elec       q    Type
REMARK                         _______ _______ _______ _____ _____    ______ ____
ROOT
ATOM      1  C   LIG    1       24.830 -19.071   3.663  0.00  0.00    +0.150 A 
ATOM      2  C   LIG    1       25.183 -17.713   3.638  0.00  0.00    +0.147 A 
ATOM      3  N   LIG    1       26.342 -17.061   3.278  0.00  0.00    -0.231 NA
ATOM      4  C   LIG    1       26.073 -15.782   3.447  0.00  0.00    +0.203 A 
ATOM      5  N   LIG    1       24.794 -15.581   3.893  0.00  0.00    -0.285 N 
ATOM      6  C   LIG    1       24.204 -16.809   4.015  0.00  0.00    +0.170 A 
ATOM      7  N   LIG    1       22.949 -17.086   4.400  0.00  0.00    -0.182 NA
ATOM      8  C   LIG    1       22.720 -18.417   4.379  0.00  0.00    +0.313 A 
ATOM      9  F   LIG    1       21.484 -18.805   4.731  0.00  0.00    -0.161 F 
ATOM     10  N   LIG    1       23.573 -19.405   4.025  0.00  0.00    -0.185 NA
ENDROOT
BRANCH   5  11
ATOM     11  C1* LIG    1       24.151 -14.316   4.166  0.00  0.00    +0.253 C 
ATOM     12  C2* LIG    1       25.000 -13.288   4.924  0.00  0.00    +0.195 C 
ATOM     13  C3* LIG    1       24.431 -11.976   4.397  0.00  0.00    +0.178 C 
ATOM     14  C4* LIG    1       24.010 -12.300   2.961  0.00  0.00    +0.177 C 
ATOM     15  O4* LIG    1       23.710 -13.713   2.926  0.00  0.00    -0.346 OA
BRANCH  12  16
ATOM     16  O2* LIG    1       26.402 -13.375   4.659  0.00  0.00    -0.385 OA
ATOM     17  H2* LIG    1       26.886 -13.255   5.505  0.00  0.00    +0.210 HD
ENDBRANCH  12  16
BRANCH  13  18
ATOM     18  O3* LIG    1       23.282 -11.596   5.168  0.00  0.00    -0.386 OA
ATOM     19  H3* LIG    1       22.711 -12.371   5.310  0.00  0.00    +0.210 HD
ENDBRANCH  13  18
BRANCH  14  20
ATOM     20  C5* LIG    1       25.071 -11.994   1.896  0.00  0.00    +0.190 C 
BRANCH  20  21
ATOM     21  O5* LIG    1       26.047 -13.031   1.817  0.00  0.00    -0.392 OA
ATOM     22  H5* LIG    1       26.922 -12.593   1.827  0.00  0.00    +0.209 HD
ENDBRANCH  20  21
ENDBRANCH  14  20
ENDBRANCH   5  11
BRANCH   1  23
ATOM     23  N   LIG    1       25.706 -20.087   3.302  0.00  0.00    -0.341 N 
ATOM     24  H   LIG    1       25.603 -20.385   2.338  0.00  0.00    +0.144 HD
ATOM     25  H   LIG    1       25.783 -20.803   4.011  0.00  0.00    +0.144 HD
ENDBRANCH   1  23
TORSDOF 6
ENDMDL
MODEL 2
REMARK VINA RESULT:      -3.1      1.474      1.992
REMARK  Name = *****
REMARK                            x       y       z     vdW  Elec       q    Type
REMARK                         _______ _______ _______ _____ _____    ______ ____
ROOT
ATOM      1  C   LIG    1       24.763 -19.899   4.437  0.00  0.00    +0.150 A 
ATOM      2  C   LIG    1       25.484 -18.755   4.058  0.00  0.00    +0.147 A 
ATOM      3  N   LIG    1       26.833 -18.514   3.915  0.00  0.00    -0.231 NA
ATOM      4  C   LIG    1       26.907 -17.260   3.516  0.00  0.00    +0.203 A 
ATOM      5  N   LIG    1       25.669 -16.687   3.391  0.00  0.00    -0.285 N 
ATOM      6  C   LIG    1       24.742 -17.634   3.727  0.00  0.00    +0.170 A 
ATOM      7  N   LIG    1       23.405 -17.516   3.725  0.00  0.00    -0.182 NA
ATOM      8  C   LIG    1       22.818 -18.674   4.099  0.00  0.00    +0.313 A 
ATOM      9  F   LIG    1       21.476 -18.673   4.114  0.00  0.00    -0.161 F 
ATOM     10  N   LIG    1       23.414 -19.841   4.435  0.00  0.00    -0.185 NA
ENDROOT
BRANCH   5  11
ATOM     11  C1* LIG    1       25.368 -15.341   2.958  0.00  0.00    +0.253 C 
ATOM     12  C2* LIG    1       25.010 -14.348   4.071  0.00  0.00    +0.195 C 
ATOM     13  C3* LIG    1       25.495 -13.033   3.473  0.00  0.00    +0.178 C 
ATOM     14  C4* LIG    1       26.702 -13.432   2.618  0.00  0.00    +0.177 C 
ATOM     15  O4* LIG    1       26.488 -14.803   2.214  0.00  0.00    -0.346 OA
BRANCH  12  16
ATOM     16  O2* LIG    1       25.657 -14.608   5.318  0.00  0.00    -0.385 OA
ATOM     17  H2* LIG    1       25.520 -13.833   5.906  0.00  0.00    +0.210 HD
ENDBRANCH  12  16
BRANCH  13  18
ATOM     18  O3* LIG    1       24.474 -12.467   2.640  0.00  0.00    -0.386 OA
ATOM     19  H3* LIG    1       24.284 -13.069   1.898  0.00  0.00    +0.210 HD
ENDBRANCH  13  18
BRANCH  14  20
ATOM     20  C5* LIG    1       28.056 -13.335   3.333  0.00  0.00    +0.190 C 
BRANCH  20  21
ATOM     21  O5* LIG    1       27.899 -12.973   4.704  0.00  0.00    -0.392 OA
ATOM     22  H5* LIG    1       26.941 -12.852   4.854  0.00  0.00    +0.209 HD
ENDBRANCH  20  21
ENDBRANCH  14  20
ENDBRANCH   5  11
BRANCH   1  23
ATOM     23  N   LIG    1       25.373 -21.096   4.786  0.00  0.00    -0.341 N 
ATOM     24  H   LIG    1       26.227 -20.974   5.318  0.00  0.00    +0.144 HD
ATOM     25  H   LIG    1       25.383 -21.763   4.025  0.00  0.00    +0.144 HD
ENDBRANCH   1  23
TORSDOF 6
ENDMDL
MODEL 3
REMARK VINA RESULT:      -2.7      3.802      6.176
REMARK  Name = *****
REMARK                            x       y       z     vdW  Elec       q    Type
REMARK                         _______ _______ _______ _____ _____    ______ ____
ROOT
ATOM      1  C   LIG    1       26.027 -15.208   3.340  0.00  0.00    +0.150 A 
ATOM      2  C   LIG    1       25.752 -16.585   3.350  0.00  0.00    +0.147 A 
ATOM      3  N   LIG    1       26.514 -17.686   3.028  0.00  0.00    -0.231 NA
ATOM      4  C   LIG    1       25.724 -18.717   3.253  0.00  0.00    +0.203 A 
ATOM      5  N   LIG    1       24.493 -18.329   3.711  0.00  0.00    -0.285 N 
ATOM      6  C   LIG    1       24.494 -16.964   3.787  0.00  0.00    +0.170 A 
ATOM      7  N   LIG    1       23.504 -16.160   4.205  0.00  0.00    -0.182 NA
ATOM      8  C   LIG    1       23.881 -14.865   4.159  0.00  0.00    +0.313 A 
ATOM      9  F   LIG    1       22.969 -13.973   4.574  0.00  0.00    -0.161 F 
ATOM     10  N   LIG    1       25.072 -14.356   3.768  0.00  0.00    -0.185 NA
ENDROOT
BRANCH   5  11
ATOM     11  C1* LIG    1       23.387 -19.185   4.080  0.00  0.00    +0.253 C 
ATOM     12  C2* LIG    1       23.577 -20.679   3.790  0.00  0.00    +0.195 C 
ATOM     13  C3* LIG    1       22.729 -21.311   4.887  0.00  0.00    +0.178 C 
ATOM     14  C4* LIG    1       22.844 -20.333   6.060  0.00  0.00    +0.177 C 
ATOM     15  O4* LIG    1       23.097 -19.030   5.490  0.00  0.00    -0.346 OA
BRANCH  12  16
ATOM     16  O2* LIG    1       24.931 -21.126   3.875  0.00  0.00    -0.385 OA
ATOM     17  H2* LIG    1       25.129 -21.671   3.082  0.00  0.00    +0.210 HD
ENDBRANCH  12  16
BRANCH  13  18
ATOM     18  O3* LIG    1       21.362 -21.401   4.460  0.00  0.00    -0.386 OA
ATOM     19  H3* LIG    1       21.298 -21.175   3.515  0.00  0.00    +0.210 HD
ENDBRANCH  13  18
BRANCH  14  20
ATOM     20  C5* LIG    1       23.960 -20.659   7.061  0.00  0.00    +0.190 C 
BRANCH  20  21
ATOM     21  O5* LIG    1       25.251 -20.483   6.481  0.00  0.00    -0.392 OA
ATOM     22  H5* LIG    1       25.123 -19.952   5.669  0.00  0.00    +0.209 HD
ENDBRANCH  20  21
ENDBRANCH  14  20
ENDBRANCH   5  11
BRANCH   1  23
ATOM     23  N   LIG    1       27.249 -14.685   2.937  0.00  0.00    -0.341 N 
ATOM     24  H   LIG    1       27.982 -15.381   2.865  0.00  0.00    +0.144 HD
ATOM     25  H   LIG    1       27.470 -13.814   3.400  0.00  0.00    +0.144 HD
ENDBRANCH   1  23
TORSDOF 6
ENDMDL
MODEL 4
REMARK VINA RESULT:      -2.7      3.880      6.039
REMARK  Name = *****
REMARK                            x       y       z     vdW  Elec       q    Type
REMARK                         _______ _______ _______ _____ _____    ______ ____
ROOT
ATOM      1  C   LIG    1       28.173 -18.228   4.781  0.00  0.00    +0.150 A 
ATOM      2  C   LIG    1       27.283 -19.287   5.019  0.00  0.00    +0.147 A 
ATOM      3  N   LIG    1       27.393 -20.446   5.756  0.00  0.00    -0.231 NA
ATOM      4  C   LIG    1       26.225 -21.041   5.620  0.00  0.00    +0.203 A 
ATOM      5  N   LIG    1       25.368 -20.317   4.835  0.00  0.00    -0.285 N 
ATOM      6  C   LIG    1       26.026 -19.183   4.445  0.00  0.00    +0.170 A 
ATOM      7  N   LIG    1       25.561 -18.179   3.687  0.00  0.00    -0.182 NA
ATOM      8  C   LIG    1       26.497 -17.218   3.531  0.00  0.00    +0.313 A 
ATOM      9  F   LIG    1       26.129 -16.153   2.801  0.00  0.00    -0.161 F 
ATOM     10  N   LIG    1       27.750 -17.183   4.039  0.00  0.00    -0.185 NA
ENDROOT
BRANCH   5  11
ATOM     11  C1* LIG    1       24.005 -20.650   4.489  0.00  0.00    +0.253 C 
ATOM     12  C2* LIG    1       23.066 -20.921   5.671  0.00  0.00    +0.195 C 
ATOM     13  C3* LIG    1       21.723 -20.483   5.099  0.00  0.00    +0.178 C 
ATOM     14  C4* LIG    1       22.078 -19.347   4.137  0.00  0.00    +0.177 C 
ATOM     15  O4* LIG    1       23.430 -19.591   3.687  0.00  0.00    -0.346 OA
BRANCH  12  16
ATOM     16  O2* LIG    1       23.380 -20.180   6.852  0.00  0.00    -0.385 OA
ATOM     17  H2* LIG    1       23.834 -20.780   7.484  0.00  0.00    +0.210 HD
ENDBRANCH  12  16
BRANCH  13  18
ATOM     18  O3* LIG    1       21.123 -21.566   4.374  0.00  0.00    -0.386 OA
ATOM     19  H3* LIG    1       21.380 -22.414   4.777  0.00  0.00    +0.210 HD
ENDBRANCH  13  18
BRANCH  14  20
ATOM     20  C5* LIG    1       22.009 -17.941   4.749  0.00  0.00    +0.190 C 
BRANCH  20  21
ATOM     21  O5* LIG    1       23.043 -17.099   4.244  0.00  0.00    -0.392 OA
ATOM     22  H5* LIG    1       23.890 -17.547   4.440  0.00  0.00    +0.209 HD
ENDBRANCH  20  21
ENDBRANCH  14  20
ENDBRANCH   5  11
BRANCH   1  23
ATOM     23  N   LIG    1       29.461 -18.193   5.300  0.00  0.00    -0.341 N 
ATOM     24  H   LIG    1       30.169 -18.507   4.645  0.00  0.00    +0.144 HD
ATOM     25  H   LIG    1       29.508 -18.544   6.247  0.00  0.00    +0.144 HD
ENDBRANCH   1  23
TORSDOF 6
ENDMDL
MODEL 5
REMARK VINA RESULT:      -2.6      2.768      3.957
REMARK  Name = *****
REMARK                            x       y       z     vdW  Elec       q    Type
REMARK                         _______ _______ _______ _____ _____    ______ ____
ROOT
ATOM      1  C   LIG    1       26.350 -20.002   4.598  0.00  0.00    +0.150 A 
ATOM      2  C   LIG    1       26.206 -18.702   4.086  0.00  0.00    +0.147 A 
ATOM      3  N   LIG    1       25.208 -18.098   3.353  0.00  0.00    -0.231 NA
ATOM      4  C   LIG    1       25.624 -16.859   3.180  0.00  0.00    +0.203 A 
ATOM      5  N   LIG    1       26.840 -16.638   3.772  0.00  0.00    -0.285 N 
ATOM      6  C   LIG    1       27.227 -17.808   4.365  0.00  0.00    +0.170 A 
ATOM      7  N   LIG    1       28.340 -18.044   5.075  0.00  0.00    -0.182 NA
ATOM      8  C   LIG    1       28.368 -19.318   5.522  0.00  0.00    +0.313 A 
ATOM      9  F   LIG    1       29.435 -19.657   6.262  0.00  0.00    -0.161 F 
ATOM     10  N   LIG    1       27.443 -20.287   5.336  0.00  0.00    -0.185 NA
ENDROOT
BRANCH   5  11
ATOM     11  C1* LIG    1       27.585 -15.400   3.803  0.00  0.00    +0.253 C 
ATOM     12  C2* LIG    1       27.344 -14.449   2.625  0.00  0.00    +0.195 C 
ATOM     13  C3* LIG    1       27.590 -13.092   3.275  0.00  0.00    +0.178 C 
ATOM     14  C4* LIG    1       27.133 -13.283   4.725  0.00  0.00    +0.177 C 
ATOM     15  O4* LIG    1       27.297 -14.686   5.030  0.00  0.00    -0.346 OA
BRANCH  12  16
ATOM     16  O2* LIG    1       26.027 -14.517   2.076  0.00  0.00    -0.385 OA
ATOM     17  H2* LIG    1       25.453 -15.006   2.705  0.00  0.00    +0.210 HD
ENDBRANCH  12  16
BRANCH  13  18
ATOM     18  O3* LIG    1       28.989 -12.779   3.243  0.00  0.00    -0.386 OA
ATOM     19  H3* LIG    1       29.432 -13.173   4.016  0.00  0.00    +0.210 HD
ENDBRANCH  13  18
BRANCH  14  20
ATOM     20  C5* LIG    1       25.676 -12.886   4.997  0.00  0.00    +0.190 C 
BRANCH  20  21
ATOM     21  O5* LIG    1       24.779 -13.957   4.707  0.00  0.00    -0.392 OA
ATOM     22  H5* LIG    1       24.968 -14.663   5.357  0.00  0.00    +0.209 HD
ENDBRANCH  20  21
ENDBRANCH  14  20
ENDBRANCH   5  11
BRANCH   1  23
ATOM     23  N   LIG    1       25.402 -20.999   4.406  0.00  0.00    -0.341 N 
ATOM     24  H   LIG    1       24.874 -20.892   3.547  0.00  0.00    +0.144 HD
ATOM     25  H   LIG    1       24.890 -21.216   5.250  0.00  0.00    +0.144 HD
ENDBRANCH   1  23
TORSDOF 6
ENDMDL
MODEL 6
REMARK VINA RESULT:      -2.4      3.564      5.985
REMARK  Name = *****
REMARK                            x       y       z     vdW  Elec       q    Type
REMARK                         _______ _______ _______ _____ _____    ______ ____
ROOT
ATOM      1  C   LIG    1       26.780 -13.984   4.195  0.00  0.00    +0.150 A 
ATOM      2  C   LIG    1       26.867 -15.373   4.008  0.00  0.00    +0.147 A 
ATOM      3  N   LIG    1       27.898 -16.269   4.183  0.00  0.00    -0.231 NA
ATOM      4  C   LIG    1       27.380 -17.440   3.867  0.00  0.00    +0.203 A 
ATOM      5  N   LIG    1       26.064 -17.337   3.504  0.00  0.00    -0.285 N 
ATOM      6  C   LIG    1       25.714 -16.018   3.596  0.00  0.00    +0.170 A 
ATOM      7  N   LIG    1       24.515 -15.464   3.355  0.00  0.00    -0.182 NA
ATOM      8  C   LIG    1       24.547 -14.132   3.572  0.00  0.00    +0.313 A 
ATOM      9  F   LIG    1       23.391 -13.479   3.377  0.00  0.00    -0.161 F 
ATOM     10  N   LIG    1       25.592 -13.378   3.984  0.00  0.00    -0.185 NA
ENDROOT
BRANCH   5  11
ATOM     11  C1* LIG    1       25.176 -18.411   3.119  0.00  0.00    +0.253 C 
ATOM     12  C2* LIG    1       25.640 -19.824   3.494  0.00  0.00    +0.195 C 
ATOM     13  C3* LIG    1       24.308 -20.543   3.677  0.00  0.00    +0.178 C 
ATOM     14  C4* LIG    1       23.364 -19.455   4.197  0.00  0.00    +0.177 C 
ATOM     15  O4* LIG    1       23.866 -18.195   3.697  0.00  0.00    -0.346 OA
BRANCH  12  16
ATOM     16  O2* LIG    1       26.419 -19.888   4.690  0.00  0.00    -0.385 OA
ATOM     17  H2* LIG    1       25.904 -20.375   5.370  0.00  0.00    +0.210 HD
ENDBRANCH  12  16
BRANCH  13  18
ATOM     18  O3* LIG    1       23.838 -21.031   2.412  0.00  0.00    -0.386 OA
ATOM     19  H3* LIG    1       24.439 -20.741   1.703  0.00  0.00    +0.210 HD
ENDBRANCH  13  18
BRANCH  14  20
ATOM     20  C5* LIG    1       23.261 -19.372   5.726  0.00  0.00    +0.190 C 
BRANCH  20  21
ATOM     21  O5* LIG    1       23.834 -20.518   6.352  0.00  0.00    -0.392 OA
ATOM     22  H5* LIG    1       24.507 -20.186   6.979  0.00  0.00    +0.209 HD
ENDBRANCH  20  21
ENDBRANCH  14  20
ENDBRANCH   5  11
BRANCH   1  23
ATOM     23  N   LIG    1       27.852 -13.208   4.615  0.00  0.00    -0.341 N 
ATOM     24  H   LIG    1       28.242 -13.505   5.503  0.00  0.00    +0.144 HD
ATOM     25  H   LIG    1       27.694 -12.219   4.477  0.00  0.00    +0.144 HD
ENDBRANCH   1  23
TORSDOF 6
ENDMDL
MODEL 7
REMARK VINA RESULT:      -2.2      3.804      6.435
REMARK  Name = *****
REMARK                            x       y       z     vdW  Elec       q    Type
REMARK                         _______ _______ _______ _____ _____    ______ ____
ROOT
ATOM      1  C   LIG    1       24.552 -14.159   4.358  0.00  0.00    +0.150 A 
ATOM      2  C   LIG    1       23.733 -15.297   4.438  0.00  0.00    +0.147 A 
ATOM      3  N   LIG    1       22.466 -15.495   4.941  0.00  0.00    -0.231 NA
ATOM      4  C   LIG    1       22.215 -16.770   4.721  0.00  0.00    +0.203 A 
ATOM      5  N   LIG    1       23.258 -17.398   4.095  0.00  0.00    -0.285 N 
ATOM      6  C   LIG    1       24.240 -16.467   3.898  0.00  0.00    +0.170 A 
ATOM      7  N   LIG    1       25.430 -16.636   3.301  0.00  0.00    -0.182 NA
ATOM      8  C   LIG    1       26.126 -15.479   3.275  0.00  0.00    +0.313 A 
ATOM      9  F   LIG    1       27.328 -15.532   2.681  0.00  0.00    -0.161 F 
ATOM     10  N   LIG    1       25.752 -14.269   3.750  0.00  0.00    -0.185 NA
ENDROOT
BRANCH   5  11
ATOM     11  C1* LIG    1       23.326 -18.782   3.681  0.00  0.00    +0.253 C 
ATOM     12  C2* LIG    1       24.703 -19.446   3.805  0.00  0.00    +0.195 C 
ATOM     13  C3* LIG    1       24.317 -20.900   4.052  0.00  0.00    +0.178 C 
ATOM     14  C4* LIG    1       22.998 -20.812   4.825  0.00  0.00    +0.177 C 
ATOM     15  O4* LIG    1       22.374 -19.567   4.439  0.00  0.00    -0.346 OA
BRANCH  12  16
ATOM     16  O2* LIG    1       25.502 -18.944   4.878  0.00  0.00    -0.385 OA
ATOM     17  H2* LIG    1       24.986 -18.259   5.356  0.00  0.00    +0.210 HD
ENDBRANCH  12  16
BRANCH  13  18
ATOM     18  O3* LIG    1       24.105 -21.571   2.802  0.00  0.00    -0.386 OA
ATOM     19  H3* LIG    1       24.581 -21.102   2.093  0.00  0.00    +0.210 HD
ENDBRANCH  13  18
BRANCH  14  20
ATOM     20  C5* LIG    1       23.145 -20.837   6.352  0.00  0.00    +0.190 C 
BRANCH  20  21
ATOM     21  O5* LIG    1       24.498 -21.065   6.744  0.00  0.00    -0.392 OA
ATOM     22  H5* LIG    1       24.708 -21.988   6.499  0.00  0.00    +0.209 HD
ENDBRANCH  20  21
ENDBRANCH  14  20
ENDBRANCH   5  11
BRANCH   1  23
ATOM     23  N   LIG    1       24.170 -12.917   4.848  0.00  0.00    -0.341 N 
ATOM     24  H   LIG    1       23.198 -12.878   5.134  0.00  0.00    +0.144 HD
ATOM     25  H   LIG    1       24.528 -12.153   4.291  0.00  0.00    +0.144 HD
ENDBRANCH   1  23
TORSDOF 6
ENDMDL
MODEL 8
REMARK VINA RESULT:      -2.2      1.588      3.030
REMARK  Name = *****
REMARK                            x       y       z     vdW  Elec       q    Type
REMARK                         _______ _______ _______ _____ _____    ______ ____
ROOT
ATOM      1  C   LIG    1       22.815 -19.108   4.263  0.00  0.00    +0.150 A 
ATOM      2  C   LIG    1       22.983 -17.715   4.311  0.00  0.00    +0.147 A 
ATOM      3  N   LIG    1       22.154 -16.694   4.718  0.00  0.00    -0.231 NA
ATOM      4  C   LIG    1       22.866 -15.598   4.549  0.00  0.00    +0.203 A 
ATOM      5  N   LIG    1       24.116 -15.868   4.058  0.00  0.00    -0.285 N 
ATOM      6  C   LIG    1       24.213 -17.223   3.905  0.00  0.00    +0.170 A 
ATOM      7  N   LIG    1       25.267 -17.931   3.472  0.00  0.00    -0.182 NA
ATOM      8  C   LIG    1       24.995 -19.254   3.474  0.00  0.00    +0.313 A 
ATOM      9  F   LIG    1       25.992 -20.059   3.075  0.00  0.00    -0.161 F 
ATOM     10  N   LIG    1       23.851 -19.870   3.852  0.00  0.00    -0.185 NA
ENDROOT
BRANCH   5  11
ATOM     11  C1* LIG    1       25.168 -14.919   3.772  0.00  0.00    +0.253 C 
ATOM     12  C2* LIG    1       24.902 -13.966   2.600  0.00  0.00    +0.195 C 
ATOM     13  C3* LIG    1       25.698 -12.736   3.022  0.00  0.00    +0.178 C 
ATOM     14  C4* LIG    1       25.618 -12.745   4.551  0.00  0.00    +0.177 C 
ATOM     15  O4* LIG    1       25.444 -14.123   4.950  0.00  0.00    -0.346 OA
BRANCH  12  16
ATOM     16  O2* LIG    1       23.524 -13.638   2.411  0.00  0.00    -0.385 OA
ATOM     17  H2* LIG    1       23.314 -13.718   1.455  0.00  0.00    +0.210 HD
ENDBRANCH  12  16
BRANCH  13  18
ATOM     18  O3* LIG    1       27.064 -12.869   2.605  0.00  0.00    -0.386 OA
ATOM     19  H3* LIG    1       27.171 -13.687   2.087  0.00  0.00    +0.210 HD
ENDBRANCH  13  18
BRANCH  14  20
ATOM     20  C5* LIG    1       24.470 -11.913   5.139  0.00  0.00    +0.190 C 
BRANCH  20  21
ATOM     21  O5* LIG    1       23.585 -11.449   4.122  0.00  0.00    -0.392 OA
ATOM     22  H5* LIG    1       24.101 -11.429   3.291  0.00  0.00    +0.209 HD
ENDBRANCH  20  21
ENDBRANCH  14  20
ENDBRANCH   5  11
BRANCH   1  23
ATOM     23  N   LIG    1       21.640 -19.741   4.648  0.00  0.00    -0.341 N 
ATOM     24  H   LIG    1       21.243 -19.369   5.504  0.00  0.00    +0.144 HD
ATOM     25  H   LIG    1       21.691 -20.747   4.550  0.00  0.00    +0.144 HD
ENDBRANCH   1  23
TORSDOF 6
ENDMDL
MODEL 9
REMARK VINA RESULT:      -1.7      1.968      3.426
REMARK  Name = *****
REMARK                            x       y       z     vdW  Elec       q    Type
REMARK                         _______ _______ _______ _____ _____    ______ ____
ROOT
ATOM      1  C   LIG    1       22.887 -18.270   4.027  0.00  0.00    +0.150 A 
ATOM      2  C   LIG    1       23.489 -17.003   3.979  0.00  0.00    +0.147 A 
ATOM      3  N   LIG    1       23.004 -15.735   4.213  0.00  0.00    -0.231 NA
ATOM      4  C   LIG    1       24.040 -14.941   4.031  0.00  0.00    +0.203 A 
ATOM      5  N   LIG    1       25.170 -15.641   3.698  0.00  0.00    -0.285 N 
ATOM      6  C   LIG    1       24.838 -16.967   3.667  0.00  0.00    +0.170 A 
ATOM      7  N   LIG    1       25.639 -18.012   3.406  0.00  0.00    -0.182 NA
ATOM      8  C   LIG    1       24.957 -19.175   3.487  0.00  0.00    +0.313 A 
ATOM      9  F   LIG    1       25.670 -20.289   3.261  0.00  0.00    -0.161 F 
ATOM     10  N   LIG    1       23.652 -19.357   3.791  0.00  0.00    -0.185 NA
ENDROOT
BRANCH   5  11
ATOM     11  C1* LIG    1       26.489 -15.105   3.448  0.00  0.00    +0.253 C 
ATOM     12  C2* LIG    1       26.531 -13.752   2.725  0.00  0.00    +0.195 C 
ATOM     13  C3* LIG    1       27.820 -13.153   3.276  0.00  0.00    +0.178 C 
ATOM     14  C4* LIG    1       27.915 -13.713   4.699  0.00  0.00    +0.177 C 
ATOM     15  O4* LIG    1       27.210 -14.974   4.696  0.00  0.00    -0.346 OA
BRANCH  12  16
ATOM     16  O2* LIG    1       25.417 -12.902   3.006  0.00  0.00    -0.385 OA
ATOM     17  H2* LIG    1       25.171 -12.431   2.180  0.00  0.00    +0.210 HD
ENDBRANCH  12  16
BRANCH  13  18
ATOM     18  O3* LIG    1       28.940 -13.604   2.501  0.00  0.00    -0.386 OA
ATOM     19  H3* LIG    1       28.763 -13.460   1.554  0.00  0.00    +0.210 HD
ENDBRANCH  13  18
BRANCH  14  20
ATOM     20  C5* LIG    1       27.310 -12.812   5.784  0.00  0.00    +0.190 C 
BRANCH  20  21
ATOM     21  O5* LIG    1       25.885 -12.797   5.718  0.00  0.00    -0.392 OA
ATOM     22  H5* LIG    1       25.566 -12.589   6.619  0.00  0.00    +0.209 HD
ENDBRANCH  20  21
ENDBRANCH  14  20
ENDBRANCH   5  11
BRANCH   1  23
ATOM     23  N   LIG    1       21.546 -18.459   4.337  0.00  0.00    -0.341 N 
ATOM     24  H   LIG    1       20.976 -17.636   4.175  0.00  0.00    +0.144 HD
ATOM     25  H   LIG    1       21.415 -18.960   5.205  0.00  0.00    +0.144 HD
ENDBRANCH   1  23
TORSDOF 6
ENDMDL
