MODEL 1
REMARK VINA RESULT:      -4.1      0.000      0.000
REMARK  Name = *****
REMARK                            x       y       z     vdW  Elec       q    Type
REMARK                         _______ _______ _______ _____ _____    ______ ____
ROOT
ATOM      1  N   LIG    1       23.609 -20.300   3.559  0.00  0.00    -0.179 NA
ATOM      2  C   LIG    1       24.615 -21.022   3.966  0.00  0.00    +0.177 C 
ENDROOT
BRANCH   1   5
ATOM      3  O   LIG    1       25.227 -17.906   3.162  0.00  0.00    -0.224 OA
ATOM      4  C   LIG    1       24.154 -17.935   3.753  0.00  0.00    +0.423 C 
ATOM      5  N   LIG    1       23.408 -19.065   4.118  0.00  0.00    -0.155 N 
ATOM      6  C   LIG    1       22.075 -18.627   4.372  0.00  0.00    +0.179 C 
ATOM      7  C   LIG    1       22.302 -17.212   4.831  0.00  0.00    +0.255 C 
ATOM      8  O   LIG    1       23.478 -16.798   4.126  0.00  0.00    -0.448 OA
ENDBRANCH   1   5
BRANCH   2   9
ATOM      9  C   LIG    1       25.503 -20.796   5.078  0.00  0.00    +0.154 A 
ATOM     10  O   LIG    1       26.684 -20.127   4.882  0.00  0.00    -0.399 OA
ATOM     11  C   LIG    1       27.320 -20.115   6.081  0.00  0.00    +0.438 A 
ATOM     12  C   LIG    1       26.569 -20.716   7.061  0.00  0.00    +0.132 A 
ATOM     13  C   LIG    1       25.377 -21.131   6.416  0.00  0.00    +0.058 A 
BRANCH  11  14
ATOM     14  N   LIG    1       28.622 -19.526   6.103  0.00  0.00    +0.119 N 
ATOM     15  O   LIG    1       29.431 -19.942   6.942  0.00  0.00    -0.574 OA
ATOM     16  O   LIG    1       28.838 -18.645   5.260  0.00  0.00    +0.045 OA
ENDBRANCH  11  14
ENDBRANCH   2   9
TORSDOF 3
ENDMDL
MODEL 2
REMARK VINA RESULT:      -3.8      2.847      4.467
REMARK  Name = *****
REMARK                            x       y       z     vdW  Elec       q    Type
REMARK                         _______ _______ _______ _____ _____    ______ ____
ROOT
ATOM      1  N   LIG    1       24.446 -20.265   3.579  0.00  0.00    -0.179 NA
ATOM      2  C   LIG    1       24.968 -19.301   2.875  0.00  0.00    +0.177 C 
ENDROOT
BRANCH   1   5
ATOM      3  O   LIG    1       22.341 -19.677   5.510  0.00  0.00    -0.224 OA
ATOM      4  C   LIG    1       23.462 -20.081   5.798  0.00  0.00    +0.423 C 
ATOM      5  N   LIG    1       24.564 -20.229   4.944  0.00  0.00    -0.155 N 
ATOM      6  C   LIG    1       25.479 -21.115   5.585  0.00  0.00    +0.179 C 
ATOM      7  C   LIG    1       25.187 -20.855   7.038  0.00  0.00    +0.255 C 
ATOM      8  O   LIG    1       23.799 -20.505   7.061  0.00  0.00    -0.448 OA
ENDBRANCH   1   5
BRANCH   2   9
ATOM      9  C   LIG    1       25.833 -18.230   3.301  0.00  0.00    +0.154 A 
ATOM     10  O   LIG    1       25.519 -16.933   2.986  0.00  0.00    -0.399 OA
ATOM     11  C   LIG    1       26.529 -16.167   3.468  0.00  0.00    +0.438 A 
ATOM     12  C   LIG    1       27.470 -16.920   4.127  0.00  0.00    +0.132 A 
ATOM     13  C   LIG    1       27.002 -18.257   4.044  0.00  0.00    +0.058 A 
BRANCH  11  14
ATOM     14  N   LIG    1       26.453 -14.767   3.190  0.00  0.00    +0.119 N 
ATOM     15  O   LIG    1       26.640 -14.398   2.023  0.00  0.00    -0.574 OA
ATOM     16  O   LIG    1       26.190 -14.032   4.151  0.00  0.00    +0.045 OA
ENDBRANCH  11  14
ENDBRANCH   2   9
TORSDOF 3
ENDMDL
MODEL 3
REMARK VINA RESULT:      -3.5      3.746      5.468
REMARK  Name = *****
REMARK                            x       y       z     vdW  Elec       q    Type
REMARK                         _______ _______ _______ _____ _____    ______ ____
ROOT
ATOM      1  N   LIG    1       24.356 -14.106   4.302  0.00  0.00    -0.179 NA
ATOM      2  C   LIG    1       23.725 -15.231   4.109  0.00  0.00    +0.177 C 
ENDROOT
BRANCH   1   5
ATOM      3  O   LIG    1       25.747 -13.498   1.812  0.00  0.00    -0.224 OA
ATOM      4  C   LIG    1       26.288 -13.617   2.905  0.00  0.00    +0.423 C 
ATOM      5  N   LIG    1       25.711 -14.062   4.103  0.00  0.00    -0.155 N 
ATOM      6  C   LIG    1       26.555 -13.627   5.166  0.00  0.00    +0.179 C 
ATOM      7  C   LIG    1       27.900 -13.590   4.491  0.00  0.00    +0.255 C 
ATOM      8  O   LIG    1       27.600 -13.273   3.127  0.00  0.00    -0.448 OA
ENDBRANCH   1   5
BRANCH   2   9
ATOM      9  C   LIG    1       24.265 -16.544   3.864  0.00  0.00    +0.154 A 
ATOM     10  O   LIG    1       23.498 -17.653   4.113  0.00  0.00    -0.399 OA
ATOM     11  C   LIG    1       24.280 -18.728   3.842  0.00  0.00    +0.438 A 
ATOM     12  C   LIG    1       25.519 -18.353   3.382  0.00  0.00    +0.132 A 
ATOM     13  C   LIG    1       25.498 -16.935   3.368  0.00  0.00    +0.058 A 
BRANCH  11  14
ATOM     14  N   LIG    1       23.708 -20.011   4.102  0.00  0.00    +0.119 N 
ATOM     15  O   LIG    1       22.815 -20.085   4.956  0.00  0.00    -0.574 OA
ATOM     16  O   LIG    1       24.151 -20.954   3.432  0.00  0.00    +0.045 OA
ENDBRANCH  11  14
ENDBRANCH   2   9
TORSDOF 3
ENDMDL
MODEL 4
REMARK VINA RESULT:      -3.5      3.373      4.969
REMARK  Name = *****
REMARK                            x       y       z     vdW  Elec       q    Type
REMARK                         _______ _______ _______ _____ _____    ______ ____
ROOT
ATOM      1  N   LIG    1       26.426 -15.700   3.125  0.00  0.00    -0.179 NA
ATOM      2  C   LIG    1       26.141 -16.969   3.211  0.00  0.00    +0.177 C 
ENDROOT
BRANCH   1   5
ATOM      3  O   LIG    1       26.863 -14.035   5.479  0.00  0.00    -0.224 OA
ATOM      4  C   LIG    1       25.914 -13.926   4.712  0.00  0.00    +0.423 C 
ATOM      5  N   LIG    1       25.558 -14.786   3.663  0.00  0.00    -0.155 N 
ATOM      6  C   LIG    1       24.690 -14.059   2.797  0.00  0.00    +0.179 C 
ATOM      7  C   LIG    1       24.041 -13.096   3.754  0.00  0.00    +0.255 C 
ATOM      8  O   LIG    1       25.041 -12.865   4.752  0.00  0.00    -0.448 OA
ENDBRANCH   1   5
BRANCH   2   9
ATOM      9  C   LIG    1       24.924 -17.598   3.656  0.00  0.00    +0.154 A 
ATOM     10  O   LIG    1       24.884 -18.958   3.831  0.00  0.00    -0.399 OA
ATOM     11  C   LIG    1       23.613 -19.259   4.199  0.00  0.00    +0.438 A 
ATOM     12  C   LIG    1       22.836 -18.133   4.313  0.00  0.00    +0.132 A 
ATOM     13  C   LIG    1       23.696 -17.052   3.990  0.00  0.00    +0.058 A 
BRANCH  11  14
ATOM     14  N   LIG    1       23.313 -20.646   4.368  0.00  0.00    +0.119 N 
ATOM     15  O   LIG    1       22.230 -20.945   4.887  0.00  0.00    -0.574 OA
ATOM     16  O   LIG    1       24.169 -21.444   3.964  0.00  0.00    +0.045 OA
ENDBRANCH  11  14
ENDBRANCH   2   9
TORSDOF 3
ENDMDL
MODEL 5
REMARK VINA RESULT:      -3.4      3.392      4.756
REMARK  Name = *****
REMARK                            x       y       z     vdW  Elec       q    Type
REMARK                         _______ _______ _______ _____ _____    ______ ____
ROOT
ATOM      1  N   LIG    1       26.901 -15.372   3.208  0.00  0.00    -0.179 NA
ATOM      2  C   LIG    1       26.839 -16.671   3.294  0.00  0.00    +0.177 C 
ENDROOT
BRANCH   1   5
ATOM      3  O   LIG    1       26.532 -13.792   5.631  0.00  0.00    -0.224 OA
ATOM      4  C   LIG    1       25.773 -13.785   4.669  0.00  0.00    +0.423 C 
ATOM      5  N   LIG    1       25.801 -14.630   3.551  0.00  0.00    -0.155 N 
ATOM      6  C   LIG    1       25.044 -13.996   2.523  0.00  0.00    +0.179 C 
ATOM      7  C   LIG    1       24.054 -13.195   3.325  0.00  0.00    +0.255 C 
ATOM      8  O   LIG    1       24.756 -12.871   4.529  0.00  0.00    -0.448 OA
ENDBRANCH   1   5
BRANCH   2   9
ATOM      9  C   LIG    1       25.696 -17.511   3.547  0.00  0.00    +0.154 A 
ATOM     10  O   LIG    1       25.873 -18.850   3.785  0.00  0.00    -0.399 OA
ATOM     11  C   LIG    1       24.632 -19.379   3.934  0.00  0.00    +0.438 A 
ATOM     12  C   LIG    1       23.655 -18.418   3.845  0.00  0.00    +0.132 A 
ATOM     13  C   LIG    1       24.348 -17.201   3.623  0.00  0.00    +0.058 A 
BRANCH  11  14
ATOM     14  N   LIG    1       24.564 -20.794   4.122  0.00  0.00    +0.119 N 
ATOM     15  O   LIG    1       25.082 -21.268   5.141  0.00  0.00    -0.574 OA
ATOM     16  O   LIG    1       23.974 -21.435   3.243  0.00  0.00    +0.045 OA
ENDBRANCH  11  14
ENDBRANCH   2   9
TORSDOF 3
ENDMDL
MODEL 6
REMARK VINA RESULT:      -3.4      2.149      4.848
REMARK  Name = *****
REMARK                            x       y       z     vdW  Elec       q    Type
REMARK                         _______ _______ _______ _____ _____    ______ ____
ROOT
ATOM      1  N   LIG    1       22.891 -19.887   4.333  0.00  0.00    -0.179 NA
ATOM      2  C   LIG    1       22.284 -18.757   4.105  0.00  0.00    +0.177 C 
ENDROOT
BRANCH   1   5
ATOM      3  O   LIG    1       23.485 -20.728   7.062  0.00  0.00    -0.224 OA
ATOM      4  C   LIG    1       24.327 -20.434   6.221  0.00  0.00    +0.423 C 
ATOM      5  N   LIG    1       24.113 -19.872   4.954  0.00  0.00    -0.155 N 
ATOM      6  C   LIG    1       25.287 -20.111   4.182  0.00  0.00    +0.179 C 
ATOM      7  C   LIG    1       26.348 -20.152   5.248  0.00  0.00    +0.255 C 
ATOM      8  O   LIG    1       25.670 -20.663   6.401  0.00  0.00    -0.448 OA
ENDBRANCH   1   5
BRANCH   2   9
ATOM      9  C   LIG    1       22.780 -17.413   4.258  0.00  0.00    +0.154 A 
ATOM     10  O   LIG    1       23.988 -17.065   3.709  0.00  0.00    -0.399 OA
ATOM     11  C   LIG    1       24.209 -15.773   4.058  0.00  0.00    +0.438 A 
ATOM     12  C   LIG    1       23.162 -15.254   4.780  0.00  0.00    +0.132 A 
ATOM     13  C   LIG    1       22.221 -16.310   4.884  0.00  0.00    +0.058 A 
BRANCH  11  14
ATOM     14  N   LIG    1       25.459 -15.211   3.652  0.00  0.00    +0.119 N 
ATOM     15  O   LIG    1       26.306 -15.973   3.170  0.00  0.00    -0.574 OA
ATOM     16  O   LIG    1       25.586 -13.989   3.808  0.00  0.00    +0.045 OA
ENDBRANCH  11  14
ENDBRANCH   2   9
TORSDOF 3
ENDMDL
MODEL 7
REMARK VINA RESULT:      -3.3      3.387      5.351
REMARK  Name = *****
REMARK                            x       y       z     vdW  Elec       q    Type
REMARK                         _______ _______ _______ _____ _____    ______ ____
ROOT
ATOM      1  N   LIG    1       26.947 -15.343   3.254  0.00  0.00    -0.179 NA
ATOM      2  C   LIG    1       26.899 -16.644   3.318  0.00  0.00    +0.177 C 
ENDROOT
BRANCH   1   5
ATOM      3  O   LIG    1       26.455 -13.716   5.624  0.00  0.00    -0.224 OA
ATOM      4  C   LIG    1       25.730 -13.751   4.637  0.00  0.00    +0.423 C 
ATOM      5  N   LIG    1       25.818 -14.621   3.541  0.00  0.00    -0.155 N 
ATOM      6  C   LIG    1       25.082 -14.030   2.472  0.00  0.00    +0.179 C 
ATOM      7  C   LIG    1       24.045 -13.236   3.220  0.00  0.00    +0.255 C 
ATOM      8  O   LIG    1       24.697 -12.867   4.440  0.00  0.00    -0.448 OA
ENDBRANCH   1   5
BRANCH   2   9
ATOM      9  C   LIG    1       25.755 -17.502   3.492  0.00  0.00    +0.154 A 
ATOM     10  O   LIG    1       24.531 -16.957   3.782  0.00  0.00    -0.399 OA
ATOM     11  C   LIG    1       23.675 -17.999   3.937  0.00  0.00    +0.438 A 
ATOM     12  C   LIG    1       24.294 -19.204   3.712  0.00  0.00    +0.132 A 
ATOM     13  C   LIG    1       25.638 -18.879   3.394  0.00  0.00    +0.058 A 
BRANCH  11  14
ATOM     14  N   LIG    1       22.339 -17.670   4.321  0.00  0.00    +0.119 N 
ATOM     15  O   LIG    1       21.448 -18.494   4.078  0.00  0.00    -0.574 OA
ATOM     16  O   LIG    1       22.183 -16.578   4.883  0.00  0.00    +0.045 OA
ENDBRANCH  11  14
ENDBRANCH   2   9
TORSDOF 3
ENDMDL
MODEL 8
REMARK VINA RESULT:      -2.8      3.301      5.289
REMARK  Name = *****
REMARK                            x       y       z     vdW  Elec       q    Type
REMARK                         _______ _______ _______ _____ _____    ______ ____
ROOT
ATOM      1  N   LIG    1       24.079 -13.857   4.511  0.00  0.00    -0.179 NA
ATOM      2  C   LIG    1       23.122 -14.729   4.660  0.00  0.00    +0.177 C 
ENDROOT
BRANCH   1   5
ATOM      3  O   LIG    1       24.970 -13.202   1.812  0.00  0.00    -0.224 OA
ATOM      4  C   LIG    1       25.656 -13.763   2.658  0.00  0.00    +0.423 C 
ATOM      5  N   LIG    1       25.246 -14.249   3.908  0.00  0.00    -0.155 N 
ATOM      6  C   LIG    1       26.418 -14.410   4.704  0.00  0.00    +0.179 C 
ATOM      7  C   LIG    1       27.461 -14.690   3.655  0.00  0.00    +0.255 C 
ATOM      8  O   LIG    1       27.006 -13.970   2.505  0.00  0.00    -0.448 OA
ENDBRANCH   1   5
BRANCH   2   9
ATOM      9  C   LIG    1       23.145 -16.151   4.432  0.00  0.00    +0.154 A 
ATOM     10  O   LIG    1       24.300 -16.755   4.007  0.00  0.00    -0.399 OA
ATOM     11  C   LIG    1       24.005 -18.067   3.832  0.00  0.00    +0.438 A 
ATOM     12  C   LIG    1       22.704 -18.346   4.174  0.00  0.00    +0.132 A 
ATOM     13  C   LIG    1       22.155 -17.107   4.592  0.00  0.00    +0.058 A 
BRANCH  11  14
ATOM     14  N   LIG    1       25.052 -18.891   3.316  0.00  0.00    +0.119 N 
ATOM     15  O   LIG    1       26.111 -18.341   2.988  0.00  0.00    -0.574 OA
ATOM     16  O   LIG    1       24.813 -20.104   3.249  0.00  0.00    +0.045 OA
ENDBRANCH  11  14
ENDBRANCH   2   9
TORSDOF 3
ENDMDL
MODEL 9
REMARK VINA RESULT:      -2.7      3.750      5.589
REMARK  Name = *****
REMARK                            x       y       z     vdW  Elec       q    Type
REMARK                         _______ _______ _______ _____ _____    ______ ____
ROOT
ATOM      1  N   LIG    1       23.888 -14.276   4.365  0.00  0.00    -0.179 NA
ATOM      2  C   LIG    1       23.097 -15.300   4.521  0.00  0.00    +0.177 C 
ENDROOT
BRANCH   1   5
ATOM      3  O   LIG    1       24.744 -13.147   1.816  0.00  0.00    -0.224 OA
ATOM      4  C   LIG    1       25.472 -13.756   2.592  0.00  0.00    +0.423 C 
ATOM      5  N   LIG    1       25.097 -14.458   3.746  0.00  0.00    -0.155 N 
ATOM      6  C   LIG    1       26.268 -14.618   4.543  0.00  0.00    +0.179 C 
ATOM      7  C   LIG    1       27.349 -14.637   3.495  0.00  0.00    +0.255 C 
ATOM      8  O   LIG    1       26.838 -13.804   2.448  0.00  0.00    -0.448 OA
ENDBRANCH   1   5
BRANCH   2   9
ATOM      9  C   LIG    1       23.362 -16.696   4.283  0.00  0.00    +0.154 A 
ATOM     10  O   LIG    1       22.502 -17.646   4.772  0.00  0.00    -0.399 OA
ATOM     11  C   LIG    1       23.032 -18.850   4.440  0.00  0.00    +0.438 A 
ATOM     12  C   LIG    1       24.188 -18.713   3.711  0.00  0.00    +0.132 A 
ATOM     13  C   LIG    1       24.386 -17.314   3.584  0.00  0.00    +0.058 A 
BRANCH  11  14
ATOM     14  N   LIG    1       22.336 -20.003   4.915  0.00  0.00    +0.119 N 
ATOM     15  O   LIG    1       21.281 -20.316   4.348  0.00  0.00    -0.574 OA
ATOM     16  O   LIG    1       22.859 -20.608   5.860  0.00  0.00    +0.045 OA
ENDBRANCH  11  14
ENDBRANCH   2   9
TORSDOF 3
ENDMDL
