MODEL 1
REMARK VINA RESULT:      -4.3      0.000      0.000
REMARK  Name = *****
REMARK                            x       y       z     vdW  Elec       q    Type
REMARK                         _______ _______ _______ _____ _____    ______ ____
ROOT
ATOM      1  C   LIG    1       26.042 -15.877   3.447  0.00  0.00    +0.036 A 
ATOM      2  C   LIG    1       27.305 -16.376   3.836  0.00  0.00    +0.027 A 
ATOM      3  C   LIG    1       27.524 -17.731   4.117  0.00  0.00    +0.048 A 
ATOM      4  C   LIG    1       26.480 -18.630   3.988  0.00  0.00    +0.132 A 
ATOM      5  C   LIG    1       25.227 -18.186   3.594  0.00  0.00    +0.048 A 
ATOM      6  C   LIG    1       25.018 -16.828   3.320  0.00  0.00    +0.027 A 
ENDROOT
BRANCH   1   8
ATOM      7  C   LIG    1       26.908 -13.770   2.468  0.00  0.00    +0.138 C 
ATOM      8  N   LIG    1       25.846 -14.445   3.231  0.00  0.00    -0.272 N 
ATOM      9  C   LIG    1       24.706 -13.749   3.717  0.00  0.00    +0.252 C 
ATOM     10  O   LIG    1       23.762 -14.300   4.293  0.00  0.00    -0.272 OA
BRANCH   9  11
ATOM     11  C   LIG    1       24.642 -12.228   3.499  0.00  0.00    +0.257 C 
ATOM     12 CL   LIG    1       23.523 -11.468   4.667  0.00  0.00    -0.095 Cl
ATOM     13 CL   LIG    1       24.087 -11.922   1.838  0.00  0.00    -0.095 Cl
ENDBRANCH   9  11
ENDBRANCH   1   8
BRANCH   4  14
ATOM     14  O   LIG    1       26.569 -19.992   4.316  0.00  0.00    -0.420 OA
BRANCH  14  15
ATOM     15  C   LIG    1       26.459 -20.467   5.622  0.00  0.00    +0.380 C 
ATOM     16  O   LIG    1       27.378 -20.572   6.430  0.00  0.00    -0.241 OA
BRANCH  15  17
ATOM     17  C   LIG    1       25.088 -20.821   5.880  0.00  0.00    +0.212 A 
ATOM     18  O   LIG    1       24.276 -21.220   4.850  0.00  0.00    -0.456 OA
ATOM     19  C   LIG    1       23.059 -21.500   5.378  0.00  0.00    +0.196 A 
ATOM     20  C   LIG    1       23.062 -21.282   6.733  0.00  0.00    +0.042 A 
ATOM     21  C   LIG    1       24.365 -20.840   7.061  0.00  0.00    +0.056 A 
ENDBRANCH  15  17
ENDBRANCH  14  15
ENDBRANCH   4  14
TORSDOF 5
ENDMDL
MODEL 2
REMARK VINA RESULT:      -3.4      1.153      2.188
REMARK  Name = *****
REMARK                            x       y       z     vdW  Elec       q    Type
REMARK                         _______ _______ _______ _____ _____    ______ ____
ROOT
ATOM      1  C   LIG    1       25.382 -16.064   3.511  0.00  0.00    +0.036 A 
ATOM      2  C   LIG    1       26.491 -16.897   3.242  0.00  0.00    +0.027 A 
ATOM      3  C   LIG    1       26.415 -18.294   3.310  0.00  0.00    +0.048 A 
ATOM      4  C   LIG    1       25.210 -18.896   3.625  0.00  0.00    +0.132 A 
ATOM      5  C   LIG    1       24.092 -18.117   3.882  0.00  0.00    +0.048 A 
ATOM      6  C   LIG    1       24.180 -16.721   3.816  0.00  0.00    +0.027 A 
ENDROOT
BRANCH   1   8
ATOM      7  C   LIG    1       26.912 -14.113   3.457  0.00  0.00    +0.138 C 
ATOM      8  N   LIG    1       25.527 -14.610   3.495  0.00  0.00    -0.272 N 
ATOM      9  C   LIG    1       24.410 -13.731   3.510  0.00  0.00    +0.252 C 
ATOM     10  O   LIG    1       23.237 -14.116   3.464  0.00  0.00    -0.272 OA
BRANCH   9  11
ATOM     11  C   LIG    1       24.681 -12.219   3.570  0.00  0.00    +0.257 C 
ATOM     12 CL   LIG    1       23.839 -11.480   4.962  0.00  0.00    -0.095 Cl
ATOM     13 CL   LIG    1       24.111 -11.485   2.055  0.00  0.00    -0.095 Cl
ENDBRANCH   9  11
ENDBRANCH   1   8
BRANCH   4  14
ATOM     14  O   LIG    1       25.042 -20.279   3.793  0.00  0.00    -0.420 OA
BRANCH  14  15
ATOM     15  C   LIG    1       24.913 -20.882   5.044  0.00  0.00    +0.380 C 
ATOM     16  O   LIG    1       23.883 -21.364   5.508  0.00  0.00    -0.241 OA
BRANCH  15  17
ATOM     17  C   LIG    1       26.186 -20.852   5.714  0.00  0.00    +0.212 A 
ATOM     18  O   LIG    1       27.194 -20.055   5.238  0.00  0.00    -0.456 OA
ATOM     19  C   LIG    1       28.260 -20.213   6.061  0.00  0.00    +0.196 A 
ATOM     20  C   LIG    1       27.966 -21.105   7.062  0.00  0.00    +0.042 A 
ATOM     21  C   LIG    1       26.632 -21.524   6.840  0.00  0.00    +0.056 A 
ENDBRANCH  15  17
ENDBRANCH  14  15
ENDBRANCH   4  14
TORSDOF 5
ENDMDL
MODEL 3
REMARK VINA RESULT:      -3.4      3.903      7.106
REMARK  Name = *****
REMARK                            x       y       z     vdW  Elec       q    Type
REMARK                         _______ _______ _______ _____ _____    ______ ____
ROOT
ATOM      1  C   LIG    1       25.419 -18.561   4.126  0.00  0.00    +0.036 A 
ATOM      2  C   LIG    1       24.602 -17.495   3.692  0.00  0.00    +0.027 A 
ATOM      3  C   LIG    1       25.129 -16.263   3.281  0.00  0.00    +0.048 A 
ATOM      4  C   LIG    1       26.500 -16.079   3.270  0.00  0.00    +0.132 A 
ATOM      5  C   LIG    1       27.341 -17.105   3.674  0.00  0.00    +0.048 A 
ATOM      6  C   LIG    1       26.803 -18.331   4.088  0.00  0.00    +0.027 A 
ENDROOT
BRANCH   1   8
ATOM      7  C   LIG    1       25.759 -20.915   4.828  0.00  0.00    +0.138 C 
ATOM      8  N   LIG    1       24.820 -19.803   4.611  0.00  0.00    -0.272 N 
ATOM      9  C   LIG    1       23.426 -19.931   4.863  0.00  0.00    +0.252 C 
ATOM     10  O   LIG    1       22.625 -18.996   4.765  0.00  0.00    -0.272 OA
BRANCH   9  11
ATOM     11  C   LIG    1       22.895 -21.307   5.297  0.00  0.00    +0.257 C 
ATOM     12 CL   LIG    1       21.183 -21.502   4.825  0.00  0.00    -0.095 Cl
ATOM     13 CL   LIG    1       23.058 -21.442   7.062  0.00  0.00    -0.095 Cl
ENDBRANCH   9  11
ENDBRANCH   1   8
BRANCH   4  14
ATOM     14  O   LIG    1       27.129 -14.866   2.950  0.00  0.00    -0.420 OA
BRANCH  14  15
ATOM     15  C   LIG    1       27.094 -13.750   3.784  0.00  0.00    +0.380 C 
ATOM     16  O   LIG    1       27.994 -13.383   4.534  0.00  0.00    -0.241 OA
BRANCH  15  17
ATOM     17  C   LIG    1       25.826 -13.086   3.629  0.00  0.00    +0.212 A 
ATOM     18  O   LIG    1       25.061 -12.801   4.730  0.00  0.00    -0.456 OA
ATOM     19  C   LIG    1       23.942 -12.171   4.295  0.00  0.00    +0.196 A 
ATOM     20  C   LIG    1       23.962 -12.047   2.928  0.00  0.00    +0.042 A 
ATOM     21  C   LIG    1       25.172 -12.638   2.493  0.00  0.00    +0.056 A 
ENDBRANCH  15  17
ENDBRANCH  14  15
ENDBRANCH   4  14
TORSDOF 5
ENDMDL
MODEL 4
REMARK VINA RESULT:      -1.5      4.054      7.267
REMARK  Name = *****
REMARK                            x       y       z     vdW  Elec       q    Type
REMARK                         _______ _______ _______ _____ _____    ______ ____
ROOT
ATOM      1  C   LIG    1       25.032 -18.552   4.013  0.00  0.00    +0.036 A 
ATOM      2  C   LIG    1       26.424 -18.411   3.818  0.00  0.00    +0.027 A 
ATOM      3  C   LIG    1       26.997 -17.235   3.317  0.00  0.00    +0.048 A 
ATOM      4  C   LIG    1       26.186 -16.154   3.023  0.00  0.00    +0.132 A 
ATOM      5  C   LIG    1       24.815 -16.243   3.213  0.00  0.00    +0.048 A 
ATOM      6  C   LIG    1       24.251 -17.426   3.710  0.00  0.00    +0.027 A 
ENDROOT
BRANCH   1   8
ATOM      7  C   LIG    1       25.402 -20.963   4.457  0.00  0.00    +0.138 C 
ATOM      8  N   LIG    1       24.474 -19.822   4.473  0.00  0.00    -0.272 N 
ATOM      9  C   LIG    1       23.127 -19.950   4.912  0.00  0.00    +0.252 C 
ATOM     10  O   LIG    1       22.347 -18.998   5.010  0.00  0.00    -0.272 OA
BRANCH   9  11
ATOM     11  C   LIG    1       22.624 -21.350   5.299  0.00  0.00    +0.257 C 
ATOM     12 CL   LIG    1       20.923 -21.572   4.802  0.00  0.00    -0.095 Cl
ATOM     13 CL   LIG    1       22.771 -21.531   7.062  0.00  0.00    -0.095 Cl
ENDBRANCH   9  11
ENDBRANCH   1   8
BRANCH   4  14
ATOM     14  O   LIG    1       26.644 -14.959   2.447  0.00  0.00    -0.420 OA
BRANCH  14  15
ATOM     15  C   LIG    1       26.255 -13.699   2.900  0.00  0.00    +0.380 C 
ATOM     16  O   LIG    1       25.290 -13.056   2.497  0.00  0.00    -0.241 OA
BRANCH  15  17
ATOM     17  C   LIG    1       27.168 -13.263   3.924  0.00  0.00    +0.212 A 
ATOM     18  O   LIG    1       28.129 -12.330   3.634  0.00  0.00    -0.456 OA
ATOM     19  C   LIG    1       28.829 -12.101   4.773  0.00  0.00    +0.196 A 
ATOM     20  C   LIG    1       28.344 -12.876   5.798  0.00  0.00    +0.042 A 
ATOM     21  C   LIG    1       27.277 -13.630   5.255  0.00  0.00    +0.056 A 
ENDBRANCH  15  17
ENDBRANCH  14  15
ENDBRANCH   4  14
TORSDOF 5
ENDMDL
