MODEL 1
REMARK VINA RESULT:      -8.5      0.000      0.000
REMARK  Name = *****
REMARK                            x       y       z     vdW  Elec       q    Type
REMARK                         _______ _______ _______ _____ _____    ______ ____
ROOT
ATOM      1  C   LIG    1       26.238 -20.647   8.650  0.00  0.00    +0.062 C 
ATOM      2  C   LIG    1       26.440 -20.498   7.147  0.00  0.00    +0.021 C 
ATOM      3  C   LIG    1       25.377 -20.621   6.287  0.00  0.00    +0.015 C 
ENDROOT
BRANCH   2   4
ATOM      4  N   LIG    1       27.773 -20.254   6.744  0.00  0.00    -0.273 N 
ATOM      5  C   LIG    1       28.077 -19.444   5.660  0.00  0.00    +0.333 C 
ATOM      6  O   LIG    1       29.219 -19.206   5.240  0.00  0.00    -0.279 OA
BRANCH   4   7
ATOM      7  C   LIG    1       28.902 -20.845   7.502  0.00  0.00    +0.153 C 
BRANCH   7   8
ATOM      8  C   LIG    1       29.795 -19.916   8.283  0.00  0.00    +0.028 A 
ATOM      9  C   LIG    1       31.097 -20.236   8.642  0.00  0.00    +0.124 A 
ATOM     10  N   LIG    1       31.944 -19.377   9.226  0.00  0.00    -0.218 NA
ATOM     11  C   LIG    1       31.491 -18.140   9.481  0.00  0.00    +0.128 A 
ATOM     12  C   LIG    1       32.431 -17.178  10.137  0.00  0.00    +0.088 C 
ATOM     13  N   LIG    1       30.257 -17.713   9.176  0.00  0.00    -0.240 NA
ATOM     14  C   LIG    1       29.444 -18.610   8.575  0.00  0.00    +0.121 A 
BRANCH   9  15
ATOM     15  N   LIG    1       31.650 -21.497   8.426  0.00  0.00    -0.343 N 
ATOM     16  H   LIG    1       32.100 -21.852   9.262  0.00  0.00    +0.144 HD
ATOM     17  H   LIG    1       32.347 -21.358   7.693  0.00  0.00    +0.144 HD
ENDBRANCH   9  15
ENDBRANCH   7   8
ENDBRANCH   4   7
ENDBRANCH   2   4
BRANCH   3  18
ATOM     18  S   LIG    1       23.733 -20.720   6.991  0.00  0.00    -0.060 S 
BRANCH  18  19
ATOM     19  S   LIG    1       23.149 -22.660   6.554  0.00  0.00    -0.086 S 
BRANCH  19  20
ATOM     20  C   LIG    1       24.613 -23.674   6.967  0.00  0.00    +0.113 C 
BRANCH  20  21
ATOM     21  C   LIG    1       24.903 -24.785   5.940  0.00  0.00    +0.129 C 
ATOM     22  O   LIG    1       23.800 -25.721   5.980  0.00  0.00    -0.376 OA
ATOM     23  C   LIG    1       24.312 -27.052   6.087  0.00  0.00    +0.160 C 
ATOM     24  C   LIG    1       25.684 -26.930   6.699  0.00  0.00    +0.030 C 
ATOM     25  C   LIG    1       26.175 -25.594   6.193  0.00  0.00    +0.035 C 
ENDBRANCH  20  21
ENDBRANCH  19  20
ENDBRANCH  18  19
ENDBRANCH   3  18
BRANCH   3  26
ATOM     26  C   LIG    1       25.436 -20.782   4.764  0.00  0.00    +0.072 C 
BRANCH  26  27
ATOM     27  C   LIG    1       24.754 -19.718   3.884  0.00  0.00    +0.161 C 
BRANCH  27  28
ATOM     28  O   LIG    1       25.675 -18.783   3.335  0.00  0.00    -0.395 OA
ATOM     29  H   LIG    1       26.506 -18.855   3.835  0.00  0.00    +0.209 HD
ENDBRANCH  27  28
ENDBRANCH  26  27
ENDBRANCH   3  26
TORSDOF 11
ENDMDL
MODEL 2
REMARK VINA RESULT:      -8.4      4.011      8.630
REMARK  Name = *****
REMARK                            x       y       z     vdW  Elec       q    Type
REMARK                         _______ _______ _______ _____ _____    ______ ____
ROOT
ATOM      1  C   LIG    1       28.117 -19.527   5.572  0.00  0.00    +0.062 C 
ATOM      2  C   LIG    1       28.229 -20.259   6.903  0.00  0.00    +0.021 C 
ATOM      3  C   LIG    1       29.454 -20.443   7.495  0.00  0.00    +0.015 C 
ENDROOT
BRANCH   2   4
ATOM      4  N   LIG    1       27.005 -20.727   7.434  0.00  0.00    -0.273 N 
ATOM      5  C   LIG    1       26.580 -20.391   8.711  0.00  0.00    +0.333 C 
ATOM      6  O   LIG    1       25.531 -20.784   9.244  0.00  0.00    -0.279 OA
BRANCH   4   7
ATOM      7  C   LIG    1       26.113 -21.579   6.611  0.00  0.00    +0.153 C 
BRANCH   7   8
ATOM      8  C   LIG    1       24.958 -20.922   5.902  0.00  0.00    +0.028 A 
ATOM      9  C   LIG    1       23.679 -20.849   6.436  0.00  0.00    +0.124 A 
ATOM     10  N   LIG    1       22.673 -20.162   5.877  0.00  0.00    -0.218 NA
ATOM     11  C   LIG    1       22.929 -19.516   4.729  0.00  0.00    +0.128 A 
ATOM     12  C   LIG    1       21.808 -18.751   4.099  0.00  0.00    +0.088 C 
ATOM     13  N   LIG    1       24.125 -19.507   4.121  0.00  0.00    -0.240 NA
ATOM     14  C   LIG    1       25.111 -20.202   4.730  0.00  0.00    +0.121 A 
BRANCH   9  15
ATOM     15  N   LIG    1       23.318 -21.494   7.618  0.00  0.00    -0.343 N 
ATOM     16  H   LIG    1       23.075 -22.464   7.451  0.00  0.00    +0.144 HD
ATOM     17  H   LIG    1       22.500 -20.988   7.957  0.00  0.00    +0.144 HD
ENDBRANCH   9  15
ENDBRANCH   7   8
ENDBRANCH   4   7
ENDBRANCH   2   4
BRANCH   3  18
ATOM     18  S   LIG    1       30.866 -19.600   6.785  0.00  0.00    -0.060 S 
BRANCH  18  19
ATOM     19  S   LIG    1       31.727 -18.663   8.421  0.00  0.00    -0.086 S 
BRANCH  19  20
ATOM     20  C   LIG    1       30.355 -17.717   9.171  0.00  0.00    +0.113 C 
BRANCH  20  21
ATOM     21  C   LIG    1       30.819 -16.477   9.959  0.00  0.00    +0.129 C 
ATOM     22  O   LIG    1       32.030 -15.987   9.337  0.00  0.00    -0.376 OA
ATOM     23  C   LIG    1       33.025 -15.773  10.342  0.00  0.00    +0.160 C 
ATOM     24  C   LIG    1       32.657 -16.667  11.499  0.00  0.00    +0.030 C 
ATOM     25  C   LIG    1       31.149 -16.723  11.431  0.00  0.00    +0.035 C 
ENDBRANCH  20  21
ENDBRANCH  19  20
ENDBRANCH  18  19
ENDBRANCH   3  18
BRANCH   3  26
ATOM     26  C   LIG    1       29.784 -21.381   8.662  0.00  0.00    +0.072 C 
BRANCH  26  27
ATOM     27  C   LIG    1       31.128 -22.133   8.645  0.00  0.00    +0.161 C 
BRANCH  27  28
ATOM     28  O   LIG    1       31.903 -21.904   9.816  0.00  0.00    -0.395 OA
ATOM     29  H   LIG    1       31.292 -21.689  10.541  0.00  0.00    +0.209 HD
ENDBRANCH  27  28
ENDBRANCH  26  27
ENDBRANCH   3  26
TORSDOF 11
ENDMDL
MODEL 3
REMARK VINA RESULT:      -7.9      3.663      8.207
REMARK  Name = *****
REMARK                            x       y       z     vdW  Elec       q    Type
REMARK                         _______ _______ _______ _____ _____    ______ ____
ROOT
ATOM      1  C   LIG    1       26.385 -19.599   4.496  0.00  0.00    +0.062 C 
ATOM      2  C   LIG    1       26.056 -20.522   5.662  0.00  0.00    +0.021 C 
ATOM      3  C   LIG    1       27.020 -20.847   6.585  0.00  0.00    +0.015 C 
ENDROOT
BRANCH   2   4
ATOM      4  N   LIG    1       24.728 -21.005   5.687  0.00  0.00    -0.273 N 
ATOM      5  C   LIG    1       23.738 -20.398   6.447  0.00  0.00    +0.333 C 
ATOM      6  O   LIG    1       22.562 -20.782   6.531  0.00  0.00    -0.279 OA
BRANCH   4   7
ATOM      7  C   LIG    1       24.345 -22.176   4.862  0.00  0.00    +0.153 C 
BRANCH   7   8
ATOM      8  C   LIG    1       24.538 -23.551   5.447  0.00  0.00    +0.028 A 
ATOM      9  C   LIG    1       23.573 -24.198   6.204  0.00  0.00    +0.124 A 
ATOM     10  N   LIG    1       23.678 -25.466   6.626  0.00  0.00    -0.218 NA
ATOM     11  C   LIG    1       24.794 -26.135   6.296  0.00  0.00    +0.128 A 
ATOM     12  C   LIG    1       24.919 -27.550   6.768  0.00  0.00    +0.088 C 
ATOM     13  N   LIG    1       25.792 -25.619   5.564  0.00  0.00    -0.240 NA
ATOM     14  C   LIG    1       25.633 -24.343   5.149  0.00  0.00    +0.121 A 
BRANCH   9  15
ATOM     15  N   LIG    1       22.388 -23.581   6.602  0.00  0.00    -0.343 N 
ATOM     16  H   LIG    1       22.064 -22.918   5.907  0.00  0.00    +0.144 HD
ATOM     17  H   LIG    1       22.623 -23.087   7.464  0.00  0.00    +0.144 HD
ENDBRANCH   9  15
ENDBRANCH   7   8
ENDBRANCH   4   7
ENDBRANCH   2   4
BRANCH   3  18
ATOM     18  S   LIG    1       28.583 -19.977   6.511  0.00  0.00    -0.060 S 
BRANCH  18  19
ATOM     19  S   LIG    1       29.710 -20.907   7.980  0.00  0.00    -0.086 S 
BRANCH  19  20
ATOM     20  C   LIG    1       31.158 -19.812   8.199  0.00  0.00    +0.113 C 
BRANCH  20  21
ATOM     21  C   LIG    1       30.798 -18.315   8.239  0.00  0.00    +0.129 C 
ATOM     22  O   LIG    1       32.035 -17.564   8.244  0.00  0.00    -0.376 OA
ATOM     23  C   LIG    1       31.991 -16.589   9.289  0.00  0.00    +0.160 C 
ATOM     24  C   LIG    1       31.000 -17.099  10.304  0.00  0.00    +0.030 C 
ATOM     25  C   LIG    1       30.005 -17.865   9.465  0.00  0.00    +0.035 C 
ENDBRANCH  20  21
ENDBRANCH  19  20
ENDBRANCH  18  19
ENDBRANCH   3  18
BRANCH   3  26
ATOM     26  C   LIG    1       26.951 -21.960   7.637  0.00  0.00    +0.072 C 
BRANCH  26  27
ATOM     27  C   LIG    1       25.901 -21.850   8.758  0.00  0.00    +0.161 C 
BRANCH  27  28
ATOM     28  O   LIG    1       25.944 -20.598   9.433  0.00  0.00    -0.395 OA
ATOM     29  H   LIG    1       26.507 -19.999   8.914  0.00  0.00    +0.209 HD
ENDBRANCH  27  28
ENDBRANCH  26  27
ENDBRANCH   3  26
TORSDOF 11
ENDMDL
MODEL 4
REMARK VINA RESULT:      -7.9      3.270      8.276
REMARK  Name = *****
REMARK                            x       y       z     vdW  Elec       q    Type
REMARK                         _______ _______ _______ _____ _____    ______ ____
ROOT
ATOM      1  C   LIG    1       26.121 -20.517   8.751  0.00  0.00    +0.062 C 
ATOM      2  C   LIG    1       26.627 -20.490   7.315  0.00  0.00    +0.021 C 
ATOM      3  C   LIG    1       27.939 -20.188   7.045  0.00  0.00    +0.015 C 
ENDROOT
BRANCH   2   4
ATOM      4  N   LIG    1       25.653 -20.773   6.331  0.00  0.00    -0.273 N 
ATOM      5  C   LIG    1       25.781 -20.339   5.020  0.00  0.00    +0.333 C 
ATOM      6  O   LIG    1       24.956 -20.533   4.116  0.00  0.00    -0.279 OA
BRANCH   4   7
ATOM      7  C   LIG    1       24.460 -21.585   6.676  0.00  0.00    +0.153 C 
BRANCH   7   8
ATOM      8  C   LIG    1       24.595 -23.086   6.663  0.00  0.00    +0.028 A 
ATOM      9  C   LIG    1       23.511 -23.946   6.571  0.00  0.00    +0.124 A 
ATOM     10  N   LIG    1       23.621 -25.275   6.433  0.00  0.00    -0.218 NA
ATOM     11  C   LIG    1       24.859 -25.792   6.392  0.00  0.00    +0.128 A 
ATOM     12  C   LIG    1       24.986 -27.275   6.244  0.00  0.00    +0.088 C 
ATOM     13  N   LIG    1       25.981 -25.062   6.466  0.00  0.00    -0.240 NA
ATOM     14  C   LIG    1       25.820 -23.726   6.589  0.00  0.00    +0.121 A 
BRANCH   9  15
ATOM     15  N   LIG    1       22.190 -23.502   6.614  0.00  0.00    -0.343 N 
ATOM     16  H   LIG    1       21.908 -23.095   5.729  0.00  0.00    +0.144 HD
ATOM     17  H   LIG    1       22.175 -22.787   7.342  0.00  0.00    +0.144 HD
ENDBRANCH   9  15
ENDBRANCH   7   8
ENDBRANCH   4   7
ENDBRANCH   2   4
BRANCH   3  18
ATOM     18  S   LIG    1       29.075 -20.064   8.425  0.00  0.00    -0.060 S 
BRANCH  18  19
ATOM     19  S   LIG    1       30.848 -19.481   7.525  0.00  0.00    -0.086 S 
BRANCH  19  20
ATOM     20  C   LIG    1       31.888 -18.900   8.912  0.00  0.00    +0.113 C 
BRANCH  20  21
ATOM     21  C   LIG    1       31.822 -17.378   9.137  0.00  0.00    +0.129 C 
ATOM     22  O   LIG    1       32.965 -17.002   9.942  0.00  0.00    -0.376 OA
ATOM     23  C   LIG    1       32.527 -16.184  11.030  0.00  0.00    +0.160 C 
ATOM     24  C   LIG    1       31.075 -16.520  11.256  0.00  0.00    +0.030 C 
ATOM     25  C   LIG    1       30.581 -16.878   9.874  0.00  0.00    +0.035 C 
ENDBRANCH  20  21
ENDBRANCH  19  20
ENDBRANCH  18  19
ENDBRANCH   3  18
BRANCH   3  26
ATOM     26  C   LIG    1       28.545 -19.842   5.680  0.00  0.00    +0.072 C 
BRANCH  26  27
ATOM     27  C   LIG    1       28.962 -18.384   5.407  0.00  0.00    +0.161 C 
BRANCH  27  28
ATOM     28  O   LIG    1       28.234 -17.793   4.337  0.00  0.00    -0.395 OA
ATOM     29  H   LIG    1       27.323 -18.131   4.373  0.00  0.00    +0.209 HD
ENDBRANCH  27  28
ENDBRANCH  26  27
ENDBRANCH   3  26
TORSDOF 11
ENDMDL
MODEL 5
REMARK VINA RESULT:      -7.9      3.357      7.720
REMARK  Name = *****
REMARK                            x       y       z     vdW  Elec       q    Type
REMARK                         _______ _______ _______ _____ _____    ______ ____
ROOT
ATOM      1  C   LIG    1       26.632 -20.221   8.119  0.00  0.00    +0.062 C 
ATOM      2  C   LIG    1       26.001 -20.464   6.755  0.00  0.00    +0.021 C 
ATOM      3  C   LIG    1       26.658 -20.090   5.608  0.00  0.00    +0.015 C 
ENDROOT
BRANCH   2   4
ATOM      4  N   LIG    1       24.722 -21.066   6.785  0.00  0.00    -0.273 N 
ATOM      5  C   LIG    1       23.684 -20.628   5.976  0.00  0.00    +0.333 C 
ATOM      6  O   LIG    1       22.535 -21.095   5.967  0.00  0.00    -0.279 OA
BRANCH   4   7
ATOM      7  C   LIG    1       24.463 -22.222   7.675  0.00  0.00    +0.153 C 
BRANCH   7   8
ATOM      8  C   LIG    1       24.646 -23.608   7.111  0.00  0.00    +0.028 A 
ATOM      9  C   LIG    1       23.605 -24.357   6.583  0.00  0.00    +0.124 A 
ATOM     10  N   LIG    1       23.771 -25.536   5.966  0.00  0.00    -0.218 NA
ATOM     11  C   LIG    1       25.022 -26.012   5.869  0.00  0.00    +0.128 A 
ATOM     12  C   LIG    1       25.211 -27.330   5.185  0.00  0.00    +0.088 C 
ATOM     13  N   LIG    1       26.106 -25.377   6.335  0.00  0.00    -0.240 NA
ATOM     14  C   LIG    1       25.891 -24.185   6.936  0.00  0.00    +0.121 A 
BRANCH   9  15
ATOM     15  N   LIG    1       22.274 -23.948   6.645  0.00  0.00    -0.343 N 
ATOM     16  H   LIG    1       22.073 -23.238   5.951  0.00  0.00    +0.144 HD
ATOM     17  H   LIG    1       22.161 -23.557   7.581  0.00  0.00    +0.144 HD
ENDBRANCH   9  15
ENDBRANCH   7   8
ENDBRANCH   4   7
ENDBRANCH   2   4
BRANCH   3  18
ATOM     18  S   LIG    1       28.355 -19.536   5.754  0.00  0.00    -0.060 S 
BRANCH  18  19
ATOM     19  S   LIG    1       29.203 -20.943   7.019  0.00  0.00    -0.086 S 
BRANCH  19  20
ATOM     20  C   LIG    1       30.725 -20.139   7.632  0.00  0.00    +0.113 C 
BRANCH  20  21
ATOM     21  C   LIG    1       30.585 -18.616   7.822  0.00  0.00    +0.129 C 
ATOM     22  O   LIG    1       31.918 -18.060   7.918  0.00  0.00    -0.376 OA
ATOM     23  C   LIG    1       31.988 -17.198   9.058  0.00  0.00    +0.160 C 
ATOM     24  C   LIG    1       30.907 -17.656  10.003  0.00  0.00    +0.030 C 
ATOM     25  C   LIG    1       29.834 -18.181   9.079  0.00  0.00    +0.035 C 
ENDBRANCH  20  21
ENDBRANCH  19  20
ENDBRANCH  18  19
ENDBRANCH   3  18
BRANCH   3  26
ATOM     26  C   LIG    1       26.070 -19.998   4.195  0.00  0.00    +0.072 C 
BRANCH  26  27
ATOM     27  C   LIG    1       25.390 -18.685   3.766  0.00  0.00    +0.161 C 
BRANCH  27  28
ATOM     28  O   LIG    1       26.266 -17.816   3.057  0.00  0.00    -0.395 OA
ATOM     29  H   LIG    1       25.742 -17.064   2.733  0.00  0.00    +0.209 HD
ENDBRANCH  27  28
ENDBRANCH  26  27
ENDBRANCH   3  26
TORSDOF 11
ENDMDL
MODEL 6
REMARK VINA RESULT:      -7.8      3.607      8.570
REMARK  Name = *****
REMARK                            x       y       z     vdW  Elec       q    Type
REMARK                         _______ _______ _______ _____ _____    ______ ____
ROOT
ATOM      1  C   LIG    1       27.959 -19.182   5.573  0.00  0.00    +0.062 C 
ATOM      2  C   LIG    1       28.049 -20.033   6.833  0.00  0.00    +0.021 C 
ATOM      3  C   LIG    1       29.273 -20.381   7.350  0.00  0.00    +0.015 C 
ENDROOT
BRANCH   2   4
ATOM      4  N   LIG    1       26.807 -20.428   7.379  0.00  0.00    -0.273 N 
ATOM      5  C   LIG    1       26.557 -20.391   8.743  0.00  0.00    +0.333 C 
ATOM      6  O   LIG    1       25.501 -20.743   9.289  0.00  0.00    -0.279 OA
BRANCH   4   7
ATOM      7  C   LIG    1       25.707 -20.870   6.488  0.00  0.00    +0.153 C 
BRANCH   7   8
ATOM      8  C   LIG    1       25.518 -22.350   6.275  0.00  0.00    +0.028 A 
ATOM      9  C   LIG    1       24.854 -22.881   5.179  0.00  0.00    +0.124 A 
ATOM     10  N   LIG    1       24.784 -24.193   4.910  0.00  0.00    -0.218 NA
ATOM     11  C   LIG    1       25.390 -25.031   5.766  0.00  0.00    +0.128 A 
ATOM     12  C   LIG    1       25.311 -26.497   5.473  0.00  0.00    +0.088 C 
ATOM     13  N   LIG    1       26.066 -24.636   6.854  0.00  0.00    -0.240 NA
ATOM     14  C   LIG    1       26.121 -23.304   7.075  0.00  0.00    +0.121 A 
BRANCH   9  15
ATOM     15  N   LIG    1       24.188 -22.090   4.244  0.00  0.00    -0.343 N 
ATOM     16  H   LIG    1       24.835 -21.675   3.583  0.00  0.00    +0.144 HD
ATOM     17  H   LIG    1       23.737 -21.356   4.791  0.00  0.00    +0.144 HD
ENDBRANCH   9  15
ENDBRANCH   7   8
ENDBRANCH   4   7
ENDBRANCH   2   4
BRANCH   3  18
ATOM     18  S   LIG    1       30.732 -19.616   6.647  0.00  0.00    -0.060 S 
BRANCH  18  19
ATOM     19  S   LIG    1       31.623 -18.710   8.284  0.00  0.00    -0.086 S 
BRANCH  19  20
ATOM     20  C   LIG    1       30.254 -17.823   9.109  0.00  0.00    +0.113 C 
BRANCH  20  21
ATOM     21  C   LIG    1       30.707 -16.572   9.884  0.00  0.00    +0.129 C 
ATOM     22  O   LIG    1       31.928 -16.093   9.273  0.00  0.00    -0.376 OA
ATOM     23  C   LIG    1       32.907 -15.865  10.291  0.00  0.00    +0.160 C 
ATOM     24  C   LIG    1       32.519 -16.739  11.456  0.00  0.00    +0.030 C 
ATOM     25  C   LIG    1       31.013 -16.794  11.364  0.00  0.00    +0.035 C 
ENDBRANCH  20  21
ENDBRANCH  19  20
ENDBRANCH  18  19
ENDBRANCH   3  18
BRANCH   3  26
ATOM     26  C   LIG    1       29.554 -21.443   8.421  0.00  0.00    +0.072 C 
BRANCH  26  27
ATOM     27  C   LIG    1       31.014 -21.701   8.836  0.00  0.00    +0.161 C 
BRANCH  27  28
ATOM     28  O   LIG    1       31.155 -21.955  10.228  0.00  0.00    -0.395 OA
ATOM     29  H   LIG    1       30.297 -21.782  10.651  0.00  0.00    +0.209 HD
ENDBRANCH  27  28
ENDBRANCH  26  27
ENDBRANCH   3  26
TORSDOF 11
ENDMDL
MODEL 7
REMARK VINA RESULT:      -7.6      2.086      2.658
REMARK  Name = *****
REMARK                            x       y       z     vdW  Elec       q    Type
REMARK                         _______ _______ _______ _____ _____    ______ ____
ROOT
ATOM      1  C   LIG    1       28.131 -19.117   5.324  0.00  0.00    +0.062 C 
ATOM      2  C   LIG    1       27.917 -20.203   6.370  0.00  0.00    +0.021 C 
ATOM      3  C   LIG    1       26.704 -20.837   6.477  0.00  0.00    +0.015 C 
ENDROOT
BRANCH   2   4
ATOM      4  N   LIG    1       29.034 -20.467   7.196  0.00  0.00    -0.273 N 
ATOM      5  C   LIG    1       29.102 -21.592   8.004  0.00  0.00    +0.333 C 
ATOM      6  O   LIG    1       30.039 -21.872   8.767  0.00  0.00    -0.279 OA
BRANCH   4   7
ATOM      7  C   LIG    1       30.196 -19.546   7.194  0.00  0.00    +0.153 C 
BRANCH   7   8
ATOM      8  C   LIG    1       30.459 -18.732   8.434  0.00  0.00    +0.028 A 
ATOM      9  C   LIG    1       31.461 -19.036   9.345  0.00  0.00    +0.124 A 
ATOM     10  N   LIG    1       31.789 -18.255  10.384  0.00  0.00    -0.218 NA
ATOM     11  C   LIG    1       31.092 -17.119  10.547  0.00  0.00    +0.128 A 
ATOM     12  C   LIG    1       31.451 -16.246  11.708  0.00  0.00    +0.088 C 
ATOM     13  N   LIG    1       30.108 -16.717   9.730  0.00  0.00    -0.240 NA
ATOM     14  C   LIG    1       29.824 -17.529   8.688  0.00  0.00    +0.121 A 
BRANCH   9  15
ATOM     15  N   LIG    1       32.229 -20.196   9.262  0.00  0.00    -0.343 N 
ATOM     16  H   LIG    1       31.694 -20.967   8.879  0.00  0.00    +0.144 HD
ATOM     17  H   LIG    1       32.496 -20.406  10.224  0.00  0.00    +0.144 HD
ENDBRANCH   9  15
ENDBRANCH   7   8
ENDBRANCH   4   7
ENDBRANCH   2   4
BRANCH   3  18
ATOM     18  S   LIG    1       25.476 -20.521   5.212  0.00  0.00    -0.060 S 
BRANCH  18  19
ATOM     19  S   LIG    1       24.049 -21.982   5.565  0.00  0.00    -0.086 S 
BRANCH  19  20
ATOM     20  C   LIG    1       24.830 -23.525   4.972  0.00  0.00    +0.113 C 
BRANCH  20  21
ATOM     21  C   LIG    1       25.034 -24.578   6.078  0.00  0.00    +0.129 C 
ATOM     22  O   LIG    1       26.318 -25.208   5.854  0.00  0.00    -0.376 OA
ATOM     23  C   LIG    1       26.161 -26.629   5.904  0.00  0.00    +0.160 C 
ATOM     24  C   LIG    1       24.717 -26.908   5.574  0.00  0.00    +0.030 C 
ATOM     25  C   LIG    1       23.995 -25.697   6.116  0.00  0.00    +0.035 C 
ENDBRANCH  20  21
ENDBRANCH  19  20
ENDBRANCH  18  19
ENDBRANCH   3  18
BRANCH   3  26
ATOM     26  C   LIG    1       26.227 -21.731   7.628  0.00  0.00    +0.072 C 
BRANCH  26  27
ATOM     27  C   LIG    1       25.406 -21.093   8.764  0.00  0.00    +0.161 C 
BRANCH  27  28
ATOM     28  O   LIG    1       26.173 -20.203   9.566  0.00  0.00    -0.395 OA
ATOM     29  H   LIG    1       26.296 -19.380   9.064  0.00  0.00    +0.209 HD
ENDBRANCH  27  28
ENDBRANCH  26  27
ENDBRANCH   3  26
TORSDOF 11
ENDMDL
MODEL 8
REMARK VINA RESULT:      -7.5      1.307      3.802
REMARK  Name = *****
REMARK                            x       y       z     vdW  Elec       q    Type
REMARK                         _______ _______ _______ _____ _____    ______ ____
ROOT
ATOM      1  C   LIG    1       26.106 -20.311   8.707  0.00  0.00    +0.062 C 
ATOM      2  C   LIG    1       26.550 -21.184   7.541  0.00  0.00    +0.021 C 
ATOM      3  C   LIG    1       25.851 -22.322   7.219  0.00  0.00    +0.015 C 
ENDROOT
BRANCH   2   4
ATOM      4  N   LIG    1       27.710 -20.740   6.867  0.00  0.00    -0.273 N 
ATOM      5  C   LIG    1       27.648 -19.879   5.781  0.00  0.00    +0.333 C 
ATOM      6  O   LIG    1       28.622 -19.469   5.133  0.00  0.00    -0.279 OA
BRANCH   4   7
ATOM      7  C   LIG    1       29.052 -21.166   7.334  0.00  0.00    +0.153 C 
BRANCH   7   8
ATOM      8  C   LIG    1       29.866 -20.188   8.141  0.00  0.00    +0.028 A 
ATOM      9  C   LIG    1       31.121 -20.485   8.655  0.00  0.00    +0.124 A 
ATOM     10  N   LIG    1       31.909 -19.589   9.266  0.00  0.00    -0.218 NA
ATOM     11  C   LIG    1       31.442 -18.337   9.389  0.00  0.00    +0.128 A 
ATOM     12  C   LIG    1       32.316 -17.335  10.075  0.00  0.00    +0.088 C 
ATOM     13  N   LIG    1       30.250 -17.931   8.929  0.00  0.00    -0.240 NA
ATOM     14  C   LIG    1       29.497 -18.865   8.307  0.00  0.00    +0.121 A 
BRANCH   9  15
ATOM     15  N   LIG    1       31.683 -21.758   8.582  0.00  0.00    -0.343 N 
ATOM     16  H   LIG    1       32.690 -21.725   8.698  0.00  0.00    +0.144 HD
ATOM     17  H   LIG    1       31.457 -22.094   7.645  0.00  0.00    +0.144 HD
ENDBRANCH   9  15
ENDBRANCH   7   8
ENDBRANCH   4   7
ENDBRANCH   2   4
BRANCH   3  18
ATOM     18  S   LIG    1       24.289 -22.612   8.046  0.00  0.00    -0.060 S 
BRANCH  18  19
ATOM     19  S   LIG    1       22.902 -22.404   6.521  0.00  0.00    -0.086 S 
BRANCH  19  20
ATOM     20  C   LIG    1       22.985 -20.633   6.075  0.00  0.00    +0.113 C 
BRANCH  20  21
ATOM     21  C   LIG    1       23.048 -20.381   4.557  0.00  0.00    +0.129 C 
ATOM     22  O   LIG    1       24.298 -20.924   4.072  0.00  0.00    -0.376 OA
ATOM     23  C   LIG    1       24.955 -19.945   3.261  0.00  0.00    +0.160 C 
ATOM     24  C   LIG    1       24.426 -18.605   3.703  0.00  0.00    +0.030 C 
ATOM     25  C   LIG    1       23.012 -18.913   4.136  0.00  0.00    +0.035 C 
ENDBRANCH  20  21
ENDBRANCH  19  20
ENDBRANCH  18  19
ENDBRANCH   3  18
BRANCH   3  26
ATOM     26  C   LIG    1       26.303 -23.448   6.282  0.00  0.00    +0.072 C 
BRANCH  26  27
ATOM     27  C   LIG    1       25.820 -24.882   6.568  0.00  0.00    +0.161 C 
BRANCH  27  28
ATOM     28  O   LIG    1       26.509 -25.861   5.798  0.00  0.00    -0.395 OA
ATOM     29  H   LIG    1       25.918 -26.144   5.080  0.00  0.00    +0.209 HD
ENDBRANCH  27  28
ENDBRANCH  26  27
ENDBRANCH   3  26
TORSDOF 11
ENDMDL
MODEL 9
REMARK VINA RESULT:      -7.5      3.338      7.998
REMARK  Name = *****
REMARK                            x       y       z     vdW  Elec       q    Type
REMARK                         _______ _______ _______ _____ _____    ______ ____
ROOT
ATOM      1  C   LIG    1       26.200 -20.551   8.837  0.00  0.00    +0.062 C 
ATOM      2  C   LIG    1       26.890 -20.829   7.508  0.00  0.00    +0.021 C 
ATOM      3  C   LIG    1       28.056 -20.181   7.181  0.00  0.00    +0.015 C 
ENDROOT
BRANCH   2   4
ATOM      4  N   LIG    1       26.231 -21.760   6.674  0.00  0.00    -0.273 N 
ATOM      5  C   LIG    1       25.847 -23.013   7.128  0.00  0.00    +0.333 C 
ATOM      6  O   LIG    1       25.286 -23.883   6.445  0.00  0.00    -0.279 OA
BRANCH   4   7
ATOM      7  C   LIG    1       25.898 -21.401   5.274  0.00  0.00    +0.153 C 
BRANCH   7   8
ATOM      8  C   LIG    1       24.728 -20.483   5.035  0.00  0.00    +0.028 A 
ATOM      9  C   LIG    1       24.759 -19.430   4.132  0.00  0.00    +0.124 A 
ATOM     10  N   LIG    1       23.692 -18.683   3.817  0.00  0.00    -0.218 NA
ATOM     11  C   LIG    1       22.532 -18.976   4.425  0.00  0.00    +0.128 A 
ATOM     12  C   LIG    1       21.338 -18.141   4.080  0.00  0.00    +0.088 C 
ATOM     13  N   LIG    1       22.377 -19.971   5.310  0.00  0.00    -0.240 NA
ATOM     14  C   LIG    1       23.477 -20.706   5.584  0.00  0.00    +0.121 A 
BRANCH   9  15
ATOM     15  N   LIG    1       25.919 -19.047   3.460  0.00  0.00    -0.343 N 
ATOM     16  H   LIG    1       26.743 -19.188   4.034  0.00  0.00    +0.144 HD
ATOM     17  H   LIG    1       25.799 -18.052   3.269  0.00  0.00    +0.144 HD
ENDBRANCH   9  15
ENDBRANCH   7   8
ENDBRANCH   4   7
ENDBRANCH   2   4
BRANCH   3  18
ATOM     18  S   LIG    1       28.854 -19.196   8.446  0.00  0.00    -0.060 S 
BRANCH  18  19
ATOM     19  S   LIG    1       30.782 -19.957   8.489  0.00  0.00    -0.086 S 
BRANCH  19  20
ATOM     20  C   LIG    1       31.839 -18.532   8.052  0.00  0.00    +0.113 C 
BRANCH  20  21
ATOM     21  C   LIG    1       32.249 -17.673   9.264  0.00  0.00    +0.129 C 
ATOM     22  O   LIG    1       31.897 -18.405  10.462  0.00  0.00    -0.376 OA
ATOM     23  C   LIG    1       31.177 -17.544  11.348  0.00  0.00    +0.160 C 
ATOM     24  C   LIG    1       30.567 -16.466  10.488  0.00  0.00    +0.030 C 
ATOM     25  C   LIG    1       31.563 -16.312   9.363  0.00  0.00    +0.035 C 
ENDBRANCH  20  21
ENDBRANCH  19  20
ENDBRANCH  18  19
ENDBRANCH   3  18
BRANCH   3  26
ATOM     26  C   LIG    1       28.723 -20.120   5.801  0.00  0.00    +0.072 C 
BRANCH  26  27
ATOM     27  C   LIG    1       29.366 -18.795   5.352  0.00  0.00    +0.161 C 
BRANCH  27  28
ATOM     28  O   LIG    1       28.471 -17.969   4.616  0.00  0.00    -0.395 OA
ATOM     29  H   LIG    1       28.376 -18.350   3.727  0.00  0.00    +0.209 HD
ENDBRANCH  27  28
ENDBRANCH  26  27
ENDBRANCH   3  26
TORSDOF 11
ENDMDL
