MODEL 1
REMARK VINA RESULT:     -10.3      0.000      0.000
REMARK  Name = *****
REMARK                            x       y       z     vdW  Elec       q    Type
REMARK                         _______ _______ _______ _____ _____    ______ ____
ROOT
ATOM      1  C   LIG    1       24.934 -23.201   5.994  0.00  0.00    +0.089 C 
ENDROOT
BRANCH   1   2
ATOM      2  N   LIG    1       24.595 -24.400   6.780  0.00  0.00    -0.302 NA
ATOM      3  C   LIG    1       23.635 -25.323   6.164  0.00  0.00    +0.085 C 
ATOM      4  C   LIG    1       24.229 -26.227   5.081  0.00  0.00    +0.025 C 
ATOM      5  C   LIG    1       25.398 -27.058   5.626  0.00  0.00    +0.044 C 
ATOM      6  C   LIG    1       26.419 -26.091   6.251  0.00  0.00    +0.025 C 
ATOM      7  C   LIG    1       25.790 -25.115   7.262  0.00  0.00    +0.085 C 
BRANCH   5   8
ATOM      8  C   LIG    1       24.941 -28.173   6.545  0.00  0.00    +0.095 A 
ATOM      9  C   LIG    1       25.474 -28.572   7.808  0.00  0.00    +0.045 A 
ATOM     10  C   LIG    1       24.698 -29.665   8.165  0.00  0.00    +0.170 A 
ATOM     11  C   LIG    1       24.852 -30.410   9.327  0.00  0.00    +0.088 A 
ATOM     12  C   LIG    1       25.870 -29.989  10.176  0.00  0.00    +0.127 A 
ATOM     13  C   LIG    1       26.680 -28.894   9.874  0.00  0.00    +0.039 A 
ATOM     14  F   LIG    1       26.076 -30.657  11.319  0.00  0.00    -0.205 F 
ATOM     15  O   LIG    1       23.768 -29.889   7.206  0.00  0.00    -0.354 OA
ATOM     16  C   LIG    1       26.500 -28.170   8.684  0.00  0.00    +0.016 A 
ATOM     17  N   LIG    1       23.909 -28.958   6.205  0.00  0.00    -0.082 NA
ENDBRANCH   5   8
ENDBRANCH   1   2
BRANCH   1  18
ATOM     18  C   LIG    1       25.006 -21.901   6.827  0.00  0.00    +0.058 C 
BRANCH  18  21
ATOM     19  C   LIG    1       25.535 -20.118   4.357  0.00  0.00    +0.066 C 
ATOM     20  C   LIG    1       26.499 -20.309   5.500  0.00  0.00    +0.049 C 
ATOM     21  C   LIG    1       26.251 -21.090   6.564  0.00  0.00    +0.039 C 
ATOM     22  C   LIG    1       27.336 -21.213   7.572  0.00  0.00    +0.258 C 
ATOM     23  O   LIG    1       27.136 -21.847   8.624  0.00  0.00    -0.267 OA
ATOM     24  N   LIG    1       28.526 -20.597   7.286  0.00  0.00    -0.294 N 
ATOM     25  C   LIG    1       29.584 -20.679   8.289  0.00  0.00    +0.127 C 
ATOM     26  C   LIG    1       30.952 -20.232   7.793  0.00  0.00    +0.025 C 
ATOM     27  C   LIG    1       30.819 -18.872   7.139  0.00  0.00    +0.041 C 
ATOM     28  C   LIG    1       29.909 -18.983   5.931  0.00  0.00    +0.180 C 
ATOM     29  C   LIG    1       28.614 -19.761   6.206  0.00  0.00    +0.141 C 
ATOM     30  N   LIG    1       27.661 -19.602   5.333  0.00  0.00    -0.236 NA
BRANCH  28  31
ATOM     31  O   LIG    1       29.586 -17.668   5.487  0.00  0.00    -0.384 OA
ATOM     32  H   LIG    1       28.949 -17.328   6.149  0.00  0.00    +0.210 HD
ENDBRANCH  28  31
ENDBRANCH  18  21
ENDBRANCH   1  18
TORSDOF 5
ENDMDL
MODEL 2
REMARK VINA RESULT:      -9.3      1.240      1.968
REMARK  Name = *****
REMARK                            x       y       z     vdW  Elec       q    Type
REMARK                         _______ _______ _______ _____ _____    ______ ____
ROOT
ATOM      1  C   LIG    1       24.876 -23.311   5.631  0.00  0.00    +0.089 C 
ENDROOT
BRANCH   1   2
ATOM      2  N   LIG    1       24.541 -24.441   6.514  0.00  0.00    -0.302 NA
ATOM      3  C   LIG    1       23.618 -25.439   5.960  0.00  0.00    +0.085 C 
ATOM      4  C   LIG    1       24.261 -26.423   4.980  0.00  0.00    +0.025 C 
ATOM      5  C   LIG    1       25.431 -27.174   5.627  0.00  0.00    +0.044 C 
ATOM      6  C   LIG    1       26.414 -26.130   6.188  0.00  0.00    +0.025 C 
ATOM      7  C   LIG    1       25.737 -25.081   7.089  0.00  0.00    +0.085 C 
BRANCH   5   8
ATOM      8  C   LIG    1       24.973 -28.211   6.633  0.00  0.00    +0.095 A 
ATOM      9  C   LIG    1       25.524 -28.530   7.910  0.00  0.00    +0.045 A 
ATOM     10  C   LIG    1       24.735 -29.579   8.359  0.00  0.00    +0.170 A 
ATOM     11  C   LIG    1       24.900 -30.243   9.569  0.00  0.00    +0.088 A 
ATOM     12  C   LIG    1       25.942 -29.783  10.366  0.00  0.00    +0.127 A 
ATOM     13  C   LIG    1       26.765 -28.728   9.971  0.00  0.00    +0.039 A 
ATOM     14  F   LIG    1       26.158 -30.371  11.550  0.00  0.00    -0.205 F 
ATOM     15  O   LIG    1       23.783 -29.853   7.436  0.00  0.00    -0.354 OA
ATOM     16  C   LIG    1       26.574 -28.086   8.736  0.00  0.00    +0.016 A 
ATOM     17  N   LIG    1       23.920 -28.998   6.369  0.00  0.00    -0.082 NA
ENDBRANCH   5   8
ENDBRANCH   1   2
BRANCH   1  18
ATOM     18  C   LIG    1       24.717 -21.925   6.295  0.00  0.00    +0.058 C 
BRANCH  18  21
ATOM     19  C   LIG    1       25.848 -22.244   9.156  0.00  0.00    +0.066 C 
ATOM     20  C   LIG    1       26.526 -21.483   8.045  0.00  0.00    +0.049 C 
ATOM     21  C   LIG    1       26.017 -21.355   6.809  0.00  0.00    +0.039 C 
ATOM     22  C   LIG    1       26.787 -20.520   5.851  0.00  0.00    +0.258 C 
ATOM     23  O   LIG    1       26.418 -20.435   4.665  0.00  0.00    -0.267 OA
ATOM     24  N   LIG    1       27.898 -19.879   6.334  0.00  0.00    -0.294 N 
ATOM     25  C   LIG    1       28.683 -19.089   5.390  0.00  0.00    +0.127 C 
ATOM     26  C   LIG    1       29.718 -18.183   6.042  0.00  0.00    +0.025 C 
ATOM     27  C   LIG    1       30.549 -19.001   7.010  0.00  0.00    +0.041 C 
ATOM     28  C   LIG    1       29.652 -19.536   8.111  0.00  0.00    +0.180 C 
ATOM     29  C   LIG    1       28.353 -20.167   7.593  0.00  0.00    +0.141 C 
ATOM     30  N   LIG    1       27.718 -20.931   8.435  0.00  0.00    -0.236 NA
BRANCH  28  31
ATOM     31  O   LIG    1       30.384 -20.505   8.857  0.00  0.00    -0.384 OA
ATOM     32  H   LIG    1       31.054 -19.989   9.351  0.00  0.00    +0.210 HD
ENDBRANCH  28  31
ENDBRANCH  18  21
ENDBRANCH   1  18
TORSDOF 5
ENDMDL
MODEL 3
REMARK VINA RESULT:      -9.2      4.182      9.649
REMARK  Name = *****
REMARK                            x       y       z     vdW  Elec       q    Type
REMARK                         _______ _______ _______ _____ _____    ______ ____
ROOT
ATOM      1  C   LIG    1       25.849 -25.761   7.284  0.00  0.00    +0.089 C 
ENDROOT
BRANCH   1   2
ATOM      2  N   LIG    1       25.544 -24.704   6.305  0.00  0.00    -0.302 NA
ATOM      3  C   LIG    1       24.157 -24.649   5.828  0.00  0.00    +0.085 C 
ATOM      4  C   LIG    1       23.176 -23.997   6.806  0.00  0.00    +0.025 C 
ATOM      5  C   LIG    1       23.607 -22.569   7.163  0.00  0.00    +0.044 C 
ATOM      6  C   LIG    1       25.054 -22.626   7.686  0.00  0.00    +0.025 C 
ATOM      7  C   LIG    1       26.011 -23.378   6.743  0.00  0.00    +0.085 C 
BRANCH   5   8
ATOM      8  C   LIG    1       23.387 -21.593   6.025  0.00  0.00    +0.095 A 
ATOM      9  C   LIG    1       24.330 -20.737   5.379  0.00  0.00    +0.045 A 
ATOM     10  C   LIG    1       23.566 -20.042   4.453  0.00  0.00    +0.170 A 
ATOM     11  C   LIG    1       24.049 -19.070   3.586  0.00  0.00    +0.088 A 
ATOM     12  C   LIG    1       25.413 -18.811   3.679  0.00  0.00    +0.127 A 
ATOM     13  C   LIG    1       26.233 -19.483   4.585  0.00  0.00    +0.039 A 
ATOM     14  F   LIG    1       25.952 -17.890   2.870  0.00  0.00    -0.205 F 
ATOM     15  O   LIG    1       22.279 -20.457   4.527  0.00  0.00    -0.354 OA
ATOM     16  C   LIG    1       25.706 -20.454   5.454  0.00  0.00    +0.016 A 
ATOM     17  N   LIG    1       22.167 -21.429   5.493  0.00  0.00    -0.082 NA
ENDBRANCH   5   8
ENDBRANCH   1   2
BRANCH   1  18
ATOM     18  C   LIG    1       26.257 -27.110   6.648  0.00  0.00    +0.058 C 
BRANCH  18  21
ATOM     19  C   LIG    1       23.904 -28.583   5.285  0.00  0.00    +0.066 C 
ATOM     20  C   LIG    1       24.477 -28.942   6.632  0.00  0.00    +0.049 C 
ATOM     21  C   LIG    1       25.499 -28.289   7.208  0.00  0.00    +0.039 C 
ATOM     22  C   LIG    1       25.901 -28.737   8.567  0.00  0.00    +0.258 C 
ATOM     23  O   LIG    1       26.897 -28.234   9.117  0.00  0.00    -0.267 OA
ATOM     24  N   LIG    1       25.138 -29.714   9.152  0.00  0.00    -0.294 N 
ATOM     25  C   LIG    1       25.549 -30.188  10.470  0.00  0.00    +0.127 C 
ATOM     26  C   LIG    1       24.511 -31.048  11.178  0.00  0.00    +0.025 C 
ATOM     27  C   LIG    1       24.055 -32.144  10.236  0.00  0.00    +0.041 C 
ATOM     28  C   LIG    1       23.385 -31.520   9.027  0.00  0.00    +0.180 C 
ATOM     29  C   LIG    1       24.177 -30.355   8.418  0.00  0.00    +0.141 C 
ATOM     30  N   LIG    1       23.838 -30.009   7.210  0.00  0.00    -0.236 NA
BRANCH  28  31
ATOM     31  O   LIG    1       23.199 -32.532   8.041  0.00  0.00    -0.384 OA
ATOM     32  H   LIG    1       23.029 -33.352   8.550  0.00  0.00    +0.210 HD
ENDBRANCH  28  31
ENDBRANCH  18  21
ENDBRANCH   1  18
TORSDOF 5
ENDMDL
MODEL 4
REMARK VINA RESULT:      -8.7      4.136      9.953
REMARK  Name = *****
REMARK                            x       y       z     vdW  Elec       q    Type
REMARK                         _______ _______ _______ _____ _____    ______ ____
ROOT
ATOM      1  C   LIG    1       25.462 -30.424   6.432  0.00  0.00    +0.089 C 
ENDROOT
BRANCH   1   2
ATOM      2  N   LIG    1       24.614 -29.231   6.598  0.00  0.00    -0.302 NA
ATOM      3  C   LIG    1       24.998 -28.313   7.677  0.00  0.00    +0.085 C 
ATOM      4  C   LIG    1       26.181 -27.401   7.344  0.00  0.00    +0.025 C 
ATOM      5  C   LIG    1       25.904 -26.561   6.090  0.00  0.00    +0.044 C 
ATOM      6  C   LIG    1       25.524 -27.522   4.949  0.00  0.00    +0.025 C 
ATOM      7  C   LIG    1       24.405 -28.507   5.331  0.00  0.00    +0.085 C 
BRANCH   5   8
ATOM      8  C   LIG    1       24.900 -25.454   6.340  0.00  0.00    +0.095 A 
ATOM      9  C   LIG    1       25.131 -24.109   6.760  0.00  0.00    +0.045 A 
ATOM     10  C   LIG    1       23.857 -23.572   6.869  0.00  0.00    +0.170 A 
ATOM     11  C   LIG    1       23.567 -22.273   7.268  0.00  0.00    +0.088 A 
ATOM     12  C   LIG    1       24.671 -21.479   7.561  0.00  0.00    +0.127 A 
ATOM     13  C   LIG    1       25.976 -21.961   7.463  0.00  0.00    +0.039 A 
ATOM     14  F   LIG    1       24.470 -20.212   7.947  0.00  0.00    -0.205 F 
ATOM     15  O   LIG    1       22.942 -24.511   6.528  0.00  0.00    -0.354 OA
ATOM     16  C   LIG    1       26.229 -23.284   7.066  0.00  0.00    +0.016 A 
ATOM     17  N   LIG    1       23.587 -25.676   6.187  0.00  0.00    -0.082 NA
ENDBRANCH   5   8
ENDBRANCH   1   2
BRANCH   1  18
ATOM     18  C   LIG    1       24.837 -31.722   6.993  0.00  0.00    +0.058 C 
BRANCH  18  21
ATOM     19  C   LIG    1       27.312 -32.839   8.473  0.00  0.00    +0.066 C 
ATOM     20  C   LIG    1       26.059 -32.344   9.149  0.00  0.00    +0.049 C 
ATOM     21  C   LIG    1       24.994 -31.863   8.488  0.00  0.00    +0.039 C 
ATOM     22  C   LIG    1       23.817 -31.473   9.307  0.00  0.00    +0.258 C 
ATOM     23  O   LIG    1       22.833 -30.937   8.765  0.00  0.00    -0.267 OA
ATOM     24  N   LIG    1       23.883 -31.722  10.653  0.00  0.00    -0.294 N 
ATOM     25  C   LIG    1       22.748 -31.305  11.471  0.00  0.00    +0.127 C 
ATOM     26  C   LIG    1       22.758 -31.864  12.886  0.00  0.00    +0.025 C 
ATOM     27  C   LIG    1       24.111 -31.592  13.514  0.00  0.00    +0.041 C 
ATOM     28  C   LIG    1       25.184 -32.320  12.727  0.00  0.00    +0.180 C 
ATOM     29  C   LIG    1       25.064 -32.136  11.208  0.00  0.00    +0.141 C 
ATOM     30  N   LIG    1       26.123 -32.441  10.515  0.00  0.00    -0.236 NA
BRANCH  28  31
ATOM     31  O   LIG    1       26.458 -31.851  13.162  0.00  0.00    -0.384 OA
ATOM     32  H   LIG    1       26.378 -31.769  14.135  0.00  0.00    +0.210 HD
ENDBRANCH  28  31
ENDBRANCH  18  21
ENDBRANCH   1  18
TORSDOF 5
ENDMDL
MODEL 5
REMARK VINA RESULT:      -8.7      4.202      9.997
REMARK  Name = *****
REMARK                            x       y       z     vdW  Elec       q    Type
REMARK                         _______ _______ _______ _____ _____    ______ ____
ROOT
ATOM      1  C   LIG    1       25.620 -26.003   7.157  0.00  0.00    +0.089 C 
ENDROOT
BRANCH   1   2
ATOM      2  N   LIG    1       25.337 -24.928   6.191  0.00  0.00    -0.302 NA
ATOM      3  C   LIG    1       23.931 -24.768   5.801  0.00  0.00    +0.085 C 
ATOM      4  C   LIG    1       23.065 -24.040   6.832  0.00  0.00    +0.025 C 
ATOM      5  C   LIG    1       23.627 -22.648   7.152  0.00  0.00    +0.044 C 
ATOM      6  C   LIG    1       25.094 -22.815   7.585  0.00  0.00    +0.025 C 
ATOM      7  C   LIG    1       25.931 -23.640   6.590  0.00  0.00    +0.085 C 
BRANCH   5   8
ATOM      8  C   LIG    1       23.412 -21.661   6.023  0.00  0.00    +0.095 A 
ATOM      9  C   LIG    1       24.357 -20.798   5.391  0.00  0.00    +0.045 A 
ATOM     10  C   LIG    1       23.598 -20.093   4.468  0.00  0.00    +0.170 A 
ATOM     11  C   LIG    1       24.085 -19.112   3.613  0.00  0.00    +0.088 A 
ATOM     12  C   LIG    1       25.448 -18.853   3.717  0.00  0.00    +0.127 A 
ATOM     13  C   LIG    1       26.264 -19.534   4.621  0.00  0.00    +0.039 A 
ATOM     14  F   LIG    1       25.991 -17.923   2.920  0.00  0.00    -0.205 F 
ATOM     15  O   LIG    1       22.311 -20.511   4.531  0.00  0.00    -0.354 OA
ATOM     16  C   LIG    1       25.733 -20.514   5.476  0.00  0.00    +0.016 A 
ATOM     17  N   LIG    1       22.194 -21.492   5.486  0.00  0.00    -0.082 NA
ENDBRANCH   5   8
ENDBRANCH   1   2
BRANCH   1  18
ATOM     18  C   LIG    1       26.150 -27.304   6.513  0.00  0.00    +0.058 C 
BRANCH  18  21
ATOM     19  C   LIG    1       26.620 -28.194   9.437  0.00  0.00    +0.066 C 
ATOM     20  C   LIG    1       25.802 -28.959   8.429  0.00  0.00    +0.049 C 
ATOM     21  C   LIG    1       25.610 -28.556   7.162  0.00  0.00    +0.039 C 
ATOM     22  C   LIG    1       24.826 -29.460   6.282  0.00  0.00    +0.258 C 
ATOM     23  O   LIG    1       24.536 -29.104   5.126  0.00  0.00    -0.267 OA
ATOM     24  N   LIG    1       24.444 -30.667   6.810  0.00  0.00    -0.294 N 
ATOM     25  C   LIG    1       23.637 -31.544   5.967  0.00  0.00    +0.127 C 
ATOM     26  C   LIG    1       23.497 -32.964   6.496  0.00  0.00    +0.025 C 
ATOM     27  C   LIG    1       23.050 -32.909   7.943  0.00  0.00    +0.041 C 
ATOM     28  C   LIG    1       24.115 -32.216   8.771  0.00  0.00    +0.180 C 
ATOM     29  C   LIG    1       24.630 -30.913   8.144  0.00  0.00    +0.141 C 
ATOM     30  N   LIG    1       25.276 -30.115   8.944  0.00  0.00    -0.236 NA
BRANCH  28  31
ATOM     31  O   LIG    1       23.575 -31.939  10.060  0.00  0.00    -0.384 OA
ATOM     32  H   LIG    1       23.420 -30.972  10.066  0.00  0.00    +0.210 HD
ENDBRANCH  28  31
ENDBRANCH  18  21
ENDBRANCH   1  18
TORSDOF 5
ENDMDL
MODEL 6
REMARK VINA RESULT:      -8.6      3.162      9.852
REMARK  Name = *****
REMARK                            x       y       z     vdW  Elec       q    Type
REMARK                         _______ _______ _______ _____ _____    ______ ____
ROOT
ATOM      1  C   LIG    1       24.309 -26.830   6.234  0.00  0.00    +0.089 C 
ENDROOT
BRANCH   1   2
ATOM      2  N   LIG    1       24.907 -25.624   5.636  0.00  0.00    -0.302 NA
ATOM      3  C   LIG    1       23.989 -24.506   5.386  0.00  0.00    +0.085 C 
ATOM      4  C   LIG    1       23.633 -23.688   6.630  0.00  0.00    +0.025 C 
ATOM      5  C   LIG    1       24.889 -23.122   7.305  0.00  0.00    +0.044 C 
ATOM      6  C   LIG    1       25.845 -24.295   7.591  0.00  0.00    +0.025 C 
ATOM      7  C   LIG    1       26.112 -25.175   6.356  0.00  0.00    +0.085 C 
BRANCH   5   8
ATOM      8  C   LIG    1       25.508 -21.982   6.523  0.00  0.00    +0.095 A 
ATOM      9  C   LIG    1       26.795 -21.384   6.671  0.00  0.00    +0.045 A 
ATOM     10  C   LIG    1       26.800 -20.367   5.728  0.00  0.00    +0.170 A 
ATOM     11  C   LIG    1       27.851 -19.486   5.506  0.00  0.00    +0.088 A 
ATOM     12  C   LIG    1       28.972 -19.680   6.306  0.00  0.00    +0.127 A 
ATOM     13  C   LIG    1       29.029 -20.690   7.267  0.00  0.00    +0.039 A 
ATOM     14  F   LIG    1       30.028 -18.872   6.145  0.00  0.00    -0.205 F 
ATOM     15  O   LIG    1       25.621 -20.367   5.061  0.00  0.00    -0.354 OA
ATOM     16  C   LIG    1       27.942 -21.556   7.470  0.00  0.00    +0.016 A 
ATOM     17  N   LIG    1       24.822 -21.376   5.543  0.00  0.00    -0.082 NA
ENDBRANCH   5   8
ENDBRANCH   1   2
BRANCH   1  18
ATOM     18  C   LIG    1       25.117 -28.124   5.983  0.00  0.00    +0.058 C 
BRANCH  18  21
ATOM     19  C   LIG    1       26.532 -27.980   8.729  0.00  0.00    +0.066 C 
ATOM     20  C   LIG    1       25.601 -29.086   8.299  0.00  0.00    +0.049 C 
ATOM     21  C   LIG    1       24.997 -29.130   7.101  0.00  0.00    +0.039 C 
ATOM     22  C   LIG    1       24.158 -30.323   6.817  0.00  0.00    +0.258 C 
ATOM     23  O   LIG    1       23.500 -30.383   5.763  0.00  0.00    -0.267 OA
ATOM     24  N   LIG    1       24.145 -31.316   7.763  0.00  0.00    -0.294 N 
ATOM     25  C   LIG    1       23.292 -32.473   7.511  0.00  0.00    +0.127 C 
ATOM     26  C   LIG    1       23.543 -33.651   8.442  0.00  0.00    +0.025 C 
ATOM     27  C   LIG    1       23.518 -33.159   9.875  0.00  0.00    +0.041 C 
ATOM     28  C   LIG    1       24.643 -32.163  10.083  0.00  0.00    +0.180 C 
ATOM     29  C   LIG    1       24.737 -31.102   8.978  0.00  0.00    +0.141 C 
ATOM     30  N   LIG    1       25.441 -30.045   9.266  0.00  0.00    -0.236 NA
BRANCH  28  31
ATOM     31  O   LIG    1       24.449 -31.520  11.341  0.00  0.00    -0.384 OA
ATOM     32  H   LIG    1       25.350 -31.415  11.711  0.00  0.00    +0.210 HD
ENDBRANCH  28  31
ENDBRANCH  18  21
ENDBRANCH   1  18
TORSDOF 5
ENDMDL
MODEL 7
REMARK VINA RESULT:      -8.6      3.942     10.227
REMARK  Name = *****
REMARK                            x       y       z     vdW  Elec       q    Type
REMARK                         _______ _______ _______ _____ _____    ______ ____
ROOT
ATOM      1  C   LIG    1       24.409 -26.673   6.524  0.00  0.00    +0.089 C 
ENDROOT
BRANCH   1   2
ATOM      2  N   LIG    1       24.669 -25.447   5.750  0.00  0.00    -0.302 NA
ATOM      3  C   LIG    1       23.580 -24.464   5.715  0.00  0.00    +0.085 C 
ATOM      4  C   LIG    1       23.454 -23.612   6.981  0.00  0.00    +0.025 C 
ATOM      5  C   LIG    1       24.757 -22.860   7.281  0.00  0.00    +0.044 C 
ATOM      6  C   LIG    1       25.898 -23.891   7.343  0.00  0.00    +0.025 C 
ATOM      7  C   LIG    1       25.950 -24.814   6.111  0.00  0.00    +0.085 C 
BRANCH   5   8
ATOM      8  C   LIG    1       24.998 -21.710   6.326  0.00  0.00    +0.095 A 
ATOM      9  C   LIG    1       24.048 -20.863   5.678  0.00  0.00    +0.045 A 
ATOM     10  C   LIG    1       24.829 -20.028   4.893  0.00  0.00    +0.170 A 
ATOM     11  C   LIG    1       24.342 -19.030   4.057  0.00  0.00    +0.088 A 
ATOM     12  C   LIG    1       22.959 -18.884   4.044  0.00  0.00    +0.127 A 
ATOM     13  C   LIG    1       22.123 -19.689   4.818  0.00  0.00    +0.039 A 
ATOM     14  F   LIG    1       22.417 -17.938   3.266  0.00  0.00    -0.205 F 
ATOM     15  O   LIG    1       26.136 -20.338   5.067  0.00  0.00    -0.354 OA
ATOM     16  C   LIG    1       22.652 -20.695   5.644  0.00  0.00    +0.016 A 
ATOM     17  N   LIG    1       26.245 -21.373   5.965  0.00  0.00    -0.082 NA
ENDBRANCH   5   8
ENDBRANCH   1   2
BRANCH   1  18
ATOM     18  C   LIG    1       25.666 -27.534   6.781  0.00  0.00    +0.058 C 
BRANCH  18  21
ATOM     19  C   LIG    1       26.552 -28.448   9.599  0.00  0.00    +0.066 C 
ATOM     20  C   LIG    1       25.732 -29.279   8.646  0.00  0.00    +0.049 C 
ATOM     21  C   LIG    1       25.359 -28.865   7.425  0.00  0.00    +0.039 C 
ATOM     22  C   LIG    1       24.603 -29.834   6.589  0.00  0.00    +0.258 C 
ATOM     23  O   LIG    1       24.150 -29.481   5.486  0.00  0.00    -0.267 OA
ATOM     24  N   LIG    1       24.432 -31.095   7.098  0.00  0.00    -0.294 N 
ATOM     25  C   LIG    1       23.656 -32.042   6.303  0.00  0.00    +0.127 C 
ATOM     26  C   LIG    1       23.750 -33.484   6.779  0.00  0.00    +0.025 C 
ATOM     27  C   LIG    1       23.457 -33.533   8.265  0.00  0.00    +0.041 C 
ATOM     28  C   LIG    1       24.509 -32.735   9.010  0.00  0.00    +0.180 C 
ATOM     29  C   LIG    1       24.789 -31.358   8.393  0.00  0.00    +0.141 C 
ATOM     30  N   LIG    1       25.412 -30.509   9.160  0.00  0.00    -0.236 NA
BRANCH  28  31
ATOM     31  O   LIG    1       24.080 -32.571  10.359  0.00  0.00    -0.384 OA
ATOM     32  H   LIG    1       24.456 -33.339  10.838  0.00  0.00    +0.210 HD
ENDBRANCH  28  31
ENDBRANCH  18  21
ENDBRANCH   1  18
TORSDOF 5
ENDMDL
MODEL 8
REMARK VINA RESULT:      -8.4      4.085      9.842
REMARK  Name = *****
REMARK                            x       y       z     vdW  Elec       q    Type
REMARK                         _______ _______ _______ _____ _____    ______ ____
ROOT
ATOM      1  C   LIG    1       25.828 -30.191   7.397  0.00  0.00    +0.089 C 
ENDROOT
BRANCH   1   2
ATOM      2  N   LIG    1       25.063 -28.954   7.631  0.00  0.00    -0.302 NA
ATOM      3  C   LIG    1       25.847 -27.779   8.029  0.00  0.00    +0.085 C 
ATOM      4  C   LIG    1       26.578 -27.084   6.877  0.00  0.00    +0.025 C 
ATOM      5  C   LIG    1       25.602 -26.648   5.777  0.00  0.00    +0.044 C 
ATOM      6  C   LIG    1       24.795 -27.883   5.340  0.00  0.00    +0.025 C 
ATOM      7  C   LIG    1       24.151 -28.636   6.519  0.00  0.00    +0.085 C 
BRANCH   5   8
ATOM      8  C   LIG    1       24.759 -25.457   6.186  0.00  0.00    +0.095 A 
ATOM      9  C   LIG    1       25.179 -24.175   6.652  0.00  0.00    +0.045 A 
ATOM     10  C   LIG    1       23.990 -23.512   6.917  0.00  0.00    +0.170 A 
ATOM     11  C   LIG    1       23.888 -22.217   7.411  0.00  0.00    +0.088 A 
ATOM     12  C   LIG    1       25.097 -21.567   7.634  0.00  0.00    +0.127 A 
ATOM     13  C   LIG    1       26.324 -22.179   7.380  0.00  0.00    +0.039 A 
ATOM     14  F   LIG    1       25.078 -20.313   8.105  0.00  0.00    -0.205 F 
ATOM     15  O   LIG    1       22.946 -24.323   6.620  0.00  0.00    -0.354 OA
ATOM     16  C   LIG    1       26.387 -23.494   6.889  0.00  0.00    +0.016 A 
ATOM     17  N   LIG    1       23.420 -25.526   6.154  0.00  0.00    -0.082 NA
ENDBRANCH   5   8
ENDBRANCH   1   2
BRANCH   1  18
ATOM     18  C   LIG    1       25.690 -31.239   8.525  0.00  0.00    +0.058 C 
BRANCH  18  21
ATOM     19  C   LIG    1       23.202 -32.818   7.585  0.00  0.00    +0.066 C 
ATOM     20  C   LIG    1       23.240 -31.914   8.791  0.00  0.00    +0.049 C 
ATOM     21  C   LIG    1       24.331 -31.235   9.182  0.00  0.00    +0.039 C 
ATOM     22  C   LIG    1       24.178 -30.341  10.359  0.00  0.00    +0.258 C 
ATOM     23  O   LIG    1       25.171 -29.755  10.827  0.00  0.00    -0.267 OA
ATOM     24  N   LIG    1       22.919 -30.215  10.887  0.00  0.00    -0.294 N 
ATOM     25  C   LIG    1       22.768 -29.371  12.069  0.00  0.00    +0.127 C 
ATOM     26  C   LIG    1       21.324 -29.045  12.424  0.00  0.00    +0.025 C 
ATOM     27  C   LIG    1       20.526 -30.333  12.472  0.00  0.00    +0.041 C 
ATOM     28  C   LIG    1       20.526 -30.975  11.098  0.00  0.00    +0.180 C 
ATOM     29  C   LIG    1       21.914 -31.032  10.446  0.00  0.00    +0.141 C 
ATOM     30  N   LIG    1       22.036 -31.856   9.445  0.00  0.00    -0.236 NA
BRANCH  28  31
ATOM     31  O   LIG    1       20.004 -32.296  11.217  0.00  0.00    -0.384 OA
ATOM     32  H   LIG    1       19.488 -32.288  12.050  0.00  0.00    +0.210 HD
ENDBRANCH  28  31
ENDBRANCH  18  21
ENDBRANCH   1  18
TORSDOF 5
ENDMDL
MODEL 9
REMARK VINA RESULT:      -8.4      4.074      8.688
REMARK  Name = *****
REMARK                            x       y       z     vdW  Elec       q    Type
REMARK                         _______ _______ _______ _____ _____    ______ ____
ROOT
ATOM      1  C   LIG    1       25.819 -30.027   7.262  0.00  0.00    +0.089 C 
ENDROOT
BRANCH   1   2
ATOM      2  N   LIG    1       25.099 -28.782   7.577  0.00  0.00    -0.302 NA
ATOM      3  C   LIG    1       25.935 -27.605   7.844  0.00  0.00    +0.085 C 
ATOM      4  C   LIG    1       26.504 -26.934   6.591  0.00  0.00    +0.025 C 
ATOM      5  C   LIG    1       25.388 -26.510   5.628  0.00  0.00    +0.044 C 
ATOM      6  C   LIG    1       24.523 -27.747   5.327  0.00  0.00    +0.025 C 
ATOM      7  C   LIG    1       24.044 -28.476   6.595  0.00  0.00    +0.085 C 
BRANCH   5   8
ATOM      8  C   LIG    1       24.614 -25.307   6.128  0.00  0.00    +0.095 A 
ATOM      9  C   LIG    1       25.107 -24.069   6.640  0.00  0.00    +0.045 A 
ATOM     10  C   LIG    1       23.959 -23.371   6.984  0.00  0.00    +0.170 A 
ATOM     11  C   LIG    1       23.933 -22.100   7.545  0.00  0.00    +0.088 A 
ATOM     12  C   LIG    1       25.177 -21.514   7.753  0.00  0.00    +0.127 A 
ATOM     13  C   LIG    1       26.366 -22.164   7.422  0.00  0.00    +0.039 A 
ATOM     14  F   LIG    1       25.231 -20.286   8.286  0.00  0.00    -0.205 F 
ATOM     15  O   LIG    1       22.871 -24.120   6.687  0.00  0.00    -0.354 OA
ATOM     16  C   LIG    1       26.353 -23.454   6.864  0.00  0.00    +0.016 A 
ATOM     17  N   LIG    1       23.273 -25.318   6.144  0.00  0.00    -0.082 NA
ENDBRANCH   5   8
ENDBRANCH   1   2
BRANCH   1  18
ATOM     18  C   LIG    1       25.983 -30.982   8.467  0.00  0.00    +0.058 C 
BRANCH  18  21
ATOM     19  C   LIG    1       23.111 -30.944   9.614  0.00  0.00    +0.066 C 
ATOM     20  C   LIG    1       24.315 -30.342  10.294  0.00  0.00    +0.049 C 
ATOM     21  C   LIG    1       25.555 -30.368   9.778  0.00  0.00    +0.039 C 
ATOM     22  C   LIG    1       26.617 -29.675  10.552  0.00  0.00    +0.258 C 
ATOM     23  O   LIG    1       27.802 -29.740  10.176  0.00  0.00    -0.267 OA
ATOM     24  N   LIG    1       26.227 -28.993  11.675  0.00  0.00    -0.294 N 
ATOM     25  C   LIG    1       27.269 -28.343  12.464  0.00  0.00    +0.127 C 
ATOM     26  C   LIG    1       26.747 -27.375  13.515  0.00  0.00    +0.025 C 
ATOM     27  C   LIG    1       25.685 -28.072  14.342  0.00  0.00    +0.041 C 
ATOM     28  C   LIG    1       24.519 -28.447  13.447  0.00  0.00    +0.180 C 
ATOM     29  C   LIG    1       24.944 -29.122  12.135  0.00  0.00    +0.141 C 
ATOM     30  N   LIG    1       24.007 -29.761  11.497  0.00  0.00    -0.236 NA
BRANCH  28  31
ATOM     31  O   LIG    1       23.658 -29.322  14.171  0.00  0.00    -0.384 OA
ATOM     32  H   LIG    1       24.247 -29.798  14.792  0.00  0.00    +0.210 HD
ENDBRANCH  28  31
ENDBRANCH  18  21
ENDBRANCH   1  18
TORSDOF 5
ENDMDL
