MODEL 1
REMARK VINA RESULT:      -6.1      0.000      0.000
REMARK  Name = *****
REMARK                            x       y       z     vdW  Elec       q    Type
REMARK                         _______ _______ _______ _____ _____    ______ ____
ROOT
ATOM      1  C   LIG    1       24.223 -29.621   7.279  0.00  0.00    +0.011 C 
ATOM      2  C   LIG    1       24.561 -29.852   8.746  0.00  0.00    +0.026 C 
ATOM      3  C   LIG    1       25.497 -31.039   9.097  0.00  0.00    +0.134 C 
ATOM      4  C   LIG    1       25.121 -31.397  10.608  0.00  0.00    +0.010 C 
ATOM      5  C   LIG    1       23.965 -30.419  10.996  0.00  0.00    +0.005 C 
ATOM      6  C   LIG    1       24.336 -29.126  11.784  0.00  0.00    +0.034 C 
ATOM      7  C   LIG    1       25.485 -29.282  12.802  0.00  0.00    +0.153 C 
ATOM      8  C   LIG    1       26.686 -29.939  12.072  0.00  0.00    +0.154 C 
ATOM      9  F   LIG    1       25.057 -30.199  13.742  0.00  0.00    -0.238 F 
ATOM     10  C   LIG    1       25.794 -27.928  13.590  0.00  0.00    +0.044 C 
ATOM     11  C   LIG    1       24.494 -27.205  14.059  0.00  0.00    -0.053 C 
ATOM     12  C   LIG    1       24.615 -26.015  14.697  0.00  0.00    +0.051 C 
ATOM     13  C   LIG    1       25.380 -25.023  13.853  0.00  0.00    +0.179 C 
ATOM     14  C   LIG    1       26.359 -25.570  12.869  0.00  0.00    +0.047 C 
ATOM     15  O   LIG    1       25.253 -23.814  14.023  0.00  0.00    -0.288 OA
ATOM     16  C   LIG    1       23.298 -27.273  13.131  0.00  0.00    +0.032 C 
ATOM     17  C   LIG    1       26.654 -28.246  14.847  0.00  0.00    +0.023 C 
ATOM     18  C   LIG    1       26.570 -26.894  12.764  0.00  0.00    -0.009 C 
ATOM     19  C   LIG    1       23.077 -28.639  12.520  0.00  0.00    +0.011 C 
ATOM     20  C   LIG    1       24.537 -32.836  10.742  0.00  0.00    +0.015 C 
ATOM     21  C   LIG    1       26.318 -31.337  11.572  0.00  0.00    +0.044 C 
ATOM     22  C   LIG    1       23.340 -30.057   9.635  0.00  0.00    +0.011 C 
ENDROOT
BRANCH   3  23
ATOM     23  O   LIG    1       26.816 -30.486   9.033  0.00  0.00    -0.380 OA
ATOM     24  H   LIG    1       27.196 -30.410   9.933  0.00  0.00    +0.211 HD
ENDBRANCH   3  23
BRANCH   3  25
ATOM     25  C   LIG    1       25.312 -32.264   8.142  0.00  0.00    +0.190 C 
ATOM     26  O   LIG    1       24.223 -32.803   7.935  0.00  0.00    -0.292 OA
BRANCH  25  27
ATOM     27  C   LIG    1       26.573 -32.843   7.516  0.00  0.00    +0.233 C 
BRANCH  27  28
ATOM     28  O   LIG    1       27.065 -31.974   6.509  0.00  0.00    -0.387 OA
ATOM     29  H   LIG    1       27.973 -31.727   6.772  0.00  0.00    +0.210 HD
ENDBRANCH  27  28
ENDBRANCH  25  27
ENDBRANCH   3  25
BRANCH   8  30
ATOM     30  O   LIG    1       27.828 -30.102  12.914  0.00  0.00    -0.389 OA
ATOM     31  H   LIG    1       28.134 -29.209  13.162  0.00  0.00    +0.210 HD
ENDBRANCH   8  30
TORSDOF 5
ENDMDL
MODEL 2
REMARK VINA RESULT:      -6.0      3.559      5.992
REMARK  Name = *****
REMARK                            x       y       z     vdW  Elec       q    Type
REMARK                         _______ _______ _______ _____ _____    ______ ____
ROOT
ATOM      1  C   LIG    1       22.179 -29.304  12.395  0.00  0.00    +0.011 C 
ATOM      2  C   LIG    1       22.973 -29.749  11.174  0.00  0.00    +0.026 C 
ATOM      3  C   LIG    1       22.674 -31.154  10.586  0.00  0.00    +0.134 C 
ATOM      4  C   LIG    1       24.024 -31.555   9.831  0.00  0.00    +0.010 C 
ATOM      5  C   LIG    1       25.013 -30.370  10.081  0.00  0.00    +0.005 C 
ATOM      6  C   LIG    1       25.149 -29.286   8.971  0.00  0.00    +0.034 C 
ATOM      7  C   LIG    1       25.045 -29.809   7.523  0.00  0.00    +0.153 C 
ATOM      8  C   LIG    1       23.753 -30.661   7.414  0.00  0.00    +0.154 C 
ATOM      9  F   LIG    1       26.099 -30.683   7.343  0.00  0.00    -0.238 F 
ATOM     10  C   LIG    1       25.218 -28.650   6.438  0.00  0.00    +0.044 C 
ATOM     11  C   LIG    1       26.395 -27.686   6.784  0.00  0.00    -0.053 C 
ATOM     12  C   LIG    1       26.618 -26.626   5.968  0.00  0.00    +0.051 C 
ATOM     13  C   LIG    1       25.380 -25.770   5.841  0.00  0.00    +0.179 C 
ATOM     14  C   LIG    1       24.061 -26.438   6.034  0.00  0.00    +0.047 C 
ATOM     15  O   LIG    1       25.456 -24.588   5.520  0.00  0.00    -0.288 OA
ATOM     16  C   LIG    1       26.619 -27.376   8.250  0.00  0.00    +0.032 C 
ATOM     17  C   LIG    1       25.504 -29.284   5.046  0.00  0.00    +0.023 C 
ATOM     18  C   LIG    1       23.982 -27.758   6.280  0.00  0.00    -0.009 C 
ATOM     19  C   LIG    1       26.505 -28.585   9.154  0.00  0.00    +0.011 C 
ATOM     20  C   LIG    1       24.691 -32.819  10.454  0.00  0.00    +0.015 C 
ATOM     21  C   LIG    1       23.824 -31.876   8.340  0.00  0.00    +0.044 C 
ATOM     22  C   LIG    1       24.482 -29.741  11.384  0.00  0.00    +0.011 C 
ENDROOT
BRANCH   3  23
ATOM     23  O   LIG    1       21.625 -30.929   9.638  0.00  0.00    -0.380 OA
ATOM     24  H   LIG    1       20.865 -30.489  10.072  0.00  0.00    +0.211 HD
ENDBRANCH   3  23
BRANCH   3  25
ATOM     25  C   LIG    1       22.281 -32.201  11.680  0.00  0.00    +0.190 C 
ATOM     26  O   LIG    1       22.926 -32.372  12.716  0.00  0.00    -0.292 OA
BRANCH  25  27
ATOM     27  C   LIG    1       21.085 -33.092  11.378  0.00  0.00    +0.233 C 
BRANCH  27  28
ATOM     28  O   LIG    1       21.268 -33.758  10.139  0.00  0.00    -0.387 OA
ATOM     29  H   LIG    1       21.333 -33.063   9.456  0.00  0.00    +0.210 HD
ENDBRANCH  27  28
ENDBRANCH  25  27
ENDBRANCH   3  25
BRANCH   8  30
ATOM     30  O   LIG    1       23.533 -31.173   6.098  0.00  0.00    -0.389 OA
ATOM     31  H   LIG    1       22.623 -31.522   6.071  0.00  0.00    +0.210 HD
ENDBRANCH   8  30
TORSDOF 5
ENDMDL
MODEL 3
REMARK VINA RESULT:      -5.3      3.374      6.827
REMARK  Name = *****
REMARK                            x       y       z     vdW  Elec       q    Type
REMARK                         _______ _______ _______ _____ _____    ______ ____
ROOT
ATOM      1  C   LIG    1       20.267 -26.325  12.574  0.00  0.00    +0.011 C 
ATOM      2  C   LIG    1       21.098 -27.598  12.673  0.00  0.00    +0.026 C 
ATOM      3  C   LIG    1       20.514 -28.785  13.485  0.00  0.00    +0.134 C 
ATOM      4  C   LIG    1       21.801 -29.616  13.939  0.00  0.00    +0.010 C 
ATOM      5  C   LIG    1       23.030 -28.820  13.392  0.00  0.00    +0.005 C 
ATOM      6  C   LIG    1       23.660 -29.285  12.045  0.00  0.00    +0.034 C 
ATOM      7  C   LIG    1       23.661 -30.809  11.809  0.00  0.00    +0.153 C 
ATOM      8  C   LIG    1       22.217 -31.330  12.040  0.00  0.00    +0.154 C 
ATOM      9  F   LIG    1       24.435 -31.363  12.811  0.00  0.00    -0.238 F 
ATOM     10  C   LIG    1       24.344 -31.216  10.424  0.00  0.00    +0.044 C 
ATOM     11  C   LIG    1       25.670 -30.436  10.165  0.00  0.00    -0.053 C 
ATOM     12  C   LIG    1       26.325 -30.651   8.998  0.00  0.00    +0.051 C 
ATOM     13  C   LIG    1       25.426 -30.380   7.815  0.00  0.00    +0.179 C 
ATOM     14  C   LIG    1       23.957 -30.548   8.015  0.00  0.00    +0.047 C 
ATOM     15  O   LIG    1       25.892 -30.104   6.713  0.00  0.00    -0.288 OA
ATOM     16  C   LIG    1       25.718 -28.993  10.627  0.00  0.00    +0.032 C 
ATOM     17  C   LIG    1       24.670 -32.737  10.435  0.00  0.00    +0.023 C 
ATOM     18  C   LIG    1       23.462 -30.955   9.197  0.00  0.00    -0.009 C 
ATOM     19  C   LIG    1       25.108 -28.769  11.994  0.00  0.00    +0.011 C 
ATOM     20  C   LIG    1       21.960 -29.652  15.489  0.00  0.00    +0.015 C 
ATOM     21  C   LIG    1       21.776 -31.086  13.483  0.00  0.00    +0.044 C 
ATOM     22  C   LIG    1       22.487 -27.383  13.263  0.00  0.00    +0.011 C 
ENDROOT
BRANCH   3  23
ATOM     23  O   LIG    1       19.753 -29.532  12.530  0.00  0.00    -0.380 OA
ATOM     24  H   LIG    1       20.091 -29.370  11.625  0.00  0.00    +0.211 HD
ENDBRANCH   3  23
BRANCH   3  25
ATOM     25  C   LIG    1       19.655 -28.322  14.708  0.00  0.00    +0.190 C 
ATOM     26  O   LIG    1       20.019 -27.450  15.500  0.00  0.00    -0.292 OA
BRANCH  25  27
ATOM     27  C   LIG    1       18.347 -29.062  14.947  0.00  0.00    +0.233 C 
BRANCH  27  28
ATOM     28  O   LIG    1       17.373 -28.655  14.000  0.00  0.00    -0.387 OA
ATOM     29  H   LIG    1       17.150 -29.446  13.471  0.00  0.00    +0.210 HD
ENDBRANCH  27  28
ENDBRANCH  25  27
ENDBRANCH   3  25
BRANCH   8  30
ATOM     30  O   LIG    1       22.090 -32.735  11.814  0.00  0.00    -0.389 OA
ATOM     31  H   LIG    1       22.962 -33.061  11.519  0.00  0.00    +0.210 HD
ENDBRANCH   8  30
TORSDOF 5
ENDMDL
MODEL 4
REMARK VINA RESULT:      -5.0      3.144      7.098
REMARK  Name = *****
REMARK                            x       y       z     vdW  Elec       q    Type
REMARK                         _______ _______ _______ _____ _____    ______ ____
ROOT
ATOM      1  C   LIG    1       20.503 -31.552  11.031  0.00  0.00    +0.011 C 
ATOM      2  C   LIG    1       21.980 -31.475  10.668  0.00  0.00    +0.026 C 
ATOM      3  C   LIG    1       23.018 -31.821  11.769  0.00  0.00    +0.134 C 
ATOM      4  C   LIG    1       24.337 -31.040  11.321  0.00  0.00    +0.010 C 
ATOM      5  C   LIG    1       23.945 -30.266  10.019  0.00  0.00    +0.005 C 
ATOM      6  C   LIG    1       24.307 -30.913   8.649  0.00  0.00    +0.034 C 
ATOM      7  C   LIG    1       25.639 -31.692   8.619  0.00  0.00    +0.153 C 
ATOM      8  C   LIG    1       25.635 -32.693   9.804  0.00  0.00    +0.154 C 
ATOM      9  F   LIG    1       26.637 -30.777   8.891  0.00  0.00    -0.238 F 
ATOM     10  C   LIG    1       25.958 -32.305   7.179  0.00  0.00    +0.044 C 
ATOM     11  C   LIG    1       25.678 -31.291   6.027  0.00  0.00    -0.053 C 
ATOM     12  C   LIG    1       25.861 -31.704   4.749  0.00  0.00    +0.051 C 
ATOM     13  C   LIG    1       25.035 -32.933   4.454  0.00  0.00    +0.179 C 
ATOM     14  C   LIG    1       24.695 -33.824   5.600  0.00  0.00    +0.047 C 
ATOM     15  O   LIG    1       24.717 -33.224   3.304  0.00  0.00    -0.288 OA
ATOM     16  C   LIG    1       24.487 -30.370   6.199  0.00  0.00    +0.032 C 
ATOM     17  C   LIG    1       27.458 -32.713   7.113  0.00  0.00    +0.023 C 
ATOM     18  C   LIG    1       25.137 -33.555   6.841  0.00  0.00    -0.009 C 
ATOM     19  C   LIG    1       24.356 -29.796   7.593  0.00  0.00    +0.011 C 
ATOM     20  C   LIG    1       24.761 -29.957  12.359  0.00  0.00    +0.015 C 
ATOM     21  C   LIG    1       25.562 -31.953  11.140  0.00  0.00    +0.044 C 
ATOM     22  C   LIG    1       22.418 -30.109  10.152  0.00  0.00    +0.011 C 
ENDROOT
BRANCH   3  23
ATOM     23  O   LIG    1       23.213 -33.234  11.646  0.00  0.00    -0.380 OA
ATOM     24  H   LIG    1       23.780 -33.563  12.374  0.00  0.00    +0.211 HD
ENDBRANCH   3  23
BRANCH   3  25
ATOM     25  C   LIG    1       22.548 -31.403  13.202  0.00  0.00    +0.190 C 
ATOM     26  O   LIG    1       22.099 -30.286  13.468  0.00  0.00    -0.292 OA
BRANCH  25  27
ATOM     27  C   LIG    1       22.745 -32.423  14.314  0.00  0.00    +0.233 C 
BRANCH  27  28
ATOM     28  O   LIG    1       24.111 -32.792  14.405  0.00  0.00    -0.387 OA
ATOM     29  H   LIG    1       24.498 -32.256  15.125  0.00  0.00    +0.210 HD
ENDBRANCH  27  28
ENDBRANCH  25  27
ENDBRANCH   3  25
BRANCH   8  30
ATOM     30  O   LIG    1       26.813 -33.499   9.855  0.00  0.00    -0.389 OA
ATOM     31  H   LIG    1       26.577 -34.379   9.505  0.00  0.00    +0.210 HD
ENDBRANCH   8  30
TORSDOF 5
ENDMDL
MODEL 5
REMARK VINA RESULT:      -4.7      2.460      3.442
REMARK  Name = *****
REMARK                            x       y       z     vdW  Elec       q    Type
REMARK                         _______ _______ _______ _____ _____    ______ ____
ROOT
ATOM      1  C   LIG    1       24.395 -29.559   7.780  0.00  0.00    +0.011 C 
ATOM      2  C   LIG    1       24.212 -29.805   9.271  0.00  0.00    +0.026 C 
ATOM      3  C   LIG    1       25.474 -30.127  10.114  0.00  0.00    +0.134 C 
ATOM      4  C   LIG    1       24.909 -30.942  11.367  0.00  0.00    +0.010 C 
ATOM      5  C   LIG    1       23.369 -31.066  11.126  0.00  0.00    +0.005 C 
ATOM      6  C   LIG    1       22.434 -30.043  11.838  0.00  0.00    +0.034 C 
ATOM      7  C   LIG    1       22.883 -29.611  13.250  0.00  0.00    +0.153 C 
ATOM      8  C   LIG    1       24.363 -29.154  13.162  0.00  0.00    +0.154 C 
ATOM      9  F   LIG    1       22.877 -30.750  14.031  0.00  0.00    -0.238 F 
ATOM     10  C   LIG    1       21.867 -28.584  13.929  0.00  0.00    +0.044 C 
ATOM     11  C   LIG    1       20.378 -29.005  13.733  0.00  0.00    -0.053 C 
ATOM     12  C   LIG    1       19.410 -28.190  14.219  0.00  0.00    +0.051 C 
ATOM     13  C   LIG    1       19.543 -26.795  13.655  0.00  0.00    +0.179 C 
ATOM     14  C   LIG    1       20.902 -26.351  13.233  0.00  0.00    +0.047 C 
ATOM     15  O   LIG    1       18.581 -26.033  13.613  0.00  0.00    -0.288 OA
ATOM     16  C   LIG    1       20.016 -29.648  12.409  0.00  0.00    +0.032 C 
ATOM     17  C   LIG    1       22.153 -28.508  15.457  0.00  0.00    +0.023 C 
ATOM     18  C   LIG    1       21.970 -27.155  13.381  0.00  0.00    -0.009 C 
ATOM     19  C   LIG    1       21.030 -30.664  11.927  0.00  0.00    +0.011 C 
ATOM     20  C   LIG    1       25.461 -32.399  11.417  0.00  0.00    +0.015 C 
ATOM     21  C   LIG    1       25.263 -30.310  12.724  0.00  0.00    +0.044 C 
ATOM     22  C   LIG    1       23.242 -30.935   9.596  0.00  0.00    +0.011 C 
ENDROOT
BRANCH   3  23
ATOM     23  O   LIG    1       25.960 -28.848  10.534  0.00  0.00    -0.380 OA
ATOM     24  H   LIG    1       26.587 -28.489   9.873  0.00  0.00    +0.211 HD
ENDBRANCH   3  23
BRANCH   3  25
ATOM     25  C   LIG    1       26.545 -30.945   9.319  0.00  0.00    +0.190 C 
ATOM     26  O   LIG    1       27.757 -30.852   9.525  0.00  0.00    -0.292 OA
BRANCH  25  27
ATOM     27  C   LIG    1       26.036 -31.827   8.190  0.00  0.00    +0.233 C 
BRANCH  27  28
ATOM     28  O   LIG    1       27.020 -31.943   7.175  0.00  0.00    -0.387 OA
ATOM     29  H   LIG    1       26.562 -32.276   6.378  0.00  0.00    +0.210 HD
ENDBRANCH  27  28
ENDBRANCH  25  27
ENDBRANCH   3  25
BRANCH   8  30
ATOM     30  O   LIG    1       24.878 -28.696  14.413  0.00  0.00    -0.389 OA
ATOM     31  H   LIG    1       24.868 -27.720  14.390  0.00  0.00    +0.210 HD
ENDBRANCH   8  30
TORSDOF 5
ENDMDL
MODEL 6
REMARK VINA RESULT:      -4.6      2.212      3.236
REMARK  Name = *****
REMARK                            x       y       z     vdW  Elec       q    Type
REMARK                         _______ _______ _______ _____ _____    ______ ____
ROOT
ATOM      1  C   LIG    1       22.829 -33.169   7.471  0.00  0.00    +0.011 C 
ATOM      2  C   LIG    1       23.795 -32.472   8.421  0.00  0.00    +0.026 C 
ATOM      3  C   LIG    1       25.065 -31.818   7.815  0.00  0.00    +0.134 C 
ATOM      4  C   LIG    1       26.107 -31.795   9.025  0.00  0.00    +0.010 C 
ATOM      5  C   LIG    1       25.373 -32.479  10.224  0.00  0.00    +0.005 C 
ATOM      6  C   LIG    1       24.688 -31.561  11.280  0.00  0.00    +0.034 C 
ATOM      7  C   LIG    1       25.425 -30.239  11.581  0.00  0.00    +0.153 C 
ATOM      8  C   LIG    1       25.713 -29.534  10.229  0.00  0.00    +0.154 C 
ATOM      9  F   LIG    1       26.655 -30.583  12.106  0.00  0.00    -0.238 F 
ATOM     10  C   LIG    1       24.682 -29.360  12.689  0.00  0.00    +0.044 C 
ATOM     11  C   LIG    1       24.197 -30.218  13.898  0.00  0.00    -0.053 C 
ATOM     12  C   LIG    1       23.506 -29.601  14.888  0.00  0.00    +0.051 C 
ATOM     13  C   LIG    1       22.286 -28.899  14.340  0.00  0.00    +0.179 C 
ATOM     14  C   LIG    1       22.335 -28.447  12.919  0.00  0.00    +0.047 C 
ATOM     15  O   LIG    1       21.323 -28.647  15.057  0.00  0.00    -0.288 OA
ATOM     16  C   LIG    1       23.695 -31.614  13.591  0.00  0.00    +0.032 C 
ATOM     17  C   LIG    1       25.657 -28.272  13.225  0.00  0.00    +0.023 C 
ATOM     18  C   LIG    1       23.436 -28.632  12.171  0.00  0.00    -0.009 C 
ATOM     19  C   LIG    1       24.544 -32.361  12.586  0.00  0.00    +0.011 C 
ATOM     20  C   LIG    1       27.367 -32.665   8.733  0.00  0.00    +0.015 C 
ATOM     21  C   LIG    1       26.634 -30.388   9.357  0.00  0.00    +0.044 C 
ATOM     22  C   LIG    1       24.326 -33.372   9.530  0.00  0.00    +0.011 C 
ENDROOT
BRANCH   3  23
ATOM     23  O   LIG    1       24.659 -30.486   7.485  0.00  0.00    -0.380 OA
ATOM     24  H   LIG    1       24.203 -30.072   8.247  0.00  0.00    +0.211 HD
ENDBRANCH   3  23
BRANCH   3  25
ATOM     25  C   LIG    1       25.621 -32.600   6.578  0.00  0.00    +0.190 C 
ATOM     26  O   LIG    1       25.756 -33.825   6.557  0.00  0.00    -0.292 OA
BRANCH  25  27
ATOM     27  C   LIG    1       26.084 -31.767   5.392  0.00  0.00    +0.233 C 
BRANCH  27  28
ATOM     28  O   LIG    1       24.965 -31.280   4.668  0.00  0.00    -0.387 OA
ATOM     29  H   LIG    1       24.488 -30.674   5.267  0.00  0.00    +0.210 HD
ENDBRANCH  27  28
ENDBRANCH  25  27
ENDBRANCH   3  25
BRANCH   8  30
ATOM     30  O   LIG    1       26.367 -28.273  10.388  0.00  0.00    -0.389 OA
ATOM     31  H   LIG    1       26.401 -27.852   9.508  0.00  0.00    +0.210 HD
ENDBRANCH   8  30
TORSDOF 5
ENDMDL
MODEL 7
REMARK VINA RESULT:      -4.4      2.341      3.809
REMARK  Name = *****
REMARK                            x       y       z     vdW  Elec       q    Type
REMARK                         _______ _______ _______ _____ _____    ______ ____
ROOT
ATOM      1  C   LIG    1       25.596 -29.566   5.079  0.00  0.00    +0.011 C 
ATOM      2  C   LIG    1       25.306 -30.500   6.246  0.00  0.00    +0.026 C 
ATOM      3  C   LIG    1       25.791 -31.970   6.138  0.00  0.00    +0.134 C 
ATOM      4  C   LIG    1       24.813 -32.776   7.110  0.00  0.00    +0.010 C 
ATOM      5  C   LIG    1       23.809 -31.715   7.669  0.00  0.00    +0.005 C 
ATOM      6  C   LIG    1       24.101 -31.103   9.072  0.00  0.00    +0.034 C 
ATOM      7  C   LIG    1       24.728 -32.072  10.096  0.00  0.00    +0.153 C 
ATOM      8  C   LIG    1       25.964 -32.736   9.432  0.00  0.00    +0.154 C 
ATOM      9  F   LIG    1       23.809 -33.083  10.298  0.00  0.00    -0.238 F 
ATOM     10  C   LIG    1       24.976 -31.387  11.517  0.00  0.00    +0.044 C 
ATOM     11  C   LIG    1       23.762 -30.522  11.978  0.00  0.00    -0.053 C 
ATOM     12  C   LIG    1       23.863 -29.844  13.148  0.00  0.00    +0.051 C 
ATOM     13  C   LIG    1       25.066 -28.931  13.142  0.00  0.00    +0.179 C 
ATOM     14  C   LIG    1       26.216 -29.316  12.274  0.00  0.00    +0.047 C 
ATOM     15  O   LIG    1       25.122 -27.950  13.878  0.00  0.00    -0.288 OA
ATOM     16  C   LIG    1       23.014 -29.761  10.902  0.00  0.00    +0.032 C 
ATOM     17  C   LIG    1       25.221 -32.490  12.587  0.00  0.00    +0.023 C 
ATOM     18  C   LIG    1       26.190 -30.450  11.552  0.00  0.00    -0.009 C 
ATOM     19  C   LIG    1       22.778 -30.563   9.640  0.00  0.00    +0.011 C 
ATOM     20  C   LIG    1       23.954 -33.825   6.342  0.00  0.00    +0.015 C 
ATOM     21  C   LIG    1       25.547 -33.559   8.212  0.00  0.00    +0.044 C 
ATOM     22  C   LIG    1       23.825 -30.615   6.590  0.00  0.00    +0.011 C 
ENDROOT
BRANCH   3  23
ATOM     23  O   LIG    1       27.117 -31.950   6.675  0.00  0.00    -0.380 OA
ATOM     24  H   LIG    1       27.776 -31.894   5.952  0.00  0.00    +0.211 HD
ENDBRANCH   3  23
BRANCH   3  25
ATOM     25  C   LIG    1       25.745 -32.521   4.674  0.00  0.00    +0.190 C 
ATOM     26  O   LIG    1       24.772 -32.383   3.929  0.00  0.00    -0.292 OA
BRANCH  25  27
ATOM     27  C   LIG    1       26.946 -33.330   4.207  0.00  0.00    +0.233 C 
BRANCH  27  28
ATOM     28  O   LIG    1       27.160 -33.134   2.818  0.00  0.00    -0.387 OA
ATOM     29  H   LIG    1       28.014 -32.669   2.730  0.00  0.00    +0.210 HD
ENDBRANCH  27  28
ENDBRANCH  25  27
ENDBRANCH   3  25
BRANCH   8  30
ATOM     30  O   LIG    1       26.650 -33.633  10.306  0.00  0.00    -0.389 OA
ATOM     31  H   LIG    1       27.020 -34.348   9.755  0.00  0.00    +0.210 HD
ENDBRANCH   8  30
TORSDOF 5
ENDMDL
MODEL 8
REMARK VINA RESULT:      -4.2      4.150      6.363
REMARK  Name = *****
REMARK                            x       y       z     vdW  Elec       q    Type
REMARK                         _______ _______ _______ _____ _____    ______ ____
ROOT
ATOM      1  C   LIG    1       24.249 -33.050   8.404  0.00  0.00    +0.011 C 
ATOM      2  C   LIG    1       23.652 -32.367   9.627  0.00  0.00    +0.026 C 
ATOM      3  C   LIG    1       24.138 -30.933   9.968  0.00  0.00    +0.134 C 
ATOM      4  C   LIG    1       23.874 -30.795  11.537  0.00  0.00    +0.010 C 
ATOM      5  C   LIG    1       23.297 -32.176  11.989  0.00  0.00    +0.005 C 
ATOM      6  C   LIG    1       21.751 -32.316  12.114  0.00  0.00    +0.034 C 
ATOM      7  C   LIG    1       21.014 -31.059  12.620  0.00  0.00    +0.153 C 
ATOM      8  C   LIG    1       21.467 -29.856  11.750  0.00  0.00    +0.154 C 
ATOM      9  F   LIG    1       21.485 -30.811  13.894  0.00  0.00    -0.238 F 
ATOM     10  C   LIG    1       19.438 -31.281  12.748  0.00  0.00    +0.044 C 
ATOM     11  C   LIG    1       19.084 -32.650  13.408  0.00  0.00    -0.053 C 
ATOM     12  C   LIG    1       17.776 -32.985  13.530  0.00  0.00    +0.051 C 
ATOM     13  C   LIG    1       17.082 -32.959  12.188  0.00  0.00    +0.179 C 
ATOM     14  C   LIG    1       17.638 -32.049  11.145  0.00  0.00    +0.047 C 
ATOM     15  O   LIG    1       16.059 -33.607  11.990  0.00  0.00    -0.288 OA
ATOM     16  C   LIG    1       19.979 -33.825  13.070  0.00  0.00    +0.032 C 
ATOM     17  C   LIG    1       18.826 -30.148  13.622  0.00  0.00    +0.023 C 
ATOM     18  C   LIG    1       18.697 -31.262  11.406  0.00  0.00    -0.009 C 
ATOM     19  C   LIG    1       21.454 -33.487  13.066  0.00  0.00    +0.011 C 
ATOM     20  C   LIG    1       25.194 -30.591  12.340  0.00  0.00    +0.015 C 
ATOM     21  C   LIG    1       22.968 -29.608  11.907  0.00  0.00    +0.044 C 
ATOM     22  C   LIG    1       23.840 -33.148  10.922  0.00  0.00    +0.011 C 
ENDROOT
BRANCH   3  23
ATOM     23  O   LIG    1       23.256 -30.073   9.239  0.00  0.00    -0.380 OA
ATOM     24  H   LIG    1       23.769 -29.469   8.664  0.00  0.00    +0.211 HD
ENDBRANCH   3  23
BRANCH   3  25
ATOM     25  C   LIG    1       25.642 -30.697   9.605  0.00  0.00    +0.190 C 
ATOM     26  O   LIG    1       26.541 -31.486   9.900  0.00  0.00    -0.292 OA
BRANCH  25  27
ATOM     27  C   LIG    1       25.985 -29.380   8.925  0.00  0.00    +0.233 C 
BRANCH  27  28
ATOM     28  O   LIG    1       27.355 -29.069   9.121  0.00  0.00    -0.387 OA
ATOM     29  H   LIG    1       27.490 -28.997  10.086  0.00  0.00    +0.210 HD
ENDBRANCH  27  28
ENDBRANCH  25  27
ENDBRANCH   3  25
BRANCH   8  30
ATOM     30  O   LIG    1       20.818 -28.635  12.108  0.00  0.00    -0.389 OA
ATOM     31  H   LIG    1       21.181 -28.357  12.970  0.00  0.00    +0.210 HD
ENDBRANCH   8  30
TORSDOF 5
ENDMDL
MODEL 9
REMARK VINA RESULT:      -4.2      2.034      2.494
REMARK  Name = *****
REMARK                            x       y       z     vdW  Elec       q    Type
REMARK                         _______ _______ _______ _____ _____    ______ ____
ROOT
ATOM      1  C   LIG    1       25.285 -29.622   6.948  0.00  0.00    +0.011 C 
ATOM      2  C   LIG    1       24.911 -30.317   8.250  0.00  0.00    +0.026 C 
ATOM      3  C   LIG    1       24.841 -31.867   8.252  0.00  0.00    +0.134 C 
ATOM      4  C   LIG    1       23.839 -32.210   9.449  0.00  0.00    +0.010 C 
ATOM      5  C   LIG    1       23.373 -30.829  10.015  0.00  0.00    +0.005 C 
ATOM      6  C   LIG    1       24.102 -30.274  11.275  0.00  0.00    +0.034 C 
ATOM      7  C   LIG    1       24.538 -31.336  12.307  0.00  0.00    +0.153 C 
ATOM      8  C   LIG    1       25.334 -32.435  11.554  0.00  0.00    +0.154 C 
ATOM      9  F   LIG    1       23.383 -31.940  12.762  0.00  0.00    -0.238 F 
ATOM     10  C   LIG    1       25.255 -30.695  13.582  0.00  0.00    +0.044 C 
ATOM     11  C   LIG    1       24.510 -29.429  14.107  0.00  0.00    -0.053 C 
ATOM     12  C   LIG    1       25.043 -28.758  15.157  0.00  0.00    +0.051 C 
ATOM     13  C   LIG    1       26.463 -28.334  14.863  0.00  0.00    +0.179 C 
ATOM     14  C   LIG    1       27.238 -29.156  13.890  0.00  0.00    +0.047 C 
ATOM     15  O   LIG    1       26.980 -27.393  15.458  0.00  0.00    -0.288 OA
ATOM     16  C   LIG    1       23.884 -28.521  13.067  0.00  0.00    +0.032 C 
ATOM     17  C   LIG    1       25.299 -31.743  14.731  0.00  0.00    +0.023 C 
ATOM     18  C   LIG    1       26.699 -30.250  13.323  0.00  0.00    -0.009 C 
ATOM     19  C   LIG    1       23.166 -29.264  11.961  0.00  0.00    +0.011 C 
ATOM     20  C   LIG    1       22.552 -32.932   8.948  0.00  0.00    +0.015 C 
ATOM     21  C   LIG    1       24.451 -33.132  10.518  0.00  0.00    +0.044 C 
ATOM     22  C   LIG    1       23.567 -29.877   8.819  0.00  0.00    +0.011 C 
ENDROOT
BRANCH   3  23
ATOM     23  O   LIG    1       26.169 -32.284   8.583  0.00  0.00    -0.380 OA
ATOM     24  H   LIG    1       26.142 -33.049   9.194  0.00  0.00    +0.211 HD
ENDBRANCH   3  23
BRANCH   3  25
ATOM     25  C   LIG    1       24.348 -32.456   6.889  0.00  0.00    +0.190 C 
ATOM     26  O   LIG    1       23.360 -32.032   6.286  0.00  0.00    -0.292 OA
BRANCH  25  27
ATOM     27  C   LIG    1       25.101 -33.664   6.351  0.00  0.00    +0.233 C 
BRANCH  27  28
ATOM     28  O   LIG    1       26.365 -33.267   5.842  0.00  0.00    -0.387 OA
ATOM     29  H   LIG    1       26.650 -32.498   6.373  0.00  0.00    +0.210 HD
ENDBRANCH  27  28
ENDBRANCH  25  27
ENDBRANCH   3  25
BRANCH   8  30
ATOM     30  O   LIG    1       25.821 -33.461  12.421  0.00  0.00    -0.389 OA
ATOM     31  H   LIG    1       26.691 -33.170  12.753  0.00  0.00    +0.210 HD
ENDBRANCH   8  30
TORSDOF 5
ENDMDL
