MODEL 1
REMARK VINA RESULT:      -7.7      0.000      0.000
REMARK  Name = *****
REMARK                            x       y       z     vdW  Elec       q    Type
REMARK                         _______ _______ _______ _____ _____    ______ ____
ROOT
ATOM      1  S   LIG    1       26.689 -21.267   8.038  0.00  0.00    +0.074 S 
ATOM      2  O   LIG    1       26.997 -20.077   8.803  0.00  0.00    -0.150 OA
ATOM      3  O   LIG    1       26.344 -22.514   8.682  0.00  0.00    -0.150 OA
ENDROOT
BRANCH   1   4
ATOM      4  C   LIG    1       25.361 -20.859   6.924  0.00  0.00    +0.109 A 
ATOM      5  C   LIG    1       25.635 -20.508   5.602  0.00  0.00    +0.030 A 
ATOM      6  C   LIG    1       24.582 -20.159   4.751  0.00  0.00    +0.024 A 
ATOM      7  C   LIG    1       23.256 -20.185   5.198  0.00  0.00    +0.025 A 
ATOM      8  C   LIG    1       23.006 -20.464   6.545  0.00  0.00    +0.024 A 
ATOM      9  C   LIG    1       24.048 -20.817   7.407  0.00  0.00    +0.030 A 
BRANCH   7  10
ATOM     10  N   LIG    1       22.227 -19.712   4.376  0.00  0.00    -0.358 N 
ATOM     11  H   LIG    1       22.360 -19.917   3.391  0.00  0.00    +0.142 HD
ATOM     12  H   LIG    1       21.295 -19.960   4.696  0.00  0.00    +0.142 HD
ENDBRANCH   7  10
ENDBRANCH   1   4
BRANCH   1  13
ATOM     13  N   LIG    1       27.932 -21.609   6.939  0.00  0.00    -0.195 N 
ATOM     14  H   LIG    1       28.316 -22.513   7.220  0.00  0.00    +0.175 HD
BRANCH  13  16
ATOM     15  C   LIG    1       30.073 -20.825   7.972  0.00  0.00    +0.257 A 
ATOM     16  C   LIG    1       29.021 -20.702   7.056  0.00  0.00    +0.201 A 
ATOM     17  N   LIG    1       28.945 -19.703   6.150  0.00  0.00    -0.233 NA
ATOM     18  C   LIG    1       29.969 -18.818   6.197  0.00  0.00    +0.133 A 
ATOM     19  C   LIG    1       31.004 -18.915   7.115  0.00  0.00    +0.134 A 
ATOM     20  N   LIG    1       31.079 -19.914   8.026  0.00  0.00    -0.217 NA
BRANCH  15  22
ATOM     21  C   LIG    1       31.315 -22.220   9.361  0.00  0.00    +0.279 C 
ATOM     22  O   LIG    1       30.020 -21.822   8.923  0.00  0.00    -0.477 OA
ENDBRANCH  15  22
ENDBRANCH  13  16
ENDBRANCH   1  13
TORSDOF 5
ENDMDL
MODEL 2
REMARK VINA RESULT:      -7.6      1.190      2.107
REMARK  Name = *****
REMARK                            x       y       z     vdW  Elec       q    Type
REMARK                         _______ _______ _______ _____ _____    ______ ____
ROOT
ATOM      1  S   LIG    1       26.566 -21.312   8.125  0.00  0.00    +0.074 S 
ATOM      2  O   LIG    1       26.898 -20.123   8.883  0.00  0.00    -0.150 OA
ATOM      3  O   LIG    1       26.096 -22.516   8.771  0.00  0.00    -0.150 OA
ENDROOT
BRANCH   1   4
ATOM      4  C   LIG    1       25.349 -20.850   6.910  0.00  0.00    +0.109 A 
ATOM      5  C   LIG    1       25.743 -20.485   5.623  0.00  0.00    +0.030 A 
ATOM      6  C   LIG    1       24.775 -20.094   4.692  0.00  0.00    +0.024 A 
ATOM      7  C   LIG    1       23.416 -20.093   5.025  0.00  0.00    +0.025 A 
ATOM      8  C   LIG    1       23.045 -20.387   6.341  0.00  0.00    +0.024 A 
ATOM      9  C   LIG    1       24.001 -20.782   7.281  0.00  0.00    +0.030 A 
BRANCH   7  10
ATOM     10  N   LIG    1       22.473 -19.579   4.128  0.00  0.00    -0.358 N 
ATOM     11  H   LIG    1       22.552 -18.578   3.975  0.00  0.00    +0.142 HD
ATOM     12  H   LIG    1       22.409 -20.095   3.256  0.00  0.00    +0.142 HD
ENDBRANCH   7  10
ENDBRANCH   1   4
BRANCH   1  13
ATOM     13  N   LIG    1       27.857 -21.763   7.126  0.00  0.00    -0.195 N 
ATOM     14  H   LIG    1       28.070 -22.734   7.361  0.00  0.00    +0.175 HD
BRANCH  13  16
ATOM     15  C   LIG    1       29.486 -19.898   6.758  0.00  0.00    +0.257 A 
ATOM     16  C   LIG    1       29.049 -21.048   7.427  0.00  0.00    +0.201 A 
ATOM     17  N   LIG    1       29.715 -21.593   8.469  0.00  0.00    -0.233 NA
ATOM     18  C   LIG    1       30.849 -20.942   8.819  0.00  0.00    +0.133 A 
ATOM     19  C   LIG    1       31.305 -19.815   8.148  0.00  0.00    +0.134 A 
ATOM     20  N   LIG    1       30.641 -19.271   7.102  0.00  0.00    -0.217 NA
BRANCH  15  22
ATOM     21  C   LIG    1       29.176 -18.154   5.249  0.00  0.00    +0.279 C 
ATOM     22  O   LIG    1       28.795 -19.467   5.645  0.00  0.00    -0.477 OA
ENDBRANCH  15  22
ENDBRANCH  13  16
ENDBRANCH   1  13
TORSDOF 5
ENDMDL
MODEL 3
REMARK VINA RESULT:      -7.4      2.688      2.982
REMARK  Name = *****
REMARK                            x       y       z     vdW  Elec       q    Type
REMARK                         _______ _______ _______ _____ _____    ______ ____
ROOT
ATOM      1  S   LIG    1       26.425 -21.604   7.416  0.00  0.00    +0.074 S 
ATOM      2  O   LIG    1       25.737 -20.548   6.702  0.00  0.00    -0.150 OA
ATOM      3  O   LIG    1       26.555 -21.586   8.855  0.00  0.00    -0.150 OA
ENDROOT
BRANCH   1   4
ATOM      4  C   LIG    1       25.651 -23.144   6.971  0.00  0.00    +0.109 A 
ATOM      5  C   LIG    1       26.431 -24.250   6.631  0.00  0.00    +0.030 A 
ATOM      6  C   LIG    1       25.805 -25.442   6.253  0.00  0.00    +0.024 A 
ATOM      7  C   LIG    1       24.409 -25.549   6.239  0.00  0.00    +0.025 A 
ATOM      8  C   LIG    1       23.645 -24.410   6.508  0.00  0.00    +0.024 A 
ATOM      9  C   LIG    1       24.256 -23.213   6.889  0.00  0.00    +0.030 A 
BRANCH   7  10
ATOM     10  N   LIG    1       23.798 -26.704   5.738  0.00  0.00    -0.358 N 
ATOM     11  H   LIG    1       24.333 -27.553   5.891  0.00  0.00    +0.142 HD
ATOM     12  H   LIG    1       22.826 -26.810   6.013  0.00  0.00    +0.142 HD
ENDBRANCH   7  10
ENDBRANCH   1   4
BRANCH   1  13
ATOM     13  N   LIG    1       27.980 -21.835   6.785  0.00  0.00    -0.195 N 
ATOM     14  H   LIG    1       28.405 -22.575   7.346  0.00  0.00    +0.175 HD
BRANCH  13  16
ATOM     15  C   LIG    1       29.773 -20.583   8.003  0.00  0.00    +0.257 A 
ATOM     16  C   LIG    1       28.818 -20.704   6.985  0.00  0.00    +0.201 A 
ATOM     17  N   LIG    1       28.611 -19.749   6.053  0.00  0.00    -0.233 NA
ATOM     18  C   LIG    1       29.398 -18.655   6.178  0.00  0.00    +0.133 A 
ATOM     19  C   LIG    1       30.330 -18.514   7.196  0.00  0.00    +0.134 A 
ATOM     20  N   LIG    1       30.536 -19.468   8.134  0.00  0.00    -0.217 NA
BRANCH  15  22
ATOM     21  C   LIG    1       31.183 -22.024   9.166  0.00  0.00    +0.279 C 
ATOM     22  O   LIG    1       29.850 -21.565   8.969  0.00  0.00    -0.477 OA
ENDBRANCH  15  22
ENDBRANCH  13  16
ENDBRANCH   1  13
TORSDOF 5
ENDMDL
MODEL 4
REMARK VINA RESULT:      -7.1      1.902      2.317
REMARK  Name = *****
REMARK                            x       y       z     vdW  Elec       q    Type
REMARK                         _______ _______ _______ _____ _____    ______ ____
ROOT
ATOM      1  S   LIG    1       28.419 -20.056   6.419  0.00  0.00    +0.074 S 
ATOM      2  O   LIG    1       29.069 -21.345   6.306  0.00  0.00    -0.150 OA
ATOM      3  O   LIG    1       28.823 -18.930   5.608  0.00  0.00    -0.150 OA
ENDROOT
BRANCH   1   4
ATOM      4  C   LIG    1       26.677 -20.308   6.150  0.00  0.00    +0.109 A 
ATOM      5  C   LIG    1       26.124 -20.096   4.887  0.00  0.00    +0.030 A 
ATOM      6  C   LIG    1       24.748 -20.268   4.702  0.00  0.00    +0.024 A 
ATOM      7  C   LIG    1       23.925 -20.676   5.758  0.00  0.00    +0.025 A 
ATOM      8  C   LIG    1       24.484 -20.809   7.033  0.00  0.00    +0.024 A 
ATOM      9  C   LIG    1       25.857 -20.643   7.232  0.00  0.00    +0.030 A 
BRANCH   7  10
ATOM     10  N   LIG    1       22.537 -20.720   5.591  0.00  0.00    -0.358 N 
ATOM     11  H   LIG    1       22.238 -20.730   4.620  0.00  0.00    +0.142 HD
ATOM     12  H   LIG    1       22.077 -21.441   6.139  0.00  0.00    +0.142 HD
ENDBRANCH   7  10
ENDBRANCH   1   4
BRANCH   1  13
ATOM     13  N   LIG    1       28.420 -19.527   8.028  0.00  0.00    -0.195 N 
ATOM     14  H   LIG    1       27.883 -18.658   8.040  0.00  0.00    +0.175 HD
BRANCH  13  16
ATOM     15  C   LIG    1       30.697 -20.052   8.923  0.00  0.00    +0.257 A 
ATOM     16  C   LIG    1       29.718 -19.157   8.475  0.00  0.00    +0.201 A 
ATOM     17  N   LIG    1       29.919 -17.824   8.394  0.00  0.00    -0.233 NA
ATOM     18  C   LIG    1       31.148 -17.413   8.785  0.00  0.00    +0.133 A 
ATOM     19  C   LIG    1       32.119 -18.287   9.253  0.00  0.00    +0.134 A 
ATOM     20  N   LIG    1       31.916 -19.622   9.339  0.00  0.00    -0.217 NA
BRANCH  15  22
ATOM     21  C   LIG    1       31.524 -22.222   9.080  0.00  0.00    +0.279 C 
ATOM     22  O   LIG    1       30.373 -21.385   9.064  0.00  0.00    -0.477 OA
ENDBRANCH  15  22
ENDBRANCH  13  16
ENDBRANCH   1  13
TORSDOF 5
ENDMDL
MODEL 5
REMARK VINA RESULT:      -7.0      2.670      6.458
REMARK  Name = *****
REMARK                            x       y       z     vdW  Elec       q    Type
REMARK                         _______ _______ _______ _____ _____    ______ ____
ROOT
ATOM      1  S   LIG    1       26.336 -21.503   7.816  0.00  0.00    +0.074 S 
ATOM      2  O   LIG    1       26.403 -22.578   8.784  0.00  0.00    -0.150 OA
ATOM      3  O   LIG    1       25.460 -20.368   8.003  0.00  0.00    -0.150 OA
ENDROOT
BRANCH   1   4
ATOM      4  C   LIG    1       27.987 -20.871   7.602  0.00  0.00    +0.109 A 
ATOM      5  C   LIG    1       29.034 -21.362   8.382  0.00  0.00    +0.030 A 
ATOM      6  C   LIG    1       30.317 -20.830   8.222  0.00  0.00    +0.024 A 
ATOM      7  C   LIG    1       30.571 -19.834   7.272  0.00  0.00    +0.025 A 
ATOM      8  C   LIG    1       29.497 -19.301   6.554  0.00  0.00    +0.024 A 
ATOM      9  C   LIG    1       28.209 -19.823   6.701  0.00  0.00    +0.030 A 
BRANCH   7  10
ATOM     10  N   LIG    1       31.829 -19.224   7.212  0.00  0.00    -0.358 N 
ATOM     11  H   LIG    1       32.603 -19.879   7.161  0.00  0.00    +0.142 HD
ATOM     12  H   LIG    1       31.901 -18.493   6.510  0.00  0.00    +0.142 HD
ENDBRANCH   7  10
ENDBRANCH   1   4
BRANCH   1  13
ATOM     13  N   LIG    1       26.025 -22.113   6.267  0.00  0.00    -0.195 N 
ATOM     14  H   LIG    1       25.391 -21.446   5.823  0.00  0.00    +0.175 HD
BRANCH  13  16
ATOM     15  C   LIG    1       23.924 -23.442   6.554  0.00  0.00    +0.257 A 
ATOM     16  C   LIG    1       25.298 -23.334   6.303  0.00  0.00    +0.201 A 
ATOM     17  N   LIG    1       26.084 -24.399   6.035  0.00  0.00    -0.233 NA
ATOM     18  C   LIG    1       25.442 -25.590   6.032  0.00  0.00    +0.133 A 
ATOM     19  C   LIG    1       24.087 -25.714   6.303  0.00  0.00    +0.134 A 
ATOM     20  N   LIG    1       23.298 -24.648   6.576  0.00  0.00    -0.217 NA
BRANCH  15  22
ATOM     21  C   LIG    1       22.719 -21.608   5.781  0.00  0.00    +0.279 C 
ATOM     22  O   LIG    1       23.217 -22.314   6.912  0.00  0.00    -0.477 OA
ENDBRANCH  15  22
ENDBRANCH  13  16
ENDBRANCH   1  13
TORSDOF 5
ENDMDL
MODEL 6
REMARK VINA RESULT:      -6.9      1.863      6.319
REMARK  Name = *****
REMARK                            x       y       z     vdW  Elec       q    Type
REMARK                         _______ _______ _______ _____ _____    ______ ____
ROOT
ATOM      1  S   LIG    1       26.396 -21.379   6.957  0.00  0.00    +0.074 S 
ATOM      2  O   LIG    1       26.452 -22.792   7.270  0.00  0.00    -0.150 OA
ATOM      3  O   LIG    1       25.540 -20.474   7.689  0.00  0.00    -0.150 OA
ENDROOT
BRANCH   1   4
ATOM      4  C   LIG    1       28.055 -20.740   7.058  0.00  0.00    +0.109 A 
ATOM      5  C   LIG    1       28.960 -21.278   7.973  0.00  0.00    +0.030 A 
ATOM      6  C   LIG    1       30.249 -20.742   8.060  0.00  0.00    +0.024 A 
ATOM      7  C   LIG    1       30.651 -19.694   7.224  0.00  0.00    +0.025 A 
ATOM      8  C   LIG    1       29.708 -19.117   6.368  0.00  0.00    +0.024 A 
ATOM      9  C   LIG    1       28.417 -19.644   6.268  0.00  0.00    +0.030 A 
BRANCH   7  10
ATOM     10  N   LIG    1       31.897 -19.085   7.410  0.00  0.00    -0.358 N 
ATOM     11  H   LIG    1       32.486 -19.551   8.094  0.00  0.00    +0.142 HD
ATOM     12  H   LIG    1       32.395 -18.891   6.547  0.00  0.00    +0.142 HD
ENDBRANCH   7  10
ENDBRANCH   1   4
BRANCH   1  13
ATOM     13  N   LIG    1       26.064 -21.146   5.312  0.00  0.00    -0.195 N 
ATOM     14  H   LIG    1       26.625 -20.343   5.022  0.00  0.00    +0.175 HD
BRANCH  13  16
ATOM     15  C   LIG    1       23.591 -21.522   5.385  0.00  0.00    +0.257 A 
ATOM     16  C   LIG    1       24.718 -20.748   5.083  0.00  0.00    +0.201 A 
ATOM     17  N   LIG    1       24.641 -19.506   4.558  0.00  0.00    -0.233 NA
ATOM     18  C   LIG    1       23.381 -19.062   4.338  0.00  0.00    +0.133 A 
ATOM     19  C   LIG    1       22.257 -19.829   4.610  0.00  0.00    +0.134 A 
ATOM     20  N   LIG    1       22.334 -21.075   5.133  0.00  0.00    -0.217 NA
BRANCH  15  22
ATOM     21  C   LIG    1       22.901 -23.135   6.914  0.00  0.00    +0.279 C 
ATOM     22  O   LIG    1       23.766 -22.816   5.829  0.00  0.00    -0.477 OA
ENDBRANCH  15  22
ENDBRANCH  13  16
ENDBRANCH   1  13
TORSDOF 5
ENDMDL
MODEL 7
REMARK VINA RESULT:      -6.9      1.925      6.282
REMARK  Name = *****
REMARK                            x       y       z     vdW  Elec       q    Type
REMARK                         _______ _______ _______ _____ _____    ______ ____
ROOT
ATOM      1  S   LIG    1       26.123 -21.534   7.062  0.00  0.00    +0.074 S 
ATOM      2  O   LIG    1       26.205 -22.894   7.554  0.00  0.00    -0.150 OA
ATOM      3  O   LIG    1       25.221 -20.570   7.648  0.00  0.00    -0.150 OA
ENDROOT
BRANCH   1   4
ATOM      4  C   LIG    1       27.761 -20.840   7.129  0.00  0.00    +0.109 A 
ATOM      5  C   LIG    1       28.132 -19.829   6.243  0.00  0.00    +0.030 A 
ATOM      6  C   LIG    1       29.433 -19.318   6.289  0.00  0.00    +0.024 A 
ATOM      7  C   LIG    1       30.357 -19.786   7.230  0.00  0.00    +0.025 A 
ATOM      8  C   LIG    1       29.992 -20.851   8.058  0.00  0.00    +0.024 A 
ATOM      9  C   LIG    1       28.695 -21.370   8.025  0.00  0.00    +0.030 A 
BRANCH   7  10
ATOM     10  N   LIG    1       31.689 -19.358   7.181  0.00  0.00    -0.358 N 
ATOM     11  H   LIG    1       32.062 -19.280   6.240  0.00  0.00    +0.142 HD
ATOM     12  H   LIG    1       31.877 -18.528   7.737  0.00  0.00    +0.142 HD
ENDBRANCH   7  10
ENDBRANCH   1   4
BRANCH   1  13
ATOM     13  N   LIG    1       25.839 -21.520   5.392  0.00  0.00    -0.195 N 
ATOM     14  H   LIG    1       26.599 -20.975   4.981  0.00  0.00    +0.175 HD
BRANCH  13  16
ATOM     15  C   LIG    1       24.617 -19.656   4.254  0.00  0.00    +0.257 A 
ATOM     16  C   LIG    1       24.657 -20.807   5.051  0.00  0.00    +0.201 A 
ATOM     17  N   LIG    1       23.551 -21.386   5.564  0.00  0.00    -0.233 NA
ATOM     18  C   LIG    1       22.390 -20.765   5.253  0.00  0.00    +0.133 A 
ATOM     19  C   LIG    1       22.339 -19.610   4.485  0.00  0.00    +0.134 A 
ATOM     20  N   LIG    1       23.447 -19.026   3.973  0.00  0.00    -0.217 NA
BRANCH  15  22
ATOM     21  C   LIG    1       25.612 -17.774   3.312  0.00  0.00    +0.279 C 
ATOM     22  O   LIG    1       25.803 -19.078   3.851  0.00  0.00    -0.477 OA
ENDBRANCH  15  22
ENDBRANCH  13  16
ENDBRANCH   1  13
TORSDOF 5
ENDMDL
MODEL 8
REMARK VINA RESULT:      -6.9      2.729      3.461
REMARK  Name = *****
REMARK                            x       y       z     vdW  Elec       q    Type
REMARK                         _______ _______ _______ _____ _____    ______ ____
ROOT
ATOM      1  S   LIG    1       26.649 -21.422   7.643  0.00  0.00    +0.074 S 
ATOM      2  O   LIG    1       26.000 -20.258   7.074  0.00  0.00    -0.150 OA
ATOM      3  O   LIG    1       26.857 -21.553   9.067  0.00  0.00    -0.150 OA
ENDROOT
BRANCH   1   4
ATOM      4  C   LIG    1       25.744 -22.857   7.103  0.00  0.00    +0.109 A 
ATOM      5  C   LIG    1       26.425 -24.003   6.691  0.00  0.00    +0.030 A 
ATOM      6  C   LIG    1       25.698 -25.110   6.240  0.00  0.00    +0.024 A 
ATOM      7  C   LIG    1       24.299 -25.093   6.223  0.00  0.00    +0.025 A 
ATOM      8  C   LIG    1       23.636 -23.911   6.565  0.00  0.00    +0.024 A 
ATOM      9  C   LIG    1       24.349 -22.798   7.021  0.00  0.00    +0.030 A 
BRANCH   7  10
ATOM     10  N   LIG    1       23.590 -26.156   5.651  0.00  0.00    -0.358 N 
ATOM     11  H   LIG    1       22.589 -25.999   5.592  0.00  0.00    +0.142 HD
ATOM     12  H   LIG    1       23.977 -26.484   4.771  0.00  0.00    +0.142 HD
ENDBRANCH   7  10
ENDBRANCH   1   4
BRANCH   1  13
ATOM     13  N   LIG    1       28.147 -21.692   6.901  0.00  0.00    -0.195 N 
ATOM     14  H   LIG    1       28.479 -22.592   7.253  0.00  0.00    +0.175 HD
BRANCH  13  16
ATOM     15  C   LIG    1       29.329 -19.491   6.747  0.00  0.00    +0.257 A 
ATOM     16  C   LIG    1       29.133 -20.755   7.317  0.00  0.00    +0.201 A 
ATOM     17  N   LIG    1       29.857 -21.214   8.360  0.00  0.00    -0.233 NA
ATOM     18  C   LIG    1       30.799 -20.355   8.817  0.00  0.00    +0.133 A 
ATOM     19  C   LIG    1       31.019 -19.109   8.245  0.00  0.00    +0.134 A 
ATOM     20  N   LIG    1       30.296 -18.650   7.197  0.00  0.00    -0.217 NA
BRANCH  15  22
ATOM     21  C   LIG    1       29.101 -17.955   5.013  0.00  0.00    +0.279 C 
ATOM     22  O   LIG    1       28.608 -19.143   5.624  0.00  0.00    -0.477 OA
ENDBRANCH  15  22
ENDBRANCH  13  16
ENDBRANCH   1  13
TORSDOF 5
ENDMDL
MODEL 9
REMARK VINA RESULT:      -6.8      7.002      8.448
REMARK  Name = *****
REMARK                            x       y       z     vdW  Elec       q    Type
REMARK                         _______ _______ _______ _____ _____    ______ ____
ROOT
ATOM      1  S   LIG    1       25.773 -26.792   6.177  0.00  0.00    +0.074 S 
ATOM      2  O   LIG    1       26.381 -26.715   4.865  0.00  0.00    -0.150 OA
ATOM      3  O   LIG    1       26.531 -27.193   7.341  0.00  0.00    -0.150 OA
ENDROOT
BRANCH   1   4
ATOM      4  C   LIG    1       25.058 -25.201   6.531  0.00  0.00    +0.109 A 
ATOM      5  C   LIG    1       25.853 -24.168   7.029  0.00  0.00    +0.030 A 
ATOM      6  C   LIG    1       25.267 -22.935   7.332  0.00  0.00    +0.024 A 
ATOM      7  C   LIG    1       23.902 -22.714   7.115  0.00  0.00    +0.025 A 
ATOM      8  C   LIG    1       23.107 -23.782   6.689  0.00  0.00    +0.024 A 
ATOM      9  C   LIG    1       23.679 -25.019   6.380  0.00  0.00    +0.030 A 
BRANCH   7  10
ATOM     10  N   LIG    1       23.306 -21.521   7.541  0.00  0.00    -0.358 N 
ATOM     11  H   LIG    1       23.661 -20.693   7.072  0.00  0.00    +0.142 HD
ATOM     12  H   LIG    1       22.291 -21.547   7.553  0.00  0.00    +0.142 HD
ENDBRANCH   7  10
ENDBRANCH   1   4
BRANCH   1  13
ATOM     13  N   LIG    1       24.386 -27.763   6.137  0.00  0.00    -0.195 N 
ATOM     14  H   LIG    1       23.881 -27.570   7.003  0.00  0.00    +0.175 HD
BRANCH  13  16
ATOM     15  C   LIG    1       24.360 -29.998   7.263  0.00  0.00    +0.257 A 
ATOM     16  C   LIG    1       24.695 -29.150   6.200  0.00  0.00    +0.201 A 
ATOM     17  N   LIG    1       25.335 -29.577   5.090  0.00  0.00    -0.233 NA
ATOM     18  C   LIG    1       25.635 -30.896   5.083  0.00  0.00    +0.133 A 
ATOM     19  C   LIG    1       25.330 -31.742   6.140  0.00  0.00    +0.134 A 
ATOM     20  N   LIG    1       24.693 -31.314   7.255  0.00  0.00    -0.217 NA
BRANCH  15  22
ATOM     21  C   LIG    1       23.428 -30.455   9.346  0.00  0.00    +0.279 C 
ATOM     22  O   LIG    1       23.792 -29.458   8.398  0.00  0.00    -0.477 OA
ENDBRANCH  15  22
ENDBRANCH  13  16
ENDBRANCH   1  13
TORSDOF 5
ENDMDL
