MODEL 1
REMARK VINA RESULT:      -2.5      0.000      0.000
REMARK  Name = *****
REMARK                            x       y       z     vdW  Elec       q    Type
REMARK                         _______ _______ _______ _____ _____    ______ ____
ROOT
ATOM      1  C   LIG    1       21.170 -18.754   3.655  0.00  0.00    -0.008 A 
ATOM      2  S   LIG    1       21.795 -20.016   4.622  0.00  0.00    -0.075 S 
ATOM      3  C   LIG    1       23.372 -19.417   4.498  0.00  0.00    +0.097 A 
ATOM      4  N   LIG    1       24.439 -20.129   5.057  0.00  0.00    -0.275 N 
ATOM      5  C   LIG    1       25.729 -20.081   4.564  0.00  0.00    +0.160 A 
ATOM      6  C   LIG    1       26.070 -19.330   3.335  0.00  0.00    +0.218 C 
ATOM      7  N   LIG    1       25.849 -17.897   3.494  0.00  0.00    -0.275 NA
ATOM      8  C   LIG    1       24.673 -17.405   3.683  0.00  0.00    +0.077 C 
ATOM      9  N   LIG    1       26.515 -20.878   5.253  0.00  0.00    -0.132 NA
ATOM     10  N   LIG    1       25.759 -21.468   6.224  0.00  0.00    -0.134 NA
ATOM     11  C   LIG    1       24.520 -21.028   6.113  0.00  0.00    +0.135 A 
ATOM     12  C   LIG    1       23.435 -21.370   7.062  0.00  0.00    +0.088 C 
ATOM     13  C   LIG    1       23.464 -18.235   3.781  0.00  0.00    +0.032 A 
ATOM     14  C   LIG    1       22.173 -17.905   3.231  0.00  0.00    +0.023 A 
ENDROOT
BRANCH   8  15
ATOM     15  C   LIG    1       24.560 -15.912   3.785  0.00  0.00    +0.019 A 
ATOM     16  C   LIG    1       23.554 -15.219   4.478  0.00  0.00    +0.050 A 
ATOM     17 CL   LIG    1       22.330 -15.981   5.433  0.00  0.00    -0.083 Cl
ATOM     18  C   LIG    1       23.555 -13.817   4.497  0.00  0.00    +0.021 A 
ATOM     19  C   LIG    1       24.577 -13.096   3.879  0.00  0.00    +0.002 A 
ATOM     20  C   LIG    1       25.608 -13.773   3.238  0.00  0.00    +0.001 A 
ATOM     21  C   LIG    1       25.596 -15.169   3.185  0.00  0.00    +0.011 A 
ENDBRANCH   8  15
BRANCH   1  23
ATOM     22  C   LIG    1       19.411 -17.812   2.158  0.00  0.00    +0.009 C 
ATOM     23  C   LIG    1       19.697 -18.658   3.391  0.00  0.00    +0.039 C 
ENDBRANCH   1  23
TORSDOF 2
ENDMDL
MODEL 2
REMARK VINA RESULT:      -1.9      1.161      1.504
REMARK  Name = *****
REMARK                            x       y       z     vdW  Elec       q    Type
REMARK                         _______ _______ _______ _____ _____    ______ ____
ROOT
ATOM      1  C   LIG    1       21.184 -18.692   3.745  0.00  0.00    -0.008 A 
ATOM      2  S   LIG    1       21.813 -19.979   4.675  0.00  0.00    -0.075 S 
ATOM      3  C   LIG    1       23.391 -19.387   4.544  0.00  0.00    +0.097 A 
ATOM      4  N   LIG    1       24.461 -20.119   5.072  0.00  0.00    -0.275 N 
ATOM      5  C   LIG    1       25.745 -20.068   4.564  0.00  0.00    +0.160 A 
ATOM      6  C   LIG    1       26.075 -19.290   3.348  0.00  0.00    +0.218 C 
ATOM      7  N   LIG    1       25.866 -17.861   3.542  0.00  0.00    -0.275 NA
ATOM      8  C   LIG    1       24.696 -17.365   3.757  0.00  0.00    +0.077 C 
ATOM      9  N   LIG    1       26.535 -20.885   5.224  0.00  0.00    -0.132 NA
ATOM     10  N   LIG    1       25.787 -21.493   6.191  0.00  0.00    -0.134 NA
ATOM     11  C   LIG    1       24.550 -21.042   6.107  0.00  0.00    +0.135 A 
ATOM     12  C   LIG    1       23.475 -21.399   7.061  0.00  0.00    +0.088 C 
ATOM     13  C   LIG    1       23.482 -18.190   3.853  0.00  0.00    +0.032 A 
ATOM     14  C   LIG    1       22.187 -17.839   3.327  0.00  0.00    +0.023 A 
ENDROOT
BRANCH   8  15
ATOM     15  C   LIG    1       24.594 -15.874   3.895  0.00  0.00    +0.019 A 
ATOM     16  C   LIG    1       25.664 -14.972   3.770  0.00  0.00    +0.050 A 
ATOM     17 CL   LIG    1       27.271 -15.425   3.320  0.00  0.00    -0.083 Cl
ATOM     18  C   LIG    1       25.440 -13.596   3.926  0.00  0.00    +0.021 A 
ATOM     19  C   LIG    1       24.156 -13.103   4.150  0.00  0.00    +0.002 A 
ATOM     20  C   LIG    1       23.081 -13.983   4.220  0.00  0.00    +0.001 A 
ATOM     21  C   LIG    1       23.300 -15.357   4.100  0.00  0.00    +0.011 A 
ENDBRANCH   8  15
BRANCH   1  23
ATOM     22  C   LIG    1       19.416 -17.829   2.211  0.00  0.00    +0.009 C 
ATOM     23  C   LIG    1       19.708 -18.580   3.503  0.00  0.00    +0.039 C 
ENDBRANCH   1  23
TORSDOF 2
ENDMDL
MODEL 3
REMARK VINA RESULT:      -1.3      2.941      5.820
REMARK  Name = *****
REMARK                            x       y       z     vdW  Elec       q    Type
REMARK                         _______ _______ _______ _____ _____    ______ ____
ROOT
ATOM      1  C   LIG    1       26.499 -15.503   3.412  0.00  0.00    -0.008 A 
ATOM      2  S   LIG    1       24.809 -15.338   3.599  0.00  0.00    -0.075 S 
ATOM      3  C   LIG    1       24.618 -16.988   3.919  0.00  0.00    +0.097 A 
ATOM      4  N   LIG    1       23.337 -17.526   4.082  0.00  0.00    -0.275 N 
ATOM      5  C   LIG    1       23.016 -18.835   3.778  0.00  0.00    +0.160 A 
ATOM      6  C   LIG    1       23.996 -19.759   3.163  0.00  0.00    +0.218 C 
ATOM      7  N   LIG    1       25.128 -20.017   4.044  0.00  0.00    -0.275 NA
ATOM      8  C   LIG    1       25.951 -19.087   4.387  0.00  0.00    +0.077 C 
ATOM      9  N   LIG    1       21.737 -19.057   3.988  0.00  0.00    -0.132 NA
ATOM     10  N   LIG    1       21.185 -17.895   4.443  0.00  0.00    -0.134 NA
ATOM     11  C   LIG    1       22.131 -16.978   4.502  0.00  0.00    +0.135 A 
ATOM     12  C   LIG    1       21.928 -15.616   5.048  0.00  0.00    +0.088 C 
ATOM     13  C   LIG    1       25.811 -17.691   3.948  0.00  0.00    +0.032 A 
ATOM     14  C   LIG    1       26.894 -16.817   3.573  0.00  0.00    +0.023 A 
ENDROOT
BRANCH   8  15
ATOM     15  C   LIG    1       27.108 -19.479   5.260  0.00  0.00    +0.019 A 
ATOM     16  C   LIG    1       27.090 -20.504   6.220  0.00  0.00    +0.050 A 
ATOM     17 CL   LIG    1       25.753 -21.571   6.479  0.00  0.00    -0.083 Cl
ATOM     18  C   LIG    1       28.238 -20.772   6.979  0.00  0.00    +0.021 A 
ATOM     19  C   LIG    1       29.421 -20.069   6.756  0.00  0.00    +0.002 A 
ATOM     20  C   LIG    1       29.466 -19.090   5.769  0.00  0.00    +0.001 A 
ATOM     21  C   LIG    1       28.317 -18.793   5.032  0.00  0.00    +0.011 A 
ENDBRANCH   8  15
BRANCH   1  23
ATOM     22  C   LIG    1       27.692 -13.564   4.431  0.00  0.00    +0.009 C 
ATOM     23  C   LIG    1       27.354 -14.302   3.142  0.00  0.00    +0.039 C 
ENDBRANCH   1  23
TORSDOF 2
ENDMDL
MODEL 4
REMARK VINA RESULT:      -0.3      2.904      5.845
REMARK  Name = *****
REMARK                            x       y       z     vdW  Elec       q    Type
REMARK                         _______ _______ _______ _____ _____    ______ ____
ROOT
ATOM      1  C   LIG    1       26.451 -15.835   3.355  0.00  0.00    -0.008 A 
ATOM      2  S   LIG    1       24.754 -15.756   3.527  0.00  0.00    -0.075 S 
ATOM      3  C   LIG    1       24.647 -17.407   3.875  0.00  0.00    +0.097 A 
ATOM      4  N   LIG    1       23.395 -18.009   4.039  0.00  0.00    -0.275 N 
ATOM      5  C   LIG    1       23.145 -19.339   3.757  0.00  0.00    +0.160 A 
ATOM      6  C   LIG    1       24.178 -20.221   3.165  0.00  0.00    +0.218 C 
ATOM      7  N   LIG    1       25.315 -20.403   4.059  0.00  0.00    -0.275 NA
ATOM      8  C   LIG    1       26.086 -19.425   4.390  0.00  0.00    +0.077 C 
ATOM      9  N   LIG    1       21.879 -19.624   3.962  0.00  0.00    -0.132 NA
ATOM     10  N   LIG    1       21.263 -18.484   4.392  0.00  0.00    -0.134 NA
ATOM     11  C   LIG    1       22.159 -17.518   4.441  0.00  0.00    +0.135 A 
ATOM     12  C   LIG    1       21.880 -16.159   4.961  0.00  0.00    +0.088 C 
ATOM     13  C   LIG    1       25.875 -18.046   3.926  0.00  0.00    +0.032 A 
ATOM     14  C   LIG    1       26.914 -17.123   3.542  0.00  0.00    +0.023 A 
ENDROOT
BRANCH   8  15
ATOM     15  C   LIG    1       27.254 -19.739   5.278  0.00  0.00    +0.019 A 
ATOM     16  C   LIG    1       28.448 -19.002   5.341  0.00  0.00    +0.050 A 
ATOM     17 CL   LIG    1       28.729 -17.530   4.479  0.00  0.00    -0.083 Cl
ATOM     18  C   LIG    1       29.472 -19.402   6.212  0.00  0.00    +0.021 A 
ATOM     19  C   LIG    1       29.301 -20.494   7.061  0.00  0.00    +0.002 A 
ATOM     20  C   LIG    1       28.101 -21.197   7.047  0.00  0.00    +0.001 A 
ATOM     21  C   LIG    1       27.089 -20.827   6.159  0.00  0.00    +0.011 A 
ENDBRANCH   8  15
BRANCH   1  23
ATOM     22  C   LIG    1       27.446 -13.765   4.330  0.00  0.00    +0.009 C 
ATOM     23  C   LIG    1       27.244 -14.595   3.069  0.00  0.00    +0.039 C 
ENDBRANCH   1  23
TORSDOF 2
ENDMDL
