MODEL 1
REMARK VINA RESULT:      -4.7      0.000      0.000
REMARK  Name = *****
REMARK                            x       y       z     vdW  Elec       q    Type
REMARK                         _______ _______ _______ _____ _____    ______ ____
ROOT
ATOM      1  C   LIG    1       26.104 -18.535   2.937  0.00  0.00    +0.044 C 
ATOM      2  C   LIG    1       25.167 -17.467   3.446  0.00  0.00    -0.046 A 
ATOM      3  C   LIG    1       23.852 -17.753   3.884  0.00  0.00    -0.030 A 
ATOM      4  C   LIG    1       23.040 -16.684   4.328  0.00  0.00    -0.046 A 
ATOM      5  C   LIG    1       21.630 -16.888   4.824  0.00  0.00    +0.044 C 
ATOM      6  C   LIG    1       23.548 -15.370   4.327  0.00  0.00    +0.007 A 
ATOM      7  C   LIG    1       24.849 -15.063   3.909  0.00  0.00    -0.042 A 
ATOM      8  C   LIG    1       25.644 -16.138   3.481  0.00  0.00    +0.007 A 
ENDROOT
BRANCH   7   9
ATOM      9  C   LIG    1       25.392 -13.621   3.901  0.00  0.00    -0.013 C 
ATOM     10  C   LIG    1       26.146 -13.340   2.584  0.00  0.00    +0.015 C 
ATOM     11  C   LIG    1       26.377 -13.331   5.059  0.00  0.00    +0.015 C 
ATOM     12  C   LIG    1       24.234 -12.609   4.030  0.00  0.00    +0.015 C 
ENDBRANCH   7   9
BRANCH   3  13
ATOM     13  C   LIG    1       23.317 -19.178   3.907  0.00  0.00    +0.163 C 
BRANCH  13  14
ATOM     14  C   LIG    1       23.666 -19.987   5.136  0.00  0.00    +0.285 C 
ATOM     15  N   LIG    1       24.899 -20.547   5.362  0.00  0.00    -0.234 N 
ATOM     16  H   LIG    1       25.507 -20.721   4.563  0.00  0.00    +0.291 HD
ATOM     17  C   LIG    1       24.735 -21.572   6.360  0.00  0.00    +0.272 C 
ATOM     18  C   LIG    1       23.475 -21.061   7.062  0.00  0.00    +0.333 C 
ATOM     19  N   LIG    1       22.757 -20.222   6.059  0.00  0.00    -0.084 NA
ENDBRANCH  13  14
ENDBRANCH   3  13
TORSDOF 3
ENDMDL
MODEL 2
REMARK VINA RESULT:      -4.7      0.277      2.255
REMARK  Name = *****
REMARK                            x       y       z     vdW  Elec       q    Type
REMARK                         _______ _______ _______ _____ _____    ______ ____
ROOT
ATOM      1  C   LIG    1       21.745 -16.898   4.808  0.00  0.00    +0.044 C 
ATOM      2  C   LIG    1       23.156 -16.750   4.293  0.00  0.00    -0.046 A 
ATOM      3  C   LIG    1       23.941 -17.858   3.895  0.00  0.00    -0.030 A 
ATOM      4  C   LIG    1       25.259 -17.623   3.441  0.00  0.00    -0.046 A 
ATOM      5  C   LIG    1       26.170 -18.736   2.986  0.00  0.00    +0.044 C 
ATOM      6  C   LIG    1       25.761 -16.308   3.393  0.00  0.00    +0.007 A 
ATOM      7  C   LIG    1       25.000 -15.195   3.771  0.00  0.00    -0.042 A 
ATOM      8  C   LIG    1       23.690 -15.446   4.208  0.00  0.00    +0.007 A 
ENDROOT
BRANCH   7   9
ATOM      9  C   LIG    1       25.561 -13.760   3.726  0.00  0.00    -0.013 C 
ATOM     10  C   LIG    1       24.437 -12.756   3.392  0.00  0.00    +0.015 C 
ATOM     11  C   LIG    1       26.672 -13.570   2.664  0.00  0.00    +0.015 C 
ATOM     12  C   LIG    1       26.172 -13.379   5.091  0.00  0.00    +0.015 C 
ENDBRANCH   7   9
BRANCH   3  13
ATOM     13  C   LIG    1       23.384 -19.275   3.925  0.00  0.00    +0.163 C 
BRANCH  13  14
ATOM     14  C   LIG    1       23.675 -20.064   5.182  0.00  0.00    +0.285 C 
ATOM     15  N   LIG    1       24.929 -20.476   5.557  0.00  0.00    -0.234 N 
ATOM     16  H   LIG    1       25.648 -20.557   4.840  0.00  0.00    +0.291 HD
ATOM     17  C   LIG    1       24.770 -21.536   6.518  0.00  0.00    +0.272 C 
ATOM     18  C   LIG    1       23.380 -21.197   7.061  0.00  0.00    +0.333 C 
ATOM     19  N   LIG    1       22.694 -20.427   5.982  0.00  0.00    -0.084 NA
ENDBRANCH  13  14
ENDBRANCH   3  13
TORSDOF 3
ENDMDL
MODEL 3
REMARK VINA RESULT:      -3.4      1.774      3.161
REMARK  Name = *****
REMARK                            x       y       z     vdW  Elec       q    Type
REMARK                         _______ _______ _______ _____ _____    ______ ____
ROOT
ATOM      1  C   LIG    1       24.442 -18.805   3.139  0.00  0.00    +0.044 C 
ATOM      2  C   LIG    1       25.640 -17.992   3.564  0.00  0.00    -0.046 A 
ATOM      3  C   LIG    1       26.777 -18.574   4.175  0.00  0.00    -0.030 A 
ATOM      4  C   LIG    1       27.846 -17.729   4.554  0.00  0.00    -0.046 A 
ATOM      5  C   LIG    1       29.103 -18.254   5.201  0.00  0.00    +0.044 C 
ATOM      6  C   LIG    1       27.762 -16.343   4.319  0.00  0.00    +0.007 A 
ATOM      7  C   LIG    1       26.653 -15.746   3.707  0.00  0.00    -0.042 A 
ATOM      8  C   LIG    1       25.606 -16.601   3.327  0.00  0.00    +0.007 A 
ENDROOT
BRANCH   7   9
ATOM      9  C   LIG    1       26.565 -14.226   3.464  0.00  0.00    -0.013 C 
ATOM     10  C   LIG    1       25.860 -13.534   4.650  0.00  0.00    +0.015 C 
ATOM     11  C   LIG    1       25.775 -13.855   2.186  0.00  0.00    +0.015 C 
ATOM     12  C   LIG    1       27.978 -13.624   3.312  0.00  0.00    +0.015 C 
ENDBRANCH   7   9
BRANCH   3  13
ATOM     13  C   LIG    1       26.872 -20.076   4.402  0.00  0.00    +0.163 C 
BRANCH  13  14
ATOM     14  C   LIG    1       25.799 -20.672   5.286  0.00  0.00    +0.285 C 
ATOM     15  N   LIG    1       24.805 -21.503   4.831  0.00  0.00    -0.234 N 
ATOM     16  H   LIG    1       24.562 -21.474   3.842  0.00  0.00    +0.291 HD
ATOM     17  C   LIG    1       23.756 -21.505   5.816  0.00  0.00    +0.272 C 
ATOM     18  C   LIG    1       24.557 -21.123   7.062  0.00  0.00    +0.333 C 
ATOM     19  N   LIG    1       25.753 -20.380   6.568  0.00  0.00    -0.084 NA
ENDBRANCH  13  14
ENDBRANCH   3  13
TORSDOF 3
ENDMDL
MODEL 4
REMARK VINA RESULT:      -2.1      2.510      5.991
REMARK  Name = *****
REMARK                            x       y       z     vdW  Elec       q    Type
REMARK                         _______ _______ _______ _____ _____    ______ ____
ROOT
ATOM      1  C   LIG    1       26.098 -17.123   2.940  0.00  0.00    +0.044 C 
ATOM      2  C   LIG    1       24.813 -17.434   3.667  0.00  0.00    -0.046 A 
ATOM      3  C   LIG    1       23.893 -16.429   4.051  0.00  0.00    -0.030 A 
ATOM      4  C   LIG    1       22.723 -16.814   4.745  0.00  0.00    -0.046 A 
ATOM      5  C   LIG    1       21.678 -15.820   5.187  0.00  0.00    +0.044 C 
ATOM      6  C   LIG    1       22.496 -18.173   5.036  0.00  0.00    +0.007 A 
ATOM      7  C   LIG    1       23.385 -19.187   4.657  0.00  0.00    -0.042 A 
ATOM      8  C   LIG    1       24.536 -18.787   3.960  0.00  0.00    +0.007 A 
ENDROOT
BRANCH   7   9
ATOM      9  C   LIG    1       23.133 -20.670   4.990  0.00  0.00    -0.013 C 
ATOM     10  C   LIG    1       24.103 -21.570   4.195  0.00  0.00    +0.015 C 
ATOM     11  C   LIG    1       21.697 -21.139   4.652  0.00  0.00    +0.015 C 
ATOM     12  C   LIG    1       23.348 -20.926   6.497  0.00  0.00    +0.015 C 
ENDBRANCH   7   9
BRANCH   3  13
ATOM     13  C   LIG    1       24.132 -14.964   3.711  0.00  0.00    +0.163 C 
BRANCH  13  14
ATOM     14  C   LIG    1       25.549 -14.472   3.905  0.00  0.00    +0.285 C 
ATOM     15  N   LIG    1       26.124 -14.251   5.132  0.00  0.00    -0.234 N 
ATOM     16  H   LIG    1       25.513 -14.088   5.932  0.00  0.00    +0.291 HD
ATOM     17  C   LIG    1       27.264 -13.396   4.931  0.00  0.00    +0.272 C 
ATOM     18  C   LIG    1       27.584 -13.718   3.469  0.00  0.00    +0.333 C 
ATOM     19  N   LIG    1       26.306 -14.195   2.864  0.00  0.00    -0.084 NA
ENDBRANCH  13  14
ENDBRANCH   3  13
TORSDOF 3
ENDMDL
