MODEL 1
REMARK VINA RESULT:       0.6      0.000      0.000
REMARK  Name = *****
REMARK                            x       y       z     vdW  Elec       q    Type
REMARK                         _______ _______ _______ _____ _____    ______ ____
ROOT
ATOM      1  C   LIG    1       25.801 -14.734   5.874  0.00  0.00    +0.014 C 
ATOM      2  C   LIG    1       25.898 -14.456   4.365  0.00  0.00    +0.001 C 
ATOM      3  C   LIG    1       26.496 -13.050   3.979  0.00  0.00    +0.084 C 
ATOM      4  C   LIG    1       26.147 -13.018   2.468  0.00  0.00    +0.036 C 
ATOM      5  C   LIG    1       24.751 -13.647   2.366  0.00  0.00    +0.007 C 
ATOM      6  C   LIG    1       24.493 -14.374   3.712  0.00  0.00    +0.005 C 
ATOM      7  C   LIG    1       23.738 -15.719   3.560  0.00  0.00    +0.019 C 
ATOM      8  C   LIG    1       24.660 -16.933   3.504  0.00  0.00    -0.063 C 
ATOM      9  C   LIG    1       24.302 -18.147   3.990  0.00  0.00    -0.044 C 
ATOM     10  C   LIG    1       22.993 -18.352   4.626  0.00  0.00    -0.041 C 
ATOM     11  C   LIG    1       21.985 -17.236   4.518  0.00  0.00    +0.036 C 
ATOM     12  C   LIG    1       22.686 -19.466   5.311  0.00  0.00    +0.050 C 
ATOM     13  C   LIG    1       23.682 -20.534   5.537  0.00  0.00    +0.157 C 
ATOM     14  O   LIG    1       23.345 -21.568   6.109  0.00  0.00    -0.293 OA
ATOM     15  C   LIG    1       25.108 -20.257   5.147  0.00  0.00    +0.083 C 
ATOM     16  C   LIG    1       25.159 -19.397   3.894  0.00  0.00    +0.043 C 
ATOM     17  C   LIG    1       25.986 -16.613   2.869  0.00  0.00    +0.032 C 
ATOM     18  C   LIG    1       22.668 -15.880   4.654  0.00  0.00    +0.013 C 
ATOM     19  C   LIG    1       26.762 -15.625   3.746  0.00  0.00    +0.014 C 
ENDROOT
BRANCH   3  20
ATOM     20  O   LIG    1       27.916 -13.036   4.124  0.00  0.00    -0.387 OA
ATOM     21  H   LIG    1       28.308 -13.498   3.361  0.00  0.00    +0.210 HD
ENDBRANCH   3  20
BRANCH   3  22
ATOM     22  C   LIG    1       25.943 -11.721   4.568  0.00  0.00    +0.153 C 
BRANCH  22  23
ATOM     23  C   LIG    1       24.556 -11.698   4.969  0.00  0.00    +0.065 C 
ATOM     24  N   LIG    1       23.451 -11.679   5.289  0.00  0.00    -0.197 NA
ENDBRANCH  22  23
ENDBRANCH   3  22
TORSDOF 3
ENDMDL
