MODEL 1
REMARK VINA RESULT:      -5.1      0.000      0.000
REMARK  Name = *****
REMARK                            x       y       z     vdW  Elec       q    Type
REMARK                         _______ _______ _______ _____ _____    ______ ____
ROOT
ATOM      1  C   LIG    1       26.023 -17.926   3.679  0.00  0.00    +0.179 C 
ENDROOT
BRANCH   1   2
ATOM      2  C   LIG    1       27.168 -18.495   4.521  0.00  0.00    -0.015 A 
ATOM      3  C   LIG    1       27.051 -19.723   5.197  0.00  0.00    +0.006 A 
ATOM      4  C   LIG    1       28.081 -20.190   6.018  0.00  0.00    +0.000 A 
ATOM      5  C   LIG    1       29.250 -19.450   6.164  0.00  0.00    +0.000 A 
ATOM      6  C   LIG    1       29.395 -18.242   5.483  0.00  0.00    +0.000 A 
ATOM      7  C   LIG    1       28.360 -17.767   4.671  0.00  0.00    +0.006 A 
ENDBRANCH   1   2
BRANCH   1   8
ATOM      8  C   LIG    1       26.050 -16.409   3.547  0.00  0.00    -0.015 A 
ATOM      9  C   LIG    1       24.859 -15.677   3.715  0.00  0.00    +0.006 A 
ATOM     10  C   LIG    1       24.874 -14.281   3.707  0.00  0.00    +0.000 A 
ATOM     11  C   LIG    1       26.066 -13.597   3.510  0.00  0.00    +0.000 A 
ATOM     12  C   LIG    1       27.252 -14.304   3.318  0.00  0.00    +0.000 A 
ATOM     13  C   LIG    1       27.243 -15.701   3.347  0.00  0.00    +0.006 A 
ENDBRANCH   1   8
BRANCH   1  14
ATOM     14  O   LIG    1       24.768 -18.355   4.231  0.00  0.00    -0.364 OA
BRANCH  14  19
ATOM     15  C   LIG    1       23.038 -21.571   6.689  0.00  0.00    +0.105 C 
ATOM     16  N   LIG    1       22.910 -21.074   5.314  0.00  0.00    -0.305 NA
ATOM     17  C   LIG    1       24.197 -21.245   4.621  0.00  0.00    +0.086 C 
ATOM     18  C   LIG    1       24.223 -20.579   3.247  0.00  0.00    +0.047 C 
ATOM     19  C   LIG    1       23.886 -19.092   3.367  0.00  0.00    +0.122 C 
ATOM     20  C   LIG    1       22.484 -19.005   3.970  0.00  0.00    +0.047 C 
ATOM     21  C   LIG    1       22.459 -19.671   5.347  0.00  0.00    +0.086 C 
ENDBRANCH  14  19
ENDBRANCH   1  14
TORSDOF 4
ENDMDL
MODEL 2
REMARK VINA RESULT:      -4.8      0.155      1.496
REMARK  Name = *****
REMARK                            x       y       z     vdW  Elec       q    Type
REMARK                         _______ _______ _______ _____ _____    ______ ____
ROOT
ATOM      1  C   LIG    1       26.051 -17.798   3.700  0.00  0.00    +0.179 C 
ENDROOT
BRANCH   1   2
ATOM      2  C   LIG    1       27.192 -18.348   4.559  0.00  0.00    -0.015 A 
ATOM      3  C   LIG    1       28.405 -17.652   4.714  0.00  0.00    +0.006 A 
ATOM      4  C   LIG    1       29.461 -18.205   5.444  0.00  0.00    +0.000 A 
ATOM      5  C   LIG    1       29.319 -19.452   6.044  0.00  0.00    +0.000 A 
ATOM      6  C   LIG    1       28.116 -20.147   5.923  0.00  0.00    +0.000 A 
ATOM      7  C   LIG    1       27.063 -19.601   5.182  0.00  0.00    +0.006 A 
ENDBRANCH   1   2
BRANCH   1   8
ATOM      8  C   LIG    1       26.033 -16.279   3.598  0.00  0.00    -0.015 A 
ATOM      9  C   LIG    1       27.229 -15.591   3.313  0.00  0.00    +0.006 A 
ATOM     10  C   LIG    1       27.223 -14.209   3.106  0.00  0.00    +0.000 A 
ATOM     11  C   LIG    1       26.036 -13.494   3.202  0.00  0.00    +0.000 A 
ATOM     12  C   LIG    1       24.847 -14.155   3.507  0.00  0.00    +0.000 A 
ATOM     13  C   LIG    1       24.847 -15.540   3.693  0.00  0.00    +0.006 A 
ENDBRANCH   1   8
BRANCH   1  14
ATOM     14  O   LIG    1       24.797 -18.278   4.210  0.00  0.00    -0.364 OA
BRANCH  14  19
ATOM     15  C   LIG    1       23.095 -21.572   6.584  0.00  0.00    +0.105 C 
ATOM     16  N   LIG    1       22.994 -21.064   5.210  0.00  0.00    -0.305 NA
ATOM     17  C   LIG    1       24.305 -21.188   4.555  0.00  0.00    +0.086 C 
ATOM     18  C   LIG    1       24.352 -20.507   3.189  0.00  0.00    +0.047 C 
ATOM     19  C   LIG    1       23.965 -19.033   3.313  0.00  0.00    +0.122 C 
ATOM     20  C   LIG    1       22.543 -18.996   3.873  0.00  0.00    +0.047 C 
ATOM     21  C   LIG    1       22.498 -19.677   5.243  0.00  0.00    +0.086 C 
ENDBRANCH  14  19
ENDBRANCH   1  14
TORSDOF 4
ENDMDL
MODEL 3
REMARK VINA RESULT:      -4.4      2.230      5.909
REMARK  Name = *****
REMARK                            x       y       z     vdW  Elec       q    Type
REMARK                         _______ _______ _______ _____ _____    ______ ____
ROOT
ATOM      1  C   LIG    1       26.201 -17.770   3.658  0.00  0.00    +0.179 C 
ENDROOT
BRANCH   1   2
ATOM      2  C   LIG    1       24.851 -18.485   3.757  0.00  0.00    -0.015 A 
ATOM      3  C   LIG    1       23.665 -17.792   4.062  0.00  0.00    +0.006 A 
ATOM      4  C   LIG    1       22.455 -18.474   4.219  0.00  0.00    +0.000 A 
ATOM      5  C   LIG    1       22.405 -19.854   4.056  0.00  0.00    +0.000 A 
ATOM      6  C   LIG    1       23.564 -20.558   3.730  0.00  0.00    +0.000 A 
ATOM      7  C   LIG    1       24.778 -19.878   3.586  0.00  0.00    +0.006 A 
ENDBRANCH   1   2
BRANCH   1   8
ATOM      8  C   LIG    1       27.294 -18.396   4.515  0.00  0.00    -0.015 A 
ATOM      9  C   LIG    1       28.500 -17.699   4.716  0.00  0.00    +0.006 A 
ATOM     10  C   LIG    1       29.475 -18.198   5.583  0.00  0.00    +0.000 A 
ATOM     11  C   LIG    1       29.272 -19.405   6.241  0.00  0.00    +0.000 A 
ATOM     12  C   LIG    1       28.094 -20.121   6.035  0.00  0.00    +0.000 A 
ATOM     13  C   LIG    1       27.109 -19.612   5.185  0.00  0.00    +0.006 A 
ENDBRANCH   1   8
BRANCH   1  14
ATOM     14  O   LIG    1       26.032 -16.386   4.000  0.00  0.00    -0.364 OA
BRANCH  14  19
ATOM     15  C   LIG    1       24.224 -12.438   4.728  0.00  0.00    +0.105 C 
ATOM     16  N   LIG    1       25.405 -12.977   4.042  0.00  0.00    -0.305 NA
ATOM     17  C   LIG    1       24.963 -13.829   2.926  0.00  0.00    +0.086 C 
ATOM     18  C   LIG    1       26.114 -14.591   2.273  0.00  0.00    +0.047 C 
ATOM     19  C   LIG    1       26.858 -15.431   3.312  0.00  0.00    +0.122 C 
ATOM     20  C   LIG    1       27.397 -14.458   4.360  0.00  0.00    +0.047 C 
ATOM     21  C   LIG    1       26.244 -13.696   5.016  0.00  0.00    +0.086 C 
ENDBRANCH  14  19
ENDBRANCH   1  14
TORSDOF 4
ENDMDL
MODEL 4
REMARK VINA RESULT:      -3.7      2.102      5.886
REMARK  Name = *****
REMARK                            x       y       z     vdW  Elec       q    Type
REMARK                         _______ _______ _______ _____ _____    ______ ____
ROOT
ATOM      1  C   LIG    1       26.061 -18.192   3.837  0.00  0.00    +0.179 C 
ENDROOT
BRANCH   1   2
ATOM      2  C   LIG    1       24.756 -18.984   3.962  0.00  0.00    -0.015 A 
ATOM      3  C   LIG    1       23.532 -18.354   4.251  0.00  0.00    +0.006 A 
ATOM      4  C   LIG    1       22.366 -19.103   4.432  0.00  0.00    +0.000 A 
ATOM      5  C   LIG    1       22.398 -20.488   4.312  0.00  0.00    +0.000 A 
ATOM      6  C   LIG    1       23.597 -21.130   4.002  0.00  0.00    +0.000 A 
ATOM      7  C   LIG    1       24.767 -20.383   3.833  0.00  0.00    +0.006 A 
ENDBRANCH   1   2
BRANCH   1   8
ATOM      8  C   LIG    1       27.208 -18.759   4.664  0.00  0.00    -0.015 A 
ATOM      9  C   LIG    1       28.417 -18.043   4.752  0.00  0.00    +0.006 A 
ATOM     10  C   LIG    1       29.445 -18.484   5.589  0.00  0.00    +0.000 A 
ATOM     11  C   LIG    1       29.292 -19.650   6.328  0.00  0.00    +0.000 A 
ATOM     12  C   LIG    1       28.111 -20.384   6.236  0.00  0.00    +0.000 A 
ATOM     13  C   LIG    1       27.074 -19.934   5.416  0.00  0.00    +0.006 A 
ENDBRANCH   1   8
BRANCH   1  14
ATOM     14  O   LIG    1       25.821 -16.821   4.191  0.00  0.00    -0.364 OA
BRANCH  14  19
ATOM     15  C   LIG    1       27.057 -12.929   5.834  0.00  0.00    +0.105 C 
ATOM     16  N   LIG    1       26.626 -13.468   4.538  0.00  0.00    -0.305 NA
ATOM     17  C   LIG    1       25.239 -13.945   4.655  0.00  0.00    +0.086 C 
ATOM     18  C   LIG    1       24.766 -14.701   3.416  0.00  0.00    +0.047 C 
ATOM     19  C   LIG    1       25.700 -15.874   3.117  0.00  0.00    +0.122 C 
ATOM     20  C   LIG    1       27.089 -15.281   2.876  0.00  0.00    +0.047 C 
ATOM     21  C   LIG    1       27.562 -14.526   4.119  0.00  0.00    +0.086 C 
ENDBRANCH  14  19
ENDBRANCH   1  14
TORSDOF 4
ENDMDL
