MODEL 1
REMARK VINA RESULT:      -8.4      0.000      0.000
REMARK  Name = *****
REMARK                            x       y       z     vdW  Elec       q    Type
REMARK                         _______ _______ _______ _____ _____    ______ ____
ROOT
ATOM      1  C   LIG    1       25.961 -20.800   8.811  0.00  0.00    +0.062 C 
ATOM      2  C   LIG    1       26.224 -20.530   7.324  0.00  0.00    +0.021 C 
ATOM      3  C   LIG    1       25.248 -20.657   6.376  0.00  0.00    +0.015 C 
ENDROOT
BRANCH   2   4
ATOM      4  N   LIG    1       27.561 -20.185   7.007  0.00  0.00    -0.273 N 
ATOM      5  C   LIG    1       27.811 -19.767   5.697  0.00  0.00    +0.333 C 
ATOM      6  O   LIG    1       28.897 -19.827   5.076  0.00  0.00    -0.279 OA
BRANCH   4   7
ATOM      7  C   LIG    1       28.658 -20.772   7.815  0.00  0.00    +0.153 C 
BRANCH   7   8
ATOM      8  C   LIG    1       29.778 -19.891   8.328  0.00  0.00    +0.028 A 
ATOM      9  C   LIG    1       31.049 -20.259   8.723  0.00  0.00    +0.124 A 
ATOM     10  N   LIG    1       31.921 -19.421   9.298  0.00  0.00    -0.218 NA
ATOM     11  C   LIG    1       31.556 -18.146   9.453  0.00  0.00    +0.128 A 
ATOM     12  C   LIG    1       32.574 -17.241  10.069  0.00  0.00    +0.088 C 
ATOM     13  N   LIG    1       30.393 -17.639   9.024  0.00  0.00    -0.240 NA
ATOM     14  C   LIG    1       29.529 -18.530   8.489  0.00  0.00    +0.121 A 
BRANCH   9  15
ATOM     15  N   LIG    1       31.619 -21.499   8.498  0.00  0.00    -0.343 N 
ATOM     16  H   LIG    1       30.957 -22.149   8.100  0.00  0.00    +0.144 HD
ATOM     17  H   LIG    1       32.402 -21.335   7.871  0.00  0.00    +0.144 HD
ENDBRANCH   9  15
ENDBRANCH   7   8
ENDBRANCH   4   7
ENDBRANCH   2   4
BRANCH   3  18
ATOM     18  S   LIG    1       23.659 -21.176   6.921  0.00  0.00    -0.060 S 
BRANCH  18  19
ATOM     19  S   LIG    1       23.706 -23.238   6.862  0.00  0.00    -0.086 S 
BRANCH  19  20
ATOM     20  C   LIG    1       25.198 -23.664   5.830  0.00  0.00    +0.113 C 
BRANCH  20  21
ATOM     21  C   LIG    1       25.260 -25.121   5.350  0.00  0.00    +0.129 C 
ATOM     22  O   LIG    1       26.442 -25.778   5.852  0.00  0.00    -0.376 OA
ATOM     23  C   LIG    1       26.057 -26.984   6.529  0.00  0.00    +0.160 C 
ATOM     24  C   LIG    1       24.645 -27.307   6.116  0.00  0.00    +0.030 C 
ATOM     25  C   LIG    1       24.088 -25.953   5.828  0.00  0.00    +0.035 C 
ENDBRANCH  20  21
ENDBRANCH  19  20
ENDBRANCH  18  19
ENDBRANCH   3  18
BRANCH   3  26
ATOM     26  C   LIG    1       25.408 -20.290   4.898  0.00  0.00    +0.072 C 
BRANCH  26  27
ATOM     27  C   LIG    1       24.138 -20.185   4.037  0.00  0.00    +0.161 C 
BRANCH  27  28
ATOM     28  O   LIG    1       23.876 -21.479   3.484  0.00  0.00    -0.395 OA
ATOM     29  H   LIG    1       22.989 -21.758   3.770  0.00  0.00    +0.209 HD
ENDBRANCH  27  28
ENDBRANCH  26  27
ENDBRANCH   3  26
TORSDOF 11
ENDMDL
MODEL 2
REMARK VINA RESULT:      -8.3      3.422      7.911
REMARK  Name = *****
REMARK                            x       y       z     vdW  Elec       q    Type
REMARK                         _______ _______ _______ _____ _____    ______ ____
ROOT
ATOM      1  C   LIG    1       27.292 -20.437   8.298  0.00  0.00    +0.062 C 
ATOM      2  C   LIG    1       26.502 -20.635   6.997  0.00  0.00    +0.021 C 
ATOM      3  C   LIG    1       26.917 -20.109   5.807  0.00  0.00    +0.015 C 
ENDROOT
BRANCH   2   4
ATOM      4  N   LIG    1       25.294 -21.361   7.136  0.00  0.00    -0.273 N 
ATOM      5  C   LIG    1       24.109 -20.620   7.131  0.00  0.00    +0.333 C 
ATOM      6  O   LIG    1       23.013 -20.941   7.645  0.00  0.00    -0.279 OA
BRANCH   4   7
ATOM      7  C   LIG    1       25.332 -22.686   7.802  0.00  0.00    +0.153 C 
BRANCH   7   8
ATOM      8  C   LIG    1       25.058 -23.945   7.006  0.00  0.00    +0.028 A 
ATOM      9  C   LIG    1       23.841 -24.457   6.600  0.00  0.00    +0.124 A 
ATOM     10  N   LIG    1       23.694 -25.655   6.021  0.00  0.00    -0.218 NA
ATOM     11  C   LIG    1       24.794 -26.373   5.779  0.00  0.00    +0.128 A 
ATOM     12  C   LIG    1       24.584 -27.688   5.101  0.00  0.00    +0.088 C 
ATOM     13  N   LIG    1       26.040 -25.950   6.033  0.00  0.00    -0.240 NA
ATOM     14  C   LIG    1       26.135 -24.754   6.656  0.00  0.00    +0.121 A 
BRANCH   9  15
ATOM     15  N   LIG    1       22.639 -23.774   6.650  0.00  0.00    -0.343 N 
ATOM     16  H   LIG    1       22.021 -24.051   5.901  0.00  0.00    +0.144 HD
ATOM     17  H   LIG    1       22.238 -23.982   7.560  0.00  0.00    +0.144 HD
ENDBRANCH   9  15
ENDBRANCH   7   8
ENDBRANCH   4   7
ENDBRANCH   2   4
BRANCH   3  18
ATOM     18  S   LIG    1       28.397 -19.158   5.817  0.00  0.00    -0.060 S 
BRANCH  18  19
ATOM     19  S   LIG    1       29.795 -20.335   6.774  0.00  0.00    -0.086 S 
BRANCH  19  20
ATOM     20  C   LIG    1       31.018 -19.140   7.515  0.00  0.00    +0.113 C 
BRANCH  20  21
ATOM     21  C   LIG    1       30.877 -18.923   9.028  0.00  0.00    +0.129 C 
ATOM     22  O   LIG    1       32.151 -18.595   9.621  0.00  0.00    -0.376 OA
ATOM     23  C   LIG    1       32.022 -17.373  10.364  0.00  0.00    +0.160 C 
ATOM     24  C   LIG    1       30.552 -17.121  10.576  0.00  0.00    +0.030 C 
ATOM     25  C   LIG    1       29.949 -17.778   9.379  0.00  0.00    +0.035 C 
ENDBRANCH  20  21
ENDBRANCH  19  20
ENDBRANCH  18  19
ENDBRANCH   3  18
BRANCH   3  26
ATOM     26  C   LIG    1       26.246 -20.364   4.454  0.00  0.00    +0.072 C 
BRANCH  26  27
ATOM     27  C   LIG    1       25.270 -19.304   3.919  0.00  0.00    +0.161 C 
BRANCH  27  28
ATOM     28  O   LIG    1       26.036 -18.315   3.223  0.00  0.00    -0.395 OA
ATOM     29  H   LIG    1       26.618 -18.770   2.591  0.00  0.00    +0.209 HD
ENDBRANCH  27  28
ENDBRANCH  26  27
ENDBRANCH   3  26
TORSDOF 11
ENDMDL
MODEL 3
REMARK VINA RESULT:      -8.3      3.572      8.486
REMARK  Name = *****
REMARK                            x       y       z     vdW  Elec       q    Type
REMARK                         _______ _______ _______ _____ _____    ______ ____
ROOT
ATOM      1  C   LIG    1       25.635 -20.040   4.564  0.00  0.00    +0.062 C 
ATOM      2  C   LIG    1       26.086 -20.582   5.928  0.00  0.00    +0.021 C 
ATOM      3  C   LIG    1       27.327 -20.326   6.439  0.00  0.00    +0.015 C 
ENDROOT
BRANCH   2   4
ATOM      4  N   LIG    1       25.139 -21.402   6.588  0.00  0.00    -0.273 N 
ATOM      5  C   LIG    1       23.970 -20.779   7.037  0.00  0.00    +0.333 C 
ATOM      6  O   LIG    1       23.226 -21.150   7.974  0.00  0.00    -0.279 OA
BRANCH   4   7
ATOM      7  C   LIG    1       25.607 -22.648   7.242  0.00  0.00    +0.153 C 
BRANCH   7   8
ATOM      8  C   LIG    1       25.207 -23.997   6.682  0.00  0.00    +0.028 A 
ATOM      9  C   LIG    1       23.939 -24.520   6.524  0.00  0.00    +0.124 A 
ATOM     10  N   LIG    1       23.697 -25.783   6.150  0.00  0.00    -0.218 NA
ATOM     11  C   LIG    1       24.742 -26.564   5.867  0.00  0.00    +0.128 A 
ATOM     12  C   LIG    1       24.422 -27.954   5.423  0.00  0.00    +0.088 C 
ATOM     13  N   LIG    1       26.017 -26.152   5.885  0.00  0.00    -0.240 NA
ATOM     14  C   LIG    1       26.214 -24.884   6.309  0.00  0.00    +0.121 A 
BRANCH   9  15
ATOM     15  N   LIG    1       22.765 -23.797   6.637  0.00  0.00    -0.343 N 
ATOM     16  H   LIG    1       21.979 -24.393   6.853  0.00  0.00    +0.144 HD
ATOM     17  H   LIG    1       22.929 -23.115   7.372  0.00  0.00    +0.144 HD
ENDBRANCH   9  15
ENDBRANCH   7   8
ENDBRANCH   4   7
ENDBRANCH   2   4
BRANCH   3  18
ATOM     18  S   LIG    1       28.420 -19.361   5.456  0.00  0.00    -0.060 S 
BRANCH  18  19
ATOM     19  S   LIG    1       30.189 -19.291   6.515  0.00  0.00    -0.086 S 
BRANCH  19  20
ATOM     20  C   LIG    1       29.929 -17.986   7.819  0.00  0.00    +0.113 C 
BRANCH  20  21
ATOM     21  C   LIG    1       30.977 -17.972   8.942  0.00  0.00    +0.129 C 
ATOM     22  O   LIG    1       32.087 -17.116   8.597  0.00  0.00    -0.376 OA
ATOM     23  C   LIG    1       32.289 -16.163   9.652  0.00  0.00    +0.160 C 
ATOM     24  C   LIG    1       31.551 -16.664  10.866  0.00  0.00    +0.030 C 
ATOM     25  C   LIG    1       30.435 -17.441  10.253  0.00  0.00    +0.035 C 
ENDBRANCH  20  21
ENDBRANCH  19  20
ENDBRANCH  18  19
ENDBRANCH   3  18
BRANCH   3  26
ATOM     26  C   LIG    1       27.800 -20.732   7.838  0.00  0.00    +0.072 C 
BRANCH  26  27
ATOM     27  C   LIG    1       28.840 -21.859   7.952  0.00  0.00    +0.161 C 
BRANCH  27  28
ATOM     28  O   LIG    1       29.764 -21.499   8.984  0.00  0.00    -0.395 OA
ATOM     29  H   LIG    1       29.260 -21.346   9.802  0.00  0.00    +0.209 HD
ENDBRANCH  27  28
ENDBRANCH  26  27
ENDBRANCH   3  26
TORSDOF 11
ENDMDL
MODEL 4
REMARK VINA RESULT:      -8.2      3.335      8.411
REMARK  Name = *****
REMARK                            x       y       z     vdW  Elec       q    Type
REMARK                         _______ _______ _______ _____ _____    ______ ____
ROOT
ATOM      1  C   LIG    1       26.075 -20.681   8.664  0.00  0.00    +0.062 C 
ATOM      2  C   LIG    1       26.698 -20.508   7.272  0.00  0.00    +0.021 C 
ATOM      3  C   LIG    1       27.957 -20.008   7.095  0.00  0.00    +0.015 C 
ENDROOT
BRANCH   2   4
ATOM      4  N   LIG    1       25.854 -20.861   6.192  0.00  0.00    -0.273 N 
ATOM      5  C   LIG    1       25.976 -20.105   5.022  0.00  0.00    +0.333 C 
ATOM      6  O   LIG    1       25.106 -19.929   4.139  0.00  0.00    -0.279 OA
BRANCH   4   7
ATOM      7  C   LIG    1       24.581 -21.566   6.483  0.00  0.00    +0.153 C 
BRANCH   7   8
ATOM      8  C   LIG    1       24.499 -23.072   6.346  0.00  0.00    +0.028 A 
ATOM      9  C   LIG    1       23.401 -23.892   6.513  0.00  0.00    +0.124 A 
ATOM     10  N   LIG    1       23.463 -25.230   6.509  0.00  0.00    -0.218 NA
ATOM     11  C   LIG    1       24.648 -25.801   6.283  0.00  0.00    +0.128 A 
ATOM     12  C   LIG    1       24.663 -27.295   6.256  0.00  0.00    +0.088 C 
ATOM     13  N   LIG    1       25.771 -25.123   6.010  0.00  0.00    -0.240 NA
ATOM     14  C   LIG    1       25.668 -23.776   6.067  0.00  0.00    +0.121 A 
BRANCH   9  15
ATOM     15  N   LIG    1       22.092 -23.452   6.610  0.00  0.00    -0.343 N 
ATOM     16  H   LIG    1       21.537 -23.755   5.823  0.00  0.00    +0.144 HD
ATOM     17  H   LIG    1       21.737 -23.828   7.484  0.00  0.00    +0.144 HD
ENDBRANCH   9  15
ENDBRANCH   7   8
ENDBRANCH   4   7
ENDBRANCH   2   4
BRANCH   3  18
ATOM     18  S   LIG    1       28.848 -19.536   8.536  0.00  0.00    -0.060 S 
BRANCH  18  19
ATOM     19  S   LIG    1       30.838 -19.795   8.059  0.00  0.00    -0.086 S 
BRANCH  19  20
ATOM     20  C   LIG    1       31.670 -18.201   8.544  0.00  0.00    +0.113 C 
BRANCH  20  21
ATOM     21  C   LIG    1       31.778 -17.960  10.057  0.00  0.00    +0.129 C 
ATOM     22  O   LIG    1       32.986 -17.238  10.377  0.00  0.00    -0.376 OA
ATOM     23  C   LIG    1       32.648 -16.074  11.147  0.00  0.00    +0.160 C 
ATOM     24  C   LIG    1       31.244 -16.261  11.661  0.00  0.00    +0.030 C 
ATOM     25  C   LIG    1       30.639 -17.126  10.607  0.00  0.00    +0.035 C 
ENDBRANCH  20  21
ENDBRANCH  19  20
ENDBRANCH  18  19
ENDBRANCH   3  18
BRANCH   3  26
ATOM     26  C   LIG    1       28.684 -19.919   5.750  0.00  0.00    +0.072 C 
BRANCH  26  27
ATOM     27  C   LIG    1       29.357 -18.588   5.377  0.00  0.00    +0.161 C 
BRANCH  27  28
ATOM     28  O   LIG    1       28.477 -17.886   4.492  0.00  0.00    -0.395 OA
ATOM     29  H   LIG    1       28.949 -17.106   4.152  0.00  0.00    +0.209 HD
ENDBRANCH  27  28
ENDBRANCH  26  27
ENDBRANCH   3  26
TORSDOF 11
ENDMDL
MODEL 5
REMARK VINA RESULT:      -7.7      1.427      1.609
REMARK  Name = *****
REMARK                            x       y       z     vdW  Elec       q    Type
REMARK                         _______ _______ _______ _____ _____    ______ ____
ROOT
ATOM      1  C   LIG    1       26.277 -20.633   8.989  0.00  0.00    +0.062 C 
ATOM      2  C   LIG    1       26.836 -20.525   7.564  0.00  0.00    +0.021 C 
ATOM      3  C   LIG    1       26.026 -20.497   6.464  0.00  0.00    +0.015 C 
ENDROOT
BRANCH   2   4
ATOM      4  N   LIG    1       28.249 -20.502   7.476  0.00  0.00    -0.273 N 
ATOM      5  C   LIG    1       28.938 -21.539   8.112  0.00  0.00    +0.333 C 
ATOM      6  O   LIG    1       30.116 -21.517   8.537  0.00  0.00    -0.279 OA
BRANCH   4   7
ATOM      7  C   LIG    1       28.928 -19.204   7.238  0.00  0.00    +0.153 C 
BRANCH   7   8
ATOM      8  C   LIG    1       29.860 -18.632   8.285  0.00  0.00    +0.028 A 
ATOM      9  C   LIG    1       31.233 -18.748   8.368  0.00  0.00    +0.124 A 
ATOM     10  N   LIG    1       31.954 -18.323   9.414  0.00  0.00    -0.218 NA
ATOM     11  C   LIG    1       31.311 -17.709  10.411  0.00  0.00    +0.128 A 
ATOM     12  C   LIG    1       32.160 -17.223  11.540  0.00  0.00    +0.088 C 
ATOM     13  N   LIG    1       29.997 -17.445  10.408  0.00  0.00    -0.240 NA
ATOM     14  C   LIG    1       29.306 -17.930   9.353  0.00  0.00    +0.121 A 
BRANCH   9  15
ATOM     15  N   LIG    1       32.050 -19.226   7.359  0.00  0.00    -0.343 N 
ATOM     16  H   LIG    1       31.739 -20.125   7.021  0.00  0.00    +0.144 HD
ATOM     17  H   LIG    1       32.025 -18.524   6.626  0.00  0.00    +0.144 HD
ENDBRANCH   9  15
ENDBRANCH   7   8
ENDBRANCH   4   7
ENDBRANCH   2   4
BRANCH   3  18
ATOM     18  S   LIG    1       24.293 -20.620   6.737  0.00  0.00    -0.060 S 
BRANCH  18  19
ATOM     19  S   LIG    1       23.895 -22.642   6.828  0.00  0.00    -0.086 S 
BRANCH  19  20
ATOM     20  C   LIG    1       25.453 -23.475   6.236  0.00  0.00    +0.113 C 
BRANCH  20  21
ATOM     21  C   LIG    1       25.242 -24.837   5.557  0.00  0.00    +0.129 C 
ATOM     22  O   LIG    1       26.375 -25.703   5.781  0.00  0.00    -0.376 OA
ATOM     23  C   LIG    1       25.914 -26.944   6.337  0.00  0.00    +0.160 C 
ATOM     24  C   LIG    1       24.428 -27.024   6.101  0.00  0.00    +0.030 C 
ATOM     25  C   LIG    1       24.037 -25.584   6.088  0.00  0.00    +0.035 C 
ENDBRANCH  20  21
ENDBRANCH  19  20
ENDBRANCH  18  19
ENDBRANCH   3  18
BRANCH   3  26
ATOM     26  C   LIG    1       26.504 -20.272   5.027  0.00  0.00    +0.072 C 
BRANCH  26  27
ATOM     27  C   LIG    1       25.462 -19.870   3.971  0.00  0.00    +0.161 C 
BRANCH  27  28
ATOM     28  O   LIG    1       25.849 -18.600   3.434  0.00  0.00    -0.395 OA
ATOM     29  H   LIG    1       25.096 -17.990   3.525  0.00  0.00    +0.209 HD
ENDBRANCH  27  28
ENDBRANCH  26  27
ENDBRANCH   3  26
TORSDOF 11
ENDMDL
MODEL 6
REMARK VINA RESULT:      -7.6      1.686      2.206
REMARK  Name = *****
REMARK                            x       y       z     vdW  Elec       q    Type
REMARK                         _______ _______ _______ _____ _____    ______ ____
ROOT
ATOM      1  C   LIG    1       25.726 -21.244   8.153  0.00  0.00    +0.062 C 
ATOM      2  C   LIG    1       25.360 -21.000   6.682  0.00  0.00    +0.021 C 
ATOM      3  C   LIG    1       24.237 -21.533   6.113  0.00  0.00    +0.015 C 
ENDROOT
BRANCH   2   4
ATOM      4  N   LIG    1       26.294 -20.224   5.955  0.00  0.00    -0.273 N 
ATOM      5  C   LIG    1       25.788 -19.441   4.913  0.00  0.00    +0.333 C 
ATOM      6  O   LIG    1       26.405 -19.035   3.901  0.00  0.00    -0.279 OA
BRANCH   4   7
ATOM      7  C   LIG    1       27.713 -20.655   5.930  0.00  0.00    +0.153 C 
BRANCH   7   8
ATOM      8  C   LIG    1       28.769 -19.838   6.645  0.00  0.00    +0.028 A 
ATOM      9  C   LIG    1       29.501 -18.771   6.164  0.00  0.00    +0.124 A 
ATOM     10  N   LIG    1       30.515 -18.204   6.831  0.00  0.00    -0.218 NA
ATOM     11  C   LIG    1       30.800 -18.668   8.050  0.00  0.00    +0.128 A 
ATOM     12  C   LIG    1       31.917 -17.984   8.768  0.00  0.00    +0.088 C 
ATOM     13  N   LIG    1       30.105 -19.631   8.670  0.00  0.00    -0.240 NA
ATOM     14  C   LIG    1       29.119 -20.201   7.943  0.00  0.00    +0.121 A 
BRANCH   9  15
ATOM     15  N   LIG    1       29.232 -18.092   4.990  0.00  0.00    -0.343 N 
ATOM     16  H   LIG    1       29.457 -17.110   5.066  0.00  0.00    +0.144 HD
ATOM     17  H   LIG    1       29.789 -18.547   4.272  0.00  0.00    +0.144 HD
ENDBRANCH   9  15
ENDBRANCH   7   8
ENDBRANCH   4   7
ENDBRANCH   2   4
BRANCH   3  18
ATOM     18  S   LIG    1       23.222 -22.546   7.130  0.00  0.00    -0.060 S 
BRANCH  18  19
ATOM     19  S   LIG    1       23.673 -24.487   6.593  0.00  0.00    -0.086 S 
BRANCH  19  20
ATOM     20  C   LIG    1       25.532 -24.595   6.666  0.00  0.00    +0.113 C 
BRANCH  20  21
ATOM     21  C   LIG    1       26.121 -25.943   6.224  0.00  0.00    +0.129 C 
ATOM     22  O   LIG    1       25.906 -26.952   7.233  0.00  0.00    -0.376 OA
ATOM     23  C   LIG    1       25.258 -28.085   6.634  0.00  0.00    +0.160 C 
ATOM     24  C   LIG    1       25.412 -27.960   5.140  0.00  0.00    +0.030 C 
ATOM     25  C   LIG    1       25.487 -26.481   4.958  0.00  0.00    +0.035 C 
ENDBRANCH  20  21
ENDBRANCH  19  20
ENDBRANCH  18  19
ENDBRANCH   3  18
BRANCH   3  26
ATOM     26  C   LIG    1       23.749 -21.236   4.693  0.00  0.00    +0.072 C 
BRANCH  26  27
ATOM     27  C   LIG    1       22.382 -20.553   4.525  0.00  0.00    +0.161 C 
BRANCH  27  28
ATOM     28  O   LIG    1       22.363 -19.396   5.369  0.00  0.00    -0.395 OA
ATOM     29  H   LIG    1       22.199 -19.689   6.282  0.00  0.00    +0.209 HD
ENDBRANCH  27  28
ENDBRANCH  26  27
ENDBRANCH   3  26
TORSDOF 11
ENDMDL
MODEL 7
REMARK VINA RESULT:      -7.2      3.534      8.194
REMARK  Name = *****
REMARK                            x       y       z     vdW  Elec       q    Type
REMARK                         _______ _______ _______ _____ _____    ______ ____
ROOT
ATOM      1  C   LIG    1       26.109 -22.855   8.335  0.00  0.00    +0.062 C 
ATOM      2  C   LIG    1       25.634 -22.340   6.969  0.00  0.00    +0.021 C 
ATOM      3  C   LIG    1       26.051 -21.145   6.456  0.00  0.00    +0.015 C 
ENDROOT
BRANCH   2   4
ATOM      4  N   LIG    1       24.699 -23.175   6.308  0.00  0.00    -0.273 N 
ATOM      5  C   LIG    1       23.419 -23.253   6.864  0.00  0.00    +0.333 C 
ATOM      6  O   LIG    1       22.598 -24.191   6.747  0.00  0.00    -0.279 OA
BRANCH   4   7
ATOM      7  C   LIG    1       25.207 -24.288   5.469  0.00  0.00    +0.153 C 
BRANCH   7   8
ATOM      8  C   LIG    1       25.245 -25.698   6.020  0.00  0.00    +0.028 A 
ATOM      9  C   LIG    1       24.455 -26.777   5.676  0.00  0.00    +0.124 A 
ATOM     10  N   LIG    1       24.471 -27.949   6.324  0.00  0.00    -0.218 NA
ATOM     11  C   LIG    1       25.338 -28.096   7.329  0.00  0.00    +0.128 A 
ATOM     12  C   LIG    1       25.344 -29.431   8.001  0.00  0.00    +0.088 C 
ATOM     13  N   LIG    1       26.227 -27.164   7.699  0.00  0.00    -0.240 NA
ATOM     14  C   LIG    1       26.143 -25.985   7.045  0.00  0.00    +0.121 A 
BRANCH   9  15
ATOM     15  N   LIG    1       23.618 -26.826   4.575  0.00  0.00    -0.343 N 
ATOM     16  H   LIG    1       22.961 -27.589   4.639  0.00  0.00    +0.144 HD
ATOM     17  H   LIG    1       23.144 -25.928   4.546  0.00  0.00    +0.144 HD
ENDBRANCH   9  15
ENDBRANCH   7   8
ENDBRANCH   4   7
ENDBRANCH   2   4
BRANCH   3  18
ATOM     18  S   LIG    1       27.148 -20.185   7.439  0.00  0.00    -0.060 S 
BRANCH  18  19
ATOM     19  S   LIG    1       28.985 -20.331   6.511  0.00  0.00    -0.086 S 
BRANCH  19  20
ATOM     20  C   LIG    1       30.239 -20.040   7.857  0.00  0.00    +0.113 C 
BRANCH  20  21
ATOM     21  C   LIG    1       30.392 -18.576   8.295  0.00  0.00    +0.129 C 
ATOM     22  O   LIG    1       29.686 -18.333   9.530  0.00  0.00    -0.376 OA
ATOM     23  C   LIG    1       30.591 -17.750  10.481  0.00  0.00    +0.160 C 
ATOM     24  C   LIG    1       31.791 -17.250   9.719  0.00  0.00    +0.030 C 
ATOM     25  C   LIG    1       31.831 -18.182   8.555  0.00  0.00    +0.035 C 
ENDBRANCH  20  21
ENDBRANCH  19  20
ENDBRANCH  18  19
ENDBRANCH   3  18
BRANCH   3  26
ATOM     26  C   LIG    1       25.713 -20.627   5.055  0.00  0.00    +0.072 C 
BRANCH  26  27
ATOM     27  C   LIG    1       24.280 -20.136   4.790  0.00  0.00    +0.161 C 
BRANCH  27  28
ATOM     28  O   LIG    1       24.260 -19.522   3.497  0.00  0.00    -0.395 OA
ATOM     29  H   LIG    1       24.958 -19.930   2.957  0.00  0.00    +0.209 HD
ENDBRANCH  27  28
ENDBRANCH  26  27
ENDBRANCH   3  26
TORSDOF 11
ENDMDL
MODEL 8
REMARK VINA RESULT:      -6.9      3.375      8.235
REMARK  Name = *****
REMARK                            x       y       z     vdW  Elec       q    Type
REMARK                         _______ _______ _______ _____ _____    ______ ____
ROOT
ATOM      1  C   LIG    1       26.154 -21.601   8.769  0.00  0.00    +0.062 C 
ATOM      2  C   LIG    1       26.628 -21.263   7.349  0.00  0.00    +0.021 C 
ATOM      3  C   LIG    1       27.700 -20.449   7.113  0.00  0.00    +0.015 C 
ENDROOT
BRANCH   2   4
ATOM      4  N   LIG    1       25.845 -21.820   6.309  0.00  0.00    -0.273 N 
ATOM      5  C   LIG    1       25.579 -23.190   6.384  0.00  0.00    +0.333 C 
ATOM      6  O   LIG    1       25.309 -23.963   5.436  0.00  0.00    -0.279 OA
BRANCH   4   7
ATOM      7  C   LIG    1       25.818 -21.136   4.993  0.00  0.00    +0.153 C 
BRANCH   7   8
ATOM      8  C   LIG    1       24.636 -20.268   4.612  0.00  0.00    +0.028 A 
ATOM      9  C   LIG    1       24.633 -19.087   3.897  0.00  0.00    +0.124 A 
ATOM     10  N   LIG    1       23.548 -18.319   3.734  0.00  0.00    -0.218 NA
ATOM     11  C   LIG    1       22.394 -18.747   4.253  0.00  0.00    +0.128 A 
ATOM     12  C   LIG    1       21.204 -17.874   4.018  0.00  0.00    +0.088 C 
ATOM     13  N   LIG    1       22.241 -19.919   4.883  0.00  0.00    -0.240 NA
ATOM     14  C   LIG    1       23.371 -20.639   5.059  0.00  0.00    +0.121 A 
BRANCH   9  15
ATOM     15  N   LIG    1       25.709 -18.591   3.183  0.00  0.00    -0.343 N 
ATOM     16  H   LIG    1       26.290 -17.992   3.752  0.00  0.00    +0.144 HD
ATOM     17  H   LIG    1       26.222 -19.403   2.854  0.00  0.00    +0.144 HD
ENDBRANCH   9  15
ENDBRANCH   7   8
ENDBRANCH   4   7
ENDBRANCH   2   4
BRANCH   3  18
ATOM     18  S   LIG    1       28.517 -19.767   8.513  0.00  0.00    -0.060 S 
BRANCH  18  19
ATOM     19  S   LIG    1       30.527 -20.102   8.190  0.00  0.00    -0.086 S 
BRANCH  19  20
ATOM     20  C   LIG    1       31.366 -18.492   8.609  0.00  0.00    +0.113 C 
BRANCH  20  21
ATOM     21  C   LIG    1       31.455 -18.179  10.110  0.00  0.00    +0.129 C 
ATOM     22  O   LIG    1       32.756 -17.654  10.449  0.00  0.00    -0.376 OA
ATOM     23  C   LIG    1       32.593 -16.405  11.137  0.00  0.00    +0.160 C 
ATOM     24  C   LIG    1       31.160 -16.319  11.592  0.00  0.00    +0.030 C 
ATOM     25  C   LIG    1       30.456 -17.133  10.558  0.00  0.00    +0.035 C 
ENDBRANCH  20  21
ENDBRANCH  19  20
ENDBRANCH  18  19
ENDBRANCH   3  18
BRANCH   3  26
ATOM     26  C   LIG    1       28.299 -20.166   5.733  0.00  0.00    +0.072 C 
BRANCH  26  27
ATOM     27  C   LIG    1       28.456 -18.700   5.299  0.00  0.00    +0.161 C 
BRANCH  27  28
ATOM     28  O   LIG    1       29.852 -18.382   5.324  0.00  0.00    -0.395 OA
ATOM     29  H   LIG    1       30.207 -18.506   4.427  0.00  0.00    +0.209 HD
ENDBRANCH  27  28
ENDBRANCH  26  27
ENDBRANCH   3  26
TORSDOF 11
ENDMDL
MODEL 9
REMARK VINA RESULT:      -6.9      3.985      8.101
REMARK  Name = *****
REMARK                            x       y       z     vdW  Elec       q    Type
REMARK                         _______ _______ _______ _____ _____    ______ ____
ROOT
ATOM      1  C   LIG    1       29.265 -21.702   7.957  0.00  0.00    +0.062 C 
ATOM      2  C   LIG    1       28.431 -20.599   7.291  0.00  0.00    +0.021 C 
ATOM      3  C   LIG    1       29.000 -19.611   6.537  0.00  0.00    +0.015 C 
ENDROOT
BRANCH   2   4
ATOM      4  N   LIG    1       27.041 -20.659   7.554  0.00  0.00    -0.273 N 
ATOM      5  C   LIG    1       26.638 -20.419   8.870  0.00  0.00    +0.333 C 
ATOM      6  O   LIG    1       25.589 -20.820   9.426  0.00  0.00    -0.279 OA
BRANCH   4   7
ATOM      7  C   LIG    1       26.180 -21.466   6.655  0.00  0.00    +0.153 C 
BRANCH   7   8
ATOM      8  C   LIG    1       25.039 -20.810   5.905  0.00  0.00    +0.028 A 
ATOM      9  C   LIG    1       25.069 -20.181   4.676  0.00  0.00    +0.124 A 
ATOM     10  N   LIG    1       24.033 -19.506   4.162  0.00  0.00    -0.218 NA
ATOM     11  C   LIG    1       22.892 -19.483   4.857  0.00  0.00    +0.128 A 
ATOM     12  C   LIG    1       21.755 -18.746   4.228  0.00  0.00    +0.088 C 
ATOM     13  N   LIG    1       22.702 -20.134   6.012  0.00  0.00    -0.240 NA
ATOM     14  C   LIG    1       23.787 -20.766   6.512  0.00  0.00    +0.121 A 
BRANCH   9  15
ATOM     15  N   LIG    1       26.122 -20.239   3.782  0.00  0.00    -0.343 N 
ATOM     16  H   LIG    1       26.908 -20.745   4.163  0.00  0.00    +0.144 HD
ATOM     17  H   LIG    1       25.756 -20.692   2.950  0.00  0.00    +0.144 HD
ENDBRANCH   9  15
ENDBRANCH   7   8
ENDBRANCH   4   7
ENDBRANCH   2   4
BRANCH   3  18
ATOM     18  S   LIG    1       30.751 -19.628   6.375  0.00  0.00    -0.060 S 
BRANCH  18  19
ATOM     19  S   LIG    1       31.456 -18.490   7.944  0.00  0.00    -0.086 S 
BRANCH  19  20
ATOM     20  C   LIG    1       29.952 -18.067   8.958  0.00  0.00    +0.113 C 
BRANCH  20  21
ATOM     21  C   LIG    1       30.182 -17.017  10.055  0.00  0.00    +0.129 C 
ATOM     22  O   LIG    1       30.160 -17.626  11.363  0.00  0.00    -0.376 OA
ATOM     23  C   LIG    1       31.365 -17.280  12.063  0.00  0.00    +0.160 C 
ATOM     24  C   LIG    1       31.989 -16.112  11.343  0.00  0.00    +0.030 C 
ATOM     25  C   LIG    1       31.526 -16.327   9.942  0.00  0.00    +0.035 C 
ENDBRANCH  20  21
ENDBRANCH  19  20
ENDBRANCH  18  19
ENDBRANCH   3  18
BRANCH   3  26
ATOM     26  C   LIG    1       28.223 -18.554   5.748  0.00  0.00    +0.072 C 
BRANCH  26  27
ATOM     27  C   LIG    1       29.009 -17.647   4.785  0.00  0.00    +0.161 C 
BRANCH  27  28
ATOM     28  O   LIG    1       28.076 -16.754   4.167  0.00  0.00    -0.395 OA
ATOM     29  H   LIG    1       27.178 -17.045   4.399  0.00  0.00    +0.209 HD
ENDBRANCH  27  28
ENDBRANCH  26  27
ENDBRANCH   3  26
TORSDOF 11
ENDMDL
