MODEL 1
REMARK VINA RESULT:      -3.7      0.000      0.000
REMARK  Name = *****
REMARK                            x       y       z     vdW  Elec       q    Type
REMARK                         _______ _______ _______ _____ _____    ______ ____
ROOT
ATOM      1  O   LIG    1       26.872 -16.329   3.917  0.00  0.00    -0.459 OA
ENDROOT
BRANCH   1   6
ATOM      2  C   LIG    1       24.077 -13.112   1.922  0.00  0.00    +0.192 C 
ATOM      3  N   LIG    1       24.916 -12.909   3.186  0.00  0.00    +0.243 N 
ATOM      4  C   LIG    1       26.423 -13.161   3.016  0.00  0.00    +0.070 C 
ATOM      5  C   LIG    1       26.643 -14.511   2.325  0.00  0.00    +0.099 C 
ATOM      6  C   LIG    1       25.938 -15.694   3.015  0.00  0.00    +0.187 C 
ATOM      7  C   LIG    1       24.664 -15.337   3.807  0.00  0.00    +0.099 C 
ATOM      8  C   LIG    1       26.943 -13.190   4.464  0.00  0.00    +0.060 C 
ATOM      9  C   LIG    1       25.760 -13.642   5.320  0.00  0.00    +0.060 C 
ATOM     10  C   LIG    1       24.615 -13.893   4.330  0.00  0.00    +0.070 C 
ATOM     11  C   LIG    1       24.647 -11.448   3.605  0.00  0.00    +0.192 C 
ENDBRANCH   1   6
BRANCH   1  12
ATOM     12  C   LIG    1       26.825 -17.703   3.927  0.00  0.00    +0.341 C 
ATOM     13  O   LIG    1       27.662 -18.412   4.483  0.00  0.00    -0.247 OA
BRANCH  12  14
ATOM     14  C   LIG    1       25.589 -18.221   3.170  0.00  0.00    +0.253 C 
BRANCH  14  15
ATOM     15  C   LIG    1       24.659 -19.007   4.080  0.00  0.00    -0.008 A 
ATOM     16  C   LIG    1       25.126 -20.101   4.832  0.00  0.00    +0.007 A 
ATOM     17  C   LIG    1       24.262 -20.824   5.656  0.00  0.00    +0.000 A 
ATOM     18  C   LIG    1       22.920 -20.468   5.743  0.00  0.00    +0.000 A 
ATOM     19  C   LIG    1       22.440 -19.385   5.008  0.00  0.00    +0.000 A 
ATOM     20  C   LIG    1       23.302 -18.660   4.181  0.00  0.00    +0.007 A 
ENDBRANCH  14  15
BRANCH  14  21
ATOM     21  O   LIG    1       25.976 -19.019   2.055  0.00  0.00    -0.376 OA
ATOM     22  H   LIG    1       26.080 -19.936   2.363  0.00  0.00    +0.211 HD
ENDBRANCH  14  21
ENDBRANCH  12  14
ENDBRANCH   1  12
TORSDOF 5
ENDMDL
MODEL 2
REMARK VINA RESULT:      -3.5      1.768      2.725
REMARK  Name = *****
REMARK                            x       y       z     vdW  Elec       q    Type
REMARK                         _______ _______ _______ _____ _____    ______ ____
ROOT
ATOM      1  O   LIG    1       27.132 -16.141   3.791  0.00  0.00    -0.459 OA
ENDROOT
BRANCH   1   6
ATOM      2  C   LIG    1       24.086 -12.946   2.160  0.00  0.00    +0.192 C 
ATOM      3  N   LIG    1       24.827 -12.877   3.498  0.00  0.00    +0.243 N 
ATOM      4  C   LIG    1       26.360 -12.932   3.399  0.00  0.00    +0.070 C 
ATOM      5  C   LIG    1       26.775 -14.109   2.511  0.00  0.00    +0.099 C 
ATOM      6  C   LIG    1       26.179 -15.464   2.941  0.00  0.00    +0.187 C 
ATOM      7  C   LIG    1       24.832 -15.388   3.687  0.00  0.00    +0.099 C 
ATOM      8  C   LIG    1       26.802 -13.155   4.855  0.00  0.00    +0.060 C 
ATOM      9  C   LIG    1       25.636 -13.873   5.536  0.00  0.00    +0.060 C 
ATOM     10  C   LIG    1       24.584 -14.071   4.438  0.00  0.00    +0.070 C 
ATOM     11  C   LIG    1       24.365 -11.549   4.134  0.00  0.00    +0.192 C 
ENDBRANCH   1   6
BRANCH   1  12
ATOM     12  C   LIG    1       27.031 -17.512   3.797  0.00  0.00    +0.341 C 
ATOM     13  O   LIG    1       26.076 -18.129   3.326  0.00  0.00    -0.247 OA
BRANCH  12  14
ATOM     14  C   LIG    1       28.266 -18.157   4.450  0.00  0.00    +0.253 C 
BRANCH  14  15
ATOM     15  C   LIG    1       27.884 -19.315   5.357  0.00  0.00    -0.008 A 
ATOM     16  C   LIG    1       26.576 -19.833   5.369  0.00  0.00    +0.007 A 
ATOM     17  C   LIG    1       26.231 -20.889   6.215  0.00  0.00    +0.000 A 
ATOM     18  C   LIG    1       27.185 -21.444   7.062  0.00  0.00    +0.000 A 
ATOM     19  C   LIG    1       28.486 -20.945   7.062  0.00  0.00    +0.000 A 
ATOM     20  C   LIG    1       28.835 -19.888   6.218  0.00  0.00    +0.007 A 
ENDBRANCH  14  15
BRANCH  14  21
ATOM     21  O   LIG    1       29.016 -17.188   5.178  0.00  0.00    -0.376 OA
ATOM     22  H   LIG    1       29.891 -17.567   5.369  0.00  0.00    +0.211 HD
ENDBRANCH  14  21
ENDBRANCH  12  14
ENDBRANCH   1  12
TORSDOF 5
ENDMDL
MODEL 3
REMARK VINA RESULT:      -3.4      0.888      1.928
REMARK  Name = *****
REMARK                            x       y       z     vdW  Elec       q    Type
REMARK                         _______ _______ _______ _____ _____    ______ ____
ROOT
ATOM      1  O   LIG    1       25.937 -16.259   2.866  0.00  0.00    -0.459 OA
ENDROOT
BRANCH   1   6
ATOM      2  C   LIG    1       25.801 -12.131   5.122  0.00  0.00    +0.192 C 
ATOM      3  N   LIG    1       24.811 -12.601   4.053  0.00  0.00    +0.243 N 
ATOM      4  C   LIG    1       24.098 -13.928   4.361  0.00  0.00    +0.070 C 
ATOM      5  C   LIG    1       25.132 -14.983   4.769  0.00  0.00    +0.099 C 
ATOM      6  C   LIG    1       26.276 -15.169   3.753  0.00  0.00    +0.187 C 
ATOM      7  C   LIG    1       26.609 -13.932   2.896  0.00  0.00    +0.099 C 
ATOM      8  C   LIG    1       23.434 -14.293   3.023  0.00  0.00    +0.060 C 
ATOM      9  C   LIG    1       24.293 -13.638   1.942  0.00  0.00    +0.060 C 
ATOM     10  C   LIG    1       25.441 -12.954   2.694  0.00  0.00    +0.070 C 
ATOM     11  C   LIG    1       23.793 -11.448   3.926  0.00  0.00    +0.192 C 
ENDBRANCH   1   6
BRANCH   1  12
ATOM     12  C   LIG    1       26.217 -17.513   3.357  0.00  0.00    +0.341 C 
ATOM     13  O   LIG    1       27.177 -17.763   4.085  0.00  0.00    -0.247 OA
BRANCH  12  14
ATOM     14  C   LIG    1       25.170 -18.538   2.887  0.00  0.00    +0.253 C 
BRANCH  14  15
ATOM     15  C   LIG    1       24.464 -19.199   4.059  0.00  0.00    -0.008 A 
ATOM     16  C   LIG    1       25.135 -20.105   4.901  0.00  0.00    +0.007 A 
ATOM     17  C   LIG    1       24.474 -20.717   5.967  0.00  0.00    +0.000 A 
ATOM     18  C   LIG    1       23.134 -20.433   6.212  0.00  0.00    +0.000 A 
ATOM     19  C   LIG    1       22.454 -19.535   5.392  0.00  0.00    +0.000 A 
ATOM     20  C   LIG    1       23.112 -18.923   4.322  0.00  0.00    +0.007 A 
ENDBRANCH  14  15
BRANCH  14  21
ATOM     21  O   LIG    1       25.769 -19.527   2.053  0.00  0.00    -0.376 OA
ATOM     22  H   LIG    1       26.451 -19.092   1.513  0.00  0.00    +0.211 HD
ENDBRANCH  14  21
ENDBRANCH  12  14
ENDBRANCH   1  12
TORSDOF 5
ENDMDL
MODEL 4
REMARK VINA RESULT:      -3.0      1.548      2.340
REMARK  Name = *****
REMARK                            x       y       z     vdW  Elec       q    Type
REMARK                         _______ _______ _______ _____ _____    ______ ____
ROOT
ATOM      1  O   LIG    1       24.716 -16.401   4.284  0.00  0.00    -0.459 OA
ENDROOT
BRANCH   1   6
ATOM      2  C   LIG    1       25.748 -12.274   2.272  0.00  0.00    +0.192 C 
ATOM      3  N   LIG    1       26.636 -13.037   3.257  0.00  0.00    +0.243 N 
ATOM      4  C   LIG    1       27.000 -14.470   2.834  0.00  0.00    +0.070 C 
ATOM      5  C   LIG    1       25.730 -15.221   2.421  0.00  0.00    +0.099 C 
ATOM      6  C   LIG    1       24.613 -15.203   3.483  0.00  0.00    +0.187 C 
ATOM      7  C   LIG    1       24.617 -13.985   4.428  0.00  0.00    +0.099 C 
ATOM      8  C   LIG    1       27.608 -15.074   4.111  0.00  0.00    +0.060 C 
ATOM      9  C   LIG    1       26.971 -14.312   5.274  0.00  0.00    +0.060 C 
ATOM     10  C   LIG    1       25.991 -13.326   4.625  0.00  0.00    +0.070 C 
ATOM     11  C   LIG    1       27.904 -12.168   3.398  0.00  0.00    +0.192 C 
ENDBRANCH   1   6
BRANCH   1  12
ATOM     12  C   LIG    1       23.729 -17.332   4.062  0.00  0.00    +0.341 C 
ATOM     13  O   LIG    1       22.527 -17.095   4.175  0.00  0.00    -0.247 OA
BRANCH  12  14
ATOM     14  C   LIG    1       24.329 -18.687   3.644  0.00  0.00    +0.253 C 
BRANCH  14  15
ATOM     15  C   LIG    1       24.298 -19.692   4.783  0.00  0.00    -0.008 A 
ATOM     16  C   LIG    1       23.095 -20.027   5.430  0.00  0.00    +0.007 A 
ATOM     17  C   LIG    1       23.078 -20.943   6.484  0.00  0.00    +0.000 A 
ATOM     18  C   LIG    1       24.261 -21.540   6.907  0.00  0.00    +0.000 A 
ATOM     19  C   LIG    1       25.463 -21.223   6.275  0.00  0.00    +0.000 A 
ATOM     20  C   LIG    1       25.483 -20.306   5.221  0.00  0.00    +0.007 A 
ENDBRANCH  14  15
BRANCH  14  21
ATOM     21  O   LIG    1       25.662 -18.523   3.167  0.00  0.00    -0.376 OA
ATOM     22  H   LIG    1       25.664 -18.706   2.212  0.00  0.00    +0.211 HD
ENDBRANCH  14  21
ENDBRANCH  12  14
ENDBRANCH   1  12
TORSDOF 5
ENDMDL
MODEL 5
REMARK VINA RESULT:      -2.7      2.060      3.223
REMARK  Name = *****
REMARK                            x       y       z     vdW  Elec       q    Type
REMARK                         _______ _______ _______ _____ _____    ______ ____
ROOT
ATOM      1  O   LIG    1       23.147 -15.726   3.955  0.00  0.00    -0.459 OA
ENDROOT
BRANCH   1   6
ATOM      2  C   LIG    1       27.352 -13.708   4.579  0.00  0.00    +0.192 C 
ATOM      3  N   LIG    1       26.299 -13.285   3.551  0.00  0.00    +0.243 N 
ATOM      4  C   LIG    1       24.925 -12.923   4.137  0.00  0.00    +0.070 C 
ATOM      5  C   LIG    1       24.464 -14.032   5.089  0.00  0.00    +0.099 C 
ATOM      6  C   LIG    1       24.469 -15.441   4.465  0.00  0.00    +0.187 C 
ATOM      7  C   LIG    1       25.486 -15.659   3.328  0.00  0.00    +0.099 C 
ATOM      8  C   LIG    1       24.018 -12.849   2.896  0.00  0.00    +0.060 C 
ATOM      9  C   LIG    1       24.654 -13.781   1.863  0.00  0.00    +0.060 C 
ATOM     10  C   LIG    1       25.879 -14.386   2.561  0.00  0.00    +0.070 C 
ATOM     11  C   LIG    1       26.923 -12.075   2.825  0.00  0.00    +0.192 C 
ENDBRANCH   1   6
BRANCH   1  12
ATOM     12  C   LIG    1       22.295 -16.322   4.854  0.00  0.00    +0.341 C 
ATOM     13  O   LIG    1       21.957 -15.807   5.920  0.00  0.00    -0.247 OA
BRANCH  12  14
ATOM     14  C   LIG    1       21.818 -17.693   4.343  0.00  0.00    +0.253 C 
BRANCH  14  15
ATOM     15  C   LIG    1       22.857 -18.775   4.581  0.00  0.00    -0.008 A 
ATOM     16  C   LIG    1       23.949 -18.945   3.711  0.00  0.00    +0.007 A 
ATOM     17  C   LIG    1       24.892 -19.951   3.931  0.00  0.00    +0.000 A 
ATOM     18  C   LIG    1       24.761 -20.802   5.023  0.00  0.00    +0.000 A 
ATOM     19  C   LIG    1       23.687 -20.647   5.899  0.00  0.00    +0.000 A 
ATOM     20  C   LIG    1       22.741 -19.642   5.680  0.00  0.00    +0.007 A 
ENDBRANCH  14  15
BRANCH  14  21
ATOM     21  O   LIG    1       21.484 -17.627   2.959  0.00  0.00    -0.376 OA
ATOM     22  H   LIG    1       21.959 -18.341   2.501  0.00  0.00    +0.211 HD
ENDBRANCH  14  21
ENDBRANCH  12  14
ENDBRANCH   1  12
TORSDOF 5
ENDMDL
MODEL 6
REMARK VINA RESULT:      -2.5      1.053      1.993
REMARK  Name = *****
REMARK                            x       y       z     vdW  Elec       q    Type
REMARK                         _______ _______ _______ _____ _____    ______ ____
ROOT
ATOM      1  O   LIG    1       25.780 -16.584   3.352  0.00  0.00    -0.459 OA
ENDROOT
BRANCH   1   6
ATOM      2  C   LIG    1       26.217 -11.901   3.188  0.00  0.00    +0.192 C 
ATOM      3  N   LIG    1       24.974 -12.669   3.645  0.00  0.00    +0.243 N 
ATOM      4  C   LIG    1       25.204 -13.651   4.806  0.00  0.00    +0.070 C 
ATOM      5  C   LIG    1       26.414 -14.539   4.497  0.00  0.00    +0.099 C 
ATOM      6  C   LIG    1       26.331 -15.265   3.140  0.00  0.00    +0.187 C 
ATOM      7  C   LIG    1       25.492 -14.556   2.059  0.00  0.00    +0.099 C 
ATOM      8  C   LIG    1       23.906 -14.476   4.836  0.00  0.00    +0.060 C 
ATOM      9  C   LIG    1       23.363 -14.444   3.407  0.00  0.00    +0.060 C 
ATOM     10  C   LIG    1       24.387 -13.635   2.601  0.00  0.00    +0.070 C 
ATOM     11  C   LIG    1       23.961 -11.576   4.043  0.00  0.00    +0.192 C 
ENDBRANCH   1   6
BRANCH   1  12
ATOM     12  C   LIG    1       26.688 -17.532   3.762  0.00  0.00    +0.341 C 
ATOM     13  O   LIG    1       27.788 -17.262   4.245  0.00  0.00    -0.247 OA
BRANCH  12  14
ATOM     14  C   LIG    1       26.138 -18.954   3.552  0.00  0.00    +0.253 C 
BRANCH  14  15
ATOM     15  C   LIG    1       24.733 -19.102   4.111  0.00  0.00    -0.008 A 
ATOM     16  C   LIG    1       23.692 -18.246   3.709  0.00  0.00    +0.007 A 
ATOM     17  C   LIG    1       22.407 -18.382   4.237  0.00  0.00    +0.000 A 
ATOM     18  C   LIG    1       22.140 -19.376   5.174  0.00  0.00    +0.000 A 
ATOM     19  C   LIG    1       23.158 -20.237   5.581  0.00  0.00    +0.000 A 
ATOM     20  C   LIG    1       24.446 -20.102   5.056  0.00  0.00    +0.007 A 
ENDBRANCH  14  15
BRANCH  14  21
ATOM     21  O   LIG    1       27.005 -19.922   4.137  0.00  0.00    -0.376 OA
ATOM     22  H   LIG    1       26.566 -20.788   4.086  0.00  0.00    +0.211 HD
ENDBRANCH  14  21
ENDBRANCH  12  14
ENDBRANCH   1  12
TORSDOF 5
ENDMDL
MODEL 7
REMARK VINA RESULT:      -1.5      1.419      2.658
REMARK  Name = *****
REMARK                            x       y       z     vdW  Elec       q    Type
REMARK                         _______ _______ _______ _____ _____    ______ ____
ROOT
ATOM      1  O   LIG    1       25.275 -16.857   2.965  0.00  0.00    -0.459 OA
ENDROOT
BRANCH   1   6
ATOM      2  C   LIG    1       26.952 -13.520   5.828  0.00  0.00    +0.192 C 
ATOM      3  N   LIG    1       26.920 -13.455   4.299  0.00  0.00    +0.243 N 
ATOM      4  C   LIG    1       25.528 -13.618   3.668  0.00  0.00    +0.070 C 
ATOM      5  C   LIG    1       24.836 -14.851   4.260  0.00  0.00    +0.099 C 
ATOM      6  C   LIG    1       25.666 -16.146   4.161  0.00  0.00    +0.187 C 
ATOM      7  C   LIG    1       27.195 -15.954   4.135  0.00  0.00    +0.099 C 
ATOM      8  C   LIG    1       25.836 -13.821   2.175  0.00  0.00    +0.060 C 
ATOM      9  C   LIG    1       27.236 -14.434   2.121  0.00  0.00    +0.060 C 
ATOM     10  C   LIG    1       27.665 -14.598   3.585  0.00  0.00    +0.070 C 
ATOM     11  C   LIG    1       27.523 -12.078   3.952  0.00  0.00    +0.192 C 
ENDBRANCH   1   6
BRANCH   1  12
ATOM     12  C   LIG    1       25.189 -18.222   3.105  0.00  0.00    +0.341 C 
ATOM     13  O   LIG    1       26.057 -19.005   2.722  0.00  0.00    -0.247 OA
BRANCH  12  14
ATOM     14  C   LIG    1       23.883 -18.625   3.813  0.00  0.00    +0.253 C 
BRANCH  14  15
ATOM     15  C   LIG    1       24.136 -19.603   4.948  0.00  0.00    -0.008 A 
ATOM     16  C   LIG    1       23.094 -20.026   5.794  0.00  0.00    +0.007 A 
ATOM     17  C   LIG    1       23.339 -20.915   6.843  0.00  0.00    +0.000 A 
ATOM     18  C   LIG    1       24.625 -21.398   7.062  0.00  0.00    +0.000 A 
ATOM     19  C   LIG    1       25.669 -20.994   6.231  0.00  0.00    +0.000 A 
ATOM     20  C   LIG    1       25.428 -20.102   5.182  0.00  0.00    +0.007 A 
ENDBRANCH  14  15
BRANCH  14  21
ATOM     21  O   LIG    1       22.955 -19.179   2.883  0.00  0.00    -0.376 OA
ATOM     22  H   LIG    1       23.121 -18.775   2.015  0.00  0.00    +0.211 HD
ENDBRANCH  14  21
ENDBRANCH  12  14
ENDBRANCH   1  12
TORSDOF 5
ENDMDL
MODEL 8
REMARK VINA RESULT:      -1.4      2.353      6.622
REMARK  Name = *****
REMARK                            x       y       z     vdW  Elec       q    Type
REMARK                         _______ _______ _______ _____ _____    ______ ____
ROOT
ATOM      1  O   LIG    1       25.052 -17.651   3.229  0.00  0.00    -0.459 OA
ENDROOT
BRANCH   1   6
ATOM      2  C   LIG    1       23.996 -21.571   5.610  0.00  0.00    +0.192 C 
ATOM      3  N   LIG    1       23.015 -20.731   4.788  0.00  0.00    +0.243 N 
ATOM      4  C   LIG    1       23.401 -20.535   3.312  0.00  0.00    +0.070 C 
ATOM      5  C   LIG    1       24.859 -20.071   3.219  0.00  0.00    +0.099 C 
ATOM      6  C   LIG    1       25.177 -18.823   4.065  0.00  0.00    +0.187 C 
ATOM      7  C   LIG    1       24.295 -18.626   5.314  0.00  0.00    +0.099 C 
ATOM      8  C   LIG    1       22.439 -19.433   2.837  0.00  0.00    +0.060 C 
ATOM      9  C   LIG    1       22.092 -18.620   4.084  0.00  0.00    +0.060 C 
ATOM     10  C   LIG    1       22.898 -19.259   5.223  0.00  0.00    +0.070 C 
ATOM     11  C   LIG    1       21.666 -21.470   4.909  0.00  0.00    +0.192 C 
ENDBRANCH   1   6
BRANCH   1  12
ATOM     12  C   LIG    1       26.081 -16.747   3.342  0.00  0.00    +0.341 C 
ATOM     13  O   LIG    1       27.266 -17.067   3.431  0.00  0.00    -0.247 OA
BRANCH  12  14
ATOM     14  C   LIG    1       25.554 -15.301   3.324  0.00  0.00    +0.253 C 
BRANCH  14  15
ATOM     15  C   LIG    1       26.579 -14.321   3.868  0.00  0.00    -0.008 A 
ATOM     16  C   LIG    1       26.458 -13.778   5.161  0.00  0.00    +0.007 A 
ATOM     17  C   LIG    1       27.399 -12.869   5.648  0.00  0.00    +0.000 A 
ATOM     18  C   LIG    1       28.475 -12.487   4.853  0.00  0.00    +0.000 A 
ATOM     19  C   LIG    1       28.614 -13.017   3.572  0.00  0.00    +0.000 A 
ATOM     20  C   LIG    1       27.673 -13.926   3.080  0.00  0.00    +0.007 A 
ENDBRANCH  14  15
BRANCH  14  21
ATOM     21  O   LIG    1       24.337 -15.198   4.059  0.00  0.00    -0.376 OA
ATOM     22  H   LIG    1       24.252 -15.993   4.612  0.00  0.00    +0.211 HD
ENDBRANCH  14  21
ENDBRANCH  12  14
ENDBRANCH   1  12
TORSDOF 5
ENDMDL
MODEL 9
REMARK VINA RESULT:      -1.3      2.365      6.632
REMARK  Name = *****
REMARK                            x       y       z     vdW  Elec       q    Type
REMARK                         _______ _______ _______ _____ _____    ______ ____
ROOT
ATOM      1  O   LIG    1       24.893 -17.552   3.299  0.00  0.00    -0.459 OA
ENDROOT
BRANCH   1   6
ATOM      2  C   LIG    1       24.023 -21.571   5.587  0.00  0.00    +0.192 C 
ATOM      3  N   LIG    1       23.004 -20.759   4.785  0.00  0.00    +0.243 N 
ATOM      4  C   LIG    1       23.378 -20.511   3.314  0.00  0.00    +0.070 C 
ATOM      5  C   LIG    1       24.812 -19.977   3.232  0.00  0.00    +0.099 C 
ATOM      6  C   LIG    1       25.074 -18.736   4.108  0.00  0.00    +0.187 C 
ATOM      7  C   LIG    1       24.184 -18.609   5.361  0.00  0.00    +0.099 C 
ATOM      8  C   LIG    1       22.365 -19.444   2.865  0.00  0.00    +0.060 C 
ATOM      9  C   LIG    1       21.983 -18.677   4.131  0.00  0.00    +0.060 C 
ATOM     10  C   LIG    1       22.818 -19.305   5.254  0.00  0.00    +0.070 C 
ATOM     11  C   LIG    1       21.691 -21.563   4.889  0.00  0.00    +0.192 C 
ENDBRANCH   1   6
BRANCH   1  12
ATOM     12  C   LIG    1       25.951 -16.674   3.313  0.00  0.00    +0.341 C 
ATOM     13  O   LIG    1       27.130 -17.025   3.330  0.00  0.00    -0.247 OA
BRANCH  12  14
ATOM     14  C   LIG    1       25.462 -15.215   3.288  0.00  0.00    +0.253 C 
BRANCH  14  15
ATOM     15  C   LIG    1       26.512 -14.260   3.829  0.00  0.00    -0.008 A 
ATOM     16  C   LIG    1       27.549 -13.773   3.012  0.00  0.00    +0.007 A 
ATOM     17  C   LIG    1       28.517 -12.906   3.521  0.00  0.00    +0.000 A 
ATOM     18  C   LIG    1       28.465 -12.509   4.854  0.00  0.00    +0.000 A 
ATOM     19  C   LIG    1       27.443 -12.977   5.678  0.00  0.00    +0.000 A 
ATOM     20  C   LIG    1       26.474 -13.847   5.172  0.00  0.00    +0.007 A 
ENDBRANCH  14  15
BRANCH  14  21
ATOM     21  O   LIG    1       24.247 -15.077   4.020  0.00  0.00    -0.376 OA
ATOM     22  H   LIG    1       24.319 -14.281   4.574  0.00  0.00    +0.211 HD
ENDBRANCH  14  21
ENDBRANCH  12  14
ENDBRANCH   1  12
TORSDOF 5
ENDMDL
