MODEL 1
REMARK VINA RESULT:     -10.7      0.000      0.000
REMARK  Name = *****
REMARK                            x       y       z     vdW  Elec       q    Type
REMARK                         _______ _______ _______ _____ _____    ______ ____
ROOT
ATOM      1  C   LIG    1       24.896 -25.470   6.269  0.00  0.00    +0.130 A 
ATOM      2  N   LIG    1       25.853 -24.777   6.921  0.00  0.00    -0.199 NA
ATOM      3  C   LIG    1       25.573 -23.556   7.405  0.00  0.00    +0.221 A 
ATOM      4  N   LIG    1       24.366 -22.985   7.309  0.00  0.00    -0.223 NA
ATOM      5  C   LIG    1       23.418 -23.694   6.677  0.00  0.00    +0.118 A 
ATOM      6  C   LIG    1       23.630 -24.937   6.126  0.00  0.00    +0.064 A 
ENDROOT
BRANCH   1   7
ATOM      7  N   LIG    1       25.204 -26.760   5.760  0.00  0.00    -0.288 N 
ATOM      8  C   LIG    1       26.155 -26.709   4.645  0.00  0.00    +0.137 C 
BRANCH   7  16
ATOM      9  C   LIG    1       24.761 -32.317   9.596  0.00  0.00    +0.066 C 
ATOM     10  C   LIG    1       24.438 -31.603   8.337  0.00  0.00    +0.044 A 
ATOM     11  N   LIG    1       23.678 -32.161   7.334  0.00  0.00    -0.271 N 
ATOM     12  C   LIG    1       23.059 -33.468   7.338  0.00  0.00    +0.172 C 
ATOM     13  N   LIG    1       23.506 -31.369   6.257  0.00  0.00    -0.171 NA
ATOM     14  C   LIG    1       24.155 -30.234   6.554  0.00  0.00    +0.095 A 
ATOM     15  C   LIG    1       24.295 -29.060   5.794  0.00  0.00    +0.053 A 
ATOM     16  C   LIG    1       25.043 -28.018   6.405  0.00  0.00    +0.037 A 
ATOM     17  C   LIG    1       25.606 -28.197   7.724  0.00  0.00    +0.024 A 
ATOM     18  C   LIG    1       25.492 -29.372   8.512  0.00  0.00    +0.013 A 
ATOM     19  C   LIG    1       24.749 -30.350   7.859  0.00  0.00    +0.023 A 
ENDBRANCH   7  16
ENDBRANCH   1   7
BRANCH   3  20
ATOM     20  N   LIG    1       26.552 -22.765   8.005  0.00  0.00    -0.283 N 
ATOM     21  H   LIG    1       26.681 -23.048   8.965  0.00  0.00    +0.155 HD
BRANCH  20  22
ATOM     22  C   LIG    1       27.312 -21.691   7.535  0.00  0.00    +0.035 A 
ATOM     23  C   LIG    1       28.589 -21.401   8.017  0.00  0.00    +0.052 A 
ATOM     24  C   LIG    1       29.357 -20.356   7.479  0.00  0.00    +0.110 A 
ATOM     25  C   LIG    1       28.866 -19.582   6.414  0.00  0.00    -0.024 A 
ATOM     26  C   LIG    1       29.642 -18.464   5.777  0.00  0.00    +0.045 C 
ATOM     27  C   LIG    1       27.591 -19.887   5.915  0.00  0.00    +0.007 A 
ATOM     28  C   LIG    1       26.828 -20.922   6.470  0.00  0.00    +0.024 A 
BRANCH  24  29
ATOM     29  S   LIG    1       30.964 -20.090   8.184  0.00  0.00    +0.056 S 
ATOM     30  O   LIG    1       30.824 -19.437   9.460  0.00  0.00    -0.153 OA
ATOM     31  O   LIG    1       31.873 -19.602   7.165  0.00  0.00    -0.153 OA
BRANCH  29  32
ATOM     32  N   LIG    1       31.502 -21.650   8.504  0.00  0.00    -0.203 NA
ATOM     33  H   LIG    1       31.456 -21.825   9.507  0.00  0.00    +0.144 HD
ATOM     34  H   LIG    1       32.430 -21.781   8.102  0.00  0.00    +0.144 HD
ENDBRANCH  29  32
ENDBRANCH  24  29
ENDBRANCH  20  22
ENDBRANCH   3  20
TORSDOF 6
ENDMDL
MODEL 2
REMARK VINA RESULT:     -10.6      4.545      9.710
REMARK  Name = *****
REMARK                            x       y       z     vdW  Elec       q    Type
REMARK                         _______ _______ _______ _____ _____    ______ ____
ROOT
ATOM      1  C   LIG    1       24.602 -22.594   6.022  0.00  0.00    +0.130 A 
ATOM      2  N   LIG    1       25.163 -23.792   5.755  0.00  0.00    -0.199 NA
ATOM      3  C   LIG    1       24.491 -24.919   6.042  0.00  0.00    +0.221 A 
ATOM      4  N   LIG    1       23.255 -24.927   6.556  0.00  0.00    -0.223 NA
ATOM      5  C   LIG    1       22.699 -23.729   6.797  0.00  0.00    +0.118 A 
ATOM      6  C   LIG    1       23.332 -22.530   6.561  0.00  0.00    +0.064 A 
ENDROOT
BRANCH   1   7
ATOM      7  N   LIG    1       25.323 -21.411   5.716  0.00  0.00    -0.288 N 
ATOM      8  C   LIG    1       24.447 -20.318   5.280  0.00  0.00    +0.137 C 
BRANCH   7  16
ATOM      9  C   LIG    1       31.432 -18.911   7.210  0.00  0.00    +0.066 C 
ATOM     10  C   LIG    1       30.358 -19.902   7.464  0.00  0.00    +0.044 A 
ATOM     11  N   LIG    1       30.442 -20.859   8.450  0.00  0.00    -0.271 N 
ATOM     12  C   LIG    1       31.524 -21.044   9.392  0.00  0.00    +0.172 C 
ATOM     13  N   LIG    1       29.378 -21.683   8.520  0.00  0.00    -0.171 NA
ATOM     14  C   LIG    1       28.543 -21.254   7.563  0.00  0.00    +0.095 A 
ATOM     15  C   LIG    1       27.276 -21.741   7.198  0.00  0.00    +0.053 A 
ATOM     16  C   LIG    1       26.634 -21.049   6.137  0.00  0.00    +0.037 A 
ATOM     17  C   LIG    1       27.278 -19.921   5.502  0.00  0.00    +0.024 A 
ATOM     18  C   LIG    1       28.559 -19.411   5.839  0.00  0.00    +0.013 A 
ATOM     19  C   LIG    1       29.131 -20.131   6.883  0.00  0.00    +0.023 A 
ENDBRANCH   7  16
ENDBRANCH   1   7
BRANCH   3  20
ATOM     20  N   LIG    1       25.064 -26.178   5.868  0.00  0.00    -0.283 N 
ATOM     21  H   LIG    1       25.326 -26.306   4.902  0.00  0.00    +0.155 HD
BRANCH  20  22
ATOM     22  C   LIG    1       25.292 -27.237   6.750  0.00  0.00    +0.035 A 
ATOM     23  C   LIG    1       24.733 -28.503   6.572  0.00  0.00    +0.052 A 
ATOM     24  C   LIG    1       25.033 -29.567   7.436  0.00  0.00    +0.110 A 
ATOM     25  C   LIG    1       25.933 -29.392   8.502  0.00  0.00    -0.024 A 
ATOM     26  C   LIG    1       26.315 -30.491   9.452  0.00  0.00    +0.045 C 
ATOM     27  C   LIG    1       26.510 -28.125   8.670  0.00  0.00    +0.007 A 
ATOM     28  C   LIG    1       26.192 -27.067   7.810  0.00  0.00    +0.024 A 
BRANCH  24  29
ATOM     29  S   LIG    1       24.252 -31.125   7.100  0.00  0.00    +0.056 S 
ATOM     30  O   LIG    1       23.287 -31.408   8.129  0.00  0.00    -0.153 OA
ATOM     31  O   LIG    1       25.249 -32.096   6.692  0.00  0.00    -0.153 OA
BRANCH  29  32
ATOM     32  N   LIG    1       23.378 -30.817   5.698  0.00  0.00    -0.203 NA
ATOM     33  H   LIG    1       24.012 -30.490   4.969  0.00  0.00    +0.144 HD
ATOM     34  H   LIG    1       22.615 -30.172   5.905  0.00  0.00    +0.144 HD
ENDBRANCH  29  32
ENDBRANCH  24  29
ENDBRANCH  20  22
ENDBRANCH   3  20
TORSDOF 6
ENDMDL
MODEL 3
REMARK VINA RESULT:     -10.4      3.654      9.384
REMARK  Name = *****
REMARK                            x       y       z     vdW  Elec       q    Type
REMARK                         _______ _______ _______ _____ _____    ______ ____
ROOT
ATOM      1  C   LIG    1       24.606 -22.604   6.009  0.00  0.00    +0.130 A 
ATOM      2  N   LIG    1       25.144 -23.763   5.573  0.00  0.00    -0.199 NA
ATOM      3  C   LIG    1       24.500 -24.920   5.801  0.00  0.00    +0.221 A 
ATOM      4  N   LIG    1       23.315 -24.992   6.418  0.00  0.00    -0.223 NA
ATOM      5  C   LIG    1       22.781 -23.830   6.827  0.00  0.00    +0.118 A 
ATOM      6  C   LIG    1       23.389 -22.608   6.661  0.00  0.00    +0.064 A 
ENDROOT
BRANCH   1   7
ATOM      7  N   LIG    1       25.297 -21.388   5.764  0.00  0.00    -0.288 N 
ATOM      8  C   LIG    1       24.389 -20.285   5.433  0.00  0.00    +0.137 C 
BRANCH   7  16
ATOM      9  C   LIG    1       31.439 -18.916   7.164  0.00  0.00    +0.066 C 
ATOM     10  C   LIG    1       30.360 -19.895   7.442  0.00  0.00    +0.044 A 
ATOM     11  N   LIG    1       30.446 -20.839   8.440  0.00  0.00    -0.271 N 
ATOM     12  C   LIG    1       31.536 -21.021   9.374  0.00  0.00    +0.172 C 
ATOM     13  N   LIG    1       29.377 -21.655   8.531  0.00  0.00    -0.171 NA
ATOM     14  C   LIG    1       28.536 -21.232   7.577  0.00  0.00    +0.095 A 
ATOM     15  C   LIG    1       27.262 -21.714   7.231  0.00  0.00    +0.053 A 
ATOM     16  C   LIG    1       26.615 -21.031   6.167  0.00  0.00    +0.037 A 
ATOM     17  C   LIG    1       27.261 -19.917   5.511  0.00  0.00    +0.024 A 
ATOM     18  C   LIG    1       28.548 -19.413   5.829  0.00  0.00    +0.013 A 
ATOM     19  C   LIG    1       29.126 -20.123   6.876  0.00  0.00    +0.023 A 
ENDBRANCH   7  16
ENDBRANCH   1   7
BRANCH   3  20
ATOM     20  N   LIG    1       25.058 -26.149   5.451  0.00  0.00    -0.283 N 
ATOM     21  H   LIG    1       25.600 -26.051   4.605  0.00  0.00    +0.155 HD
BRANCH  20  22
ATOM     22  C   LIG    1       24.968 -27.420   6.024  0.00  0.00    +0.035 A 
ATOM     23  C   LIG    1       25.525 -27.731   7.264  0.00  0.00    +0.052 A 
ATOM     24  C   LIG    1       25.362 -28.997   7.846  0.00  0.00    +0.110 A 
ATOM     25  C   LIG    1       24.604 -29.990   7.200  0.00  0.00    -0.024 A 
ATOM     26  C   LIG    1       24.371 -31.358   7.775  0.00  0.00    +0.045 C 
ATOM     27  C   LIG    1       24.027 -29.671   5.962  0.00  0.00    +0.007 A 
ATOM     28  C   LIG    1       24.209 -28.408   5.385  0.00  0.00    +0.024 A 
BRANCH  24  29
ATOM     29  S   LIG    1       26.124 -29.264   9.427  0.00  0.00    +0.056 S 
ATOM     30  O   LIG    1       25.152 -29.804  10.341  0.00  0.00    -0.153 OA
ATOM     31  O   LIG    1       26.956 -28.127   9.770  0.00  0.00    -0.153 OA
BRANCH  29  32
ATOM     32  N   LIG    1       27.222 -30.498   9.116  0.00  0.00    -0.203 NA
ATOM     33  H   LIG    1       26.717 -31.374   8.982  0.00  0.00    +0.144 HD
ATOM     34  H   LIG    1       27.920 -30.532   9.859  0.00  0.00    +0.144 HD
ENDBRANCH  29  32
ENDBRANCH  24  29
ENDBRANCH  20  22
ENDBRANCH   3  20
TORSDOF 6
ENDMDL
MODEL 4
REMARK VINA RESULT:     -10.2      3.550      5.318
REMARK  Name = *****
REMARK                            x       y       z     vdW  Elec       q    Type
REMARK                         _______ _______ _______ _____ _____    ______ ____
ROOT
ATOM      1  C   LIG    1       25.057 -29.214   7.312  0.00  0.00    +0.130 A 
ATOM      2  N   LIG    1       25.443 -27.928   7.451  0.00  0.00    -0.199 NA
ATOM      3  C   LIG    1       25.501 -27.133   6.370  0.00  0.00    +0.221 A 
ATOM      4  N   LIG    1       25.158 -27.536   5.141  0.00  0.00    -0.223 NA
ATOM      5  C   LIG    1       24.754 -28.811   5.020  0.00  0.00    +0.118 A 
ATOM      6  C   LIG    1       24.696 -29.698   6.071  0.00  0.00    +0.064 A 
ENDROOT
BRANCH   1   7
ATOM      7  N   LIG    1       25.001 -30.045   8.462  0.00  0.00    -0.288 N 
ATOM      8  C   LIG    1       24.602 -31.419   8.140  0.00  0.00    +0.137 C 
BRANCH   7  16
ATOM      9  C   LIG    1       27.134 -29.191  14.827  0.00  0.00    +0.066 C 
ATOM     10  C   LIG    1       27.442 -29.414  13.393  0.00  0.00    +0.044 A 
ATOM     11  N   LIG    1       28.726 -29.557  12.918  0.00  0.00    -0.271 N 
ATOM     12  C   LIG    1       29.947 -29.549  13.695  0.00  0.00    +0.172 C 
ATOM     13  N   LIG    1       28.812 -29.733  11.585  0.00  0.00    -0.171 NA
ATOM     14  C   LIG    1       27.543 -29.728  11.153  0.00  0.00    +0.095 A 
ATOM     15  C   LIG    1       27.044 -29.883   9.848  0.00  0.00    +0.053 A 
ATOM     16  C   LIG    1       25.629 -29.841   9.723  0.00  0.00    +0.037 A 
ATOM     17  C   LIG    1       24.796 -29.650  10.888  0.00  0.00    +0.024 A 
ATOM     18  C   LIG    1       25.269 -29.480  12.215  0.00  0.00    +0.013 A 
ATOM     19  C   LIG    1       26.658 -29.532  12.269  0.00  0.00    +0.023 A 
ENDBRANCH   7  16
ENDBRANCH   1   7
BRANCH   3  20
ATOM     20  N   LIG    1       25.981 -25.826   6.448  0.00  0.00    -0.283 N 
ATOM     21  H   LIG    1       26.973 -25.813   6.263  0.00  0.00    +0.155 HD
BRANCH  20  22
ATOM     22  C   LIG    1       25.359 -24.613   6.753  0.00  0.00    +0.035 A 
ATOM     23  C   LIG    1       26.061 -23.499   7.214  0.00  0.00    +0.052 A 
ATOM     24  C   LIG    1       25.421 -22.272   7.449  0.00  0.00    +0.110 A 
ATOM     25  C   LIG    1       24.045 -22.124   7.200  0.00  0.00    -0.024 A 
ATOM     26  C   LIG    1       23.301 -20.836   7.408  0.00  0.00    +0.045 C 
ATOM     27  C   LIG    1       23.343 -23.238   6.717  0.00  0.00    +0.007 A 
ATOM     28  C   LIG    1       23.990 -24.460   6.501  0.00  0.00    +0.024 A 
BRANCH  24  29
ATOM     29  S   LIG    1       26.428 -20.935   8.037  0.00  0.00    +0.056 S 
ATOM     30  O   LIG    1       25.949 -20.506   9.325  0.00  0.00    -0.153 OA
ATOM     31  O   LIG    1       26.682 -19.998   6.959  0.00  0.00    -0.153 OA
BRANCH  29  32
ATOM     32  N   LIG    1       27.917 -21.669   8.304  0.00  0.00    -0.203 NA
ATOM     33  H   LIG    1       28.588 -21.332   7.614  0.00  0.00    +0.144 HD
ATOM     34  H   LIG    1       27.802 -22.682   8.310  0.00  0.00    +0.144 HD
ENDBRANCH  29  32
ENDBRANCH  24  29
ENDBRANCH  20  22
ENDBRANCH   3  20
TORSDOF 6
ENDMDL
MODEL 5
REMARK VINA RESULT:     -10.0      3.260      4.896
REMARK  Name = *****
REMARK                            x       y       z     vdW  Elec       q    Type
REMARK                         _______ _______ _______ _____ _____    ______ ____
ROOT
ATOM      1  C   LIG    1       25.433 -29.215   7.766  0.00  0.00    +0.130 A 
ATOM      2  N   LIG    1       25.717 -27.896   7.725  0.00  0.00    -0.199 NA
ATOM      3  C   LIG    1       25.739 -27.259   6.542  0.00  0.00    +0.221 A 
ATOM      4  N   LIG    1       25.457 -27.858   5.379  0.00  0.00    -0.223 NA
ATOM      5  C   LIG    1       25.155 -29.165   5.437  0.00  0.00    +0.118 A 
ATOM      6  C   LIG    1       25.140 -29.897   6.602  0.00  0.00    +0.064 A 
ENDROOT
BRANCH   1   7
ATOM      7  N   LIG    1       25.414 -29.877   9.022  0.00  0.00    -0.288 N 
ATOM      8  C   LIG    1       26.756 -30.028   9.595  0.00  0.00    +0.137 C 
BRANCH   7  16
ATOM      9  C   LIG    1       20.664 -30.038  13.839  0.00  0.00    +0.066 C 
ATOM     10  C   LIG    1       21.088 -30.337  12.449  0.00  0.00    +0.044 A 
ATOM     11  N   LIG    1       20.253 -30.918  11.522  0.00  0.00    -0.271 N 
ATOM     12  C   LIG    1       18.869 -31.296  11.713  0.00  0.00    +0.172 C 
ATOM     13  N   LIG    1       20.818 -31.132  10.317  0.00  0.00    -0.171 NA
ATOM     14  C   LIG    1       22.068 -30.660  10.433  0.00  0.00    +0.095 A 
ATOM     15  C   LIG    1       23.097 -30.615   9.477  0.00  0.00    +0.053 A 
ATOM     16  C   LIG    1       24.317 -30.033   9.915  0.00  0.00    +0.037 A 
ATOM     17  C   LIG    1       24.446 -29.531  11.264  0.00  0.00    +0.024 A 
ATOM     18  C   LIG    1       23.431 -29.570  12.255  0.00  0.00    +0.013 A 
ATOM     19  C   LIG    1       22.266 -30.150  11.763  0.00  0.00    +0.023 A 
ENDBRANCH   7  16
ENDBRANCH   1   7
BRANCH   3  20
ATOM     20  N   LIG    1       26.115 -25.921   6.439  0.00  0.00    -0.283 N 
ATOM     21  H   LIG    1       27.064 -25.856   6.103  0.00  0.00    +0.155 HD
BRANCH  20  22
ATOM     22  C   LIG    1       25.446 -24.730   6.736  0.00  0.00    +0.035 A 
ATOM     23  C   LIG    1       26.103 -23.591   7.203  0.00  0.00    +0.052 A 
ATOM     24  C   LIG    1       25.416 -22.388   7.429  0.00  0.00    +0.110 A 
ATOM     25  C   LIG    1       24.039 -22.290   7.166  0.00  0.00    -0.024 A 
ATOM     26  C   LIG    1       23.246 -21.030   7.365  0.00  0.00    +0.045 C 
ATOM     27  C   LIG    1       23.382 -23.430   6.677  0.00  0.00    +0.007 A 
ATOM     28  C   LIG    1       24.076 -24.628   6.469  0.00  0.00    +0.024 A 
BRANCH  24  29
ATOM     29  S   LIG    1       26.368 -21.015   8.026  0.00  0.00    +0.056 S 
ATOM     30  O   LIG    1       25.904 -20.646   9.338  0.00  0.00    -0.153 OA
ATOM     31  O   LIG    1       26.540 -20.038   6.968  0.00  0.00    -0.153 OA
BRANCH  29  32
ATOM     32  N   LIG    1       27.900 -21.675   8.230  0.00  0.00    -0.203 NA
ATOM     33  H   LIG    1       27.896 -22.297   9.038  0.00  0.00    +0.144 HD
ATOM     34  H   LIG    1       28.591 -20.926   8.288  0.00  0.00    +0.144 HD
ENDBRANCH  29  32
ENDBRANCH  24  29
ENDBRANCH  20  22
ENDBRANCH   3  20
TORSDOF 6
ENDMDL
MODEL 6
REMARK VINA RESULT:      -9.7      3.549      5.305
REMARK  Name = *****
REMARK                            x       y       z     vdW  Elec       q    Type
REMARK                         _______ _______ _______ _____ _____    ______ ____
ROOT
ATOM      1  C   LIG    1       25.229 -29.319   7.628  0.00  0.00    +0.130 A 
ATOM      2  N   LIG    1       25.584 -28.017   7.672  0.00  0.00    -0.199 NA
ATOM      3  C   LIG    1       25.562 -27.286   6.545  0.00  0.00    +0.221 A 
ATOM      4  N   LIG    1       25.166 -27.771   5.362  0.00  0.00    -0.223 NA
ATOM      5  C   LIG    1       24.794 -29.060   5.337  0.00  0.00    +0.118 A 
ATOM      6  C   LIG    1       24.818 -29.885   6.438  0.00  0.00    +0.064 A 
ENDROOT
BRANCH   1   7
ATOM      7  N   LIG    1       25.259 -30.082   8.825  0.00  0.00    -0.288 N 
ATOM      8  C   LIG    1       26.565 -30.709   9.057  0.00  0.00    +0.137 C 
BRANCH   7  16
ATOM      9  C   LIG    1       20.529 -30.177  13.664  0.00  0.00    +0.066 C 
ATOM     10  C   LIG    1       21.915 -29.868  13.236  0.00  0.00    +0.044 A 
ATOM     11  N   LIG    1       22.865 -29.357  14.090  0.00  0.00    -0.271 N 
ATOM     12  C   LIG    1       22.704 -29.071  15.499  0.00  0.00    +0.172 C 
ATOM     13  N   LIG    1       24.063 -29.122  13.519  0.00  0.00    -0.171 NA
ATOM     14  C   LIG    1       23.918 -29.508  12.242  0.00  0.00    +0.095 A 
ATOM     15  C   LIG    1       24.855 -29.495  11.194  0.00  0.00    +0.053 A 
ATOM     16  C   LIG    1       24.388 -29.988   9.947  0.00  0.00    +0.037 A 
ATOM     17  C   LIG    1       23.029 -30.462   9.809  0.00  0.00    +0.024 A 
ATOM     18  C   LIG    1       22.057 -30.478  10.843  0.00  0.00    +0.013 A 
ATOM     19  C   LIG    1       22.578 -29.985  12.035  0.00  0.00    +0.023 A 
ENDBRANCH   7  16
ENDBRANCH   1   7
BRANCH   3  20
ATOM     20  N   LIG    1       26.005 -25.965   6.522  0.00  0.00    -0.283 N 
ATOM     21  H   LIG    1       26.984 -25.936   6.279  0.00  0.00    +0.155 HD
BRANCH  20  22
ATOM     22  C   LIG    1       25.366 -24.752   6.794  0.00  0.00    +0.035 A 
ATOM     23  C   LIG    1       26.047 -23.625   7.252  0.00  0.00    +0.052 A 
ATOM     24  C   LIG    1       25.391 -22.401   7.452  0.00  0.00    +0.110 A 
ATOM     25  C   LIG    1       24.019 -22.270   7.171  0.00  0.00    -0.024 A 
ATOM     26  C   LIG    1       23.259 -20.986   7.343  0.00  0.00    +0.045 C 
ATOM     27  C   LIG    1       23.338 -23.398   6.691  0.00  0.00    +0.007 A 
ATOM     28  C   LIG    1       24.001 -24.618   6.509  0.00  0.00    +0.024 A 
BRANCH  24  29
ATOM     29  S   LIG    1       26.372 -21.044   8.041  0.00  0.00    +0.056 S 
ATOM     30  O   LIG    1       25.909 -20.649   9.345  0.00  0.00    -0.153 OA
ATOM     31  O   LIG    1       26.576 -20.085   6.972  0.00  0.00    -0.153 OA
BRANCH  29  32
ATOM     32  N   LIG    1       27.886 -21.740   8.264  0.00  0.00    -0.203 NA
ATOM     33  H   LIG    1       28.058 -22.420   7.524  0.00  0.00    +0.144 HD
ATOM     34  H   LIG    1       27.950 -22.126   9.206  0.00  0.00    +0.144 HD
ENDBRANCH  29  32
ENDBRANCH  24  29
ENDBRANCH  20  22
ENDBRANCH   3  20
TORSDOF 6
ENDMDL
MODEL 7
REMARK VINA RESULT:      -9.6      3.807      5.727
REMARK  Name = *****
REMARK                            x       y       z     vdW  Elec       q    Type
REMARK                         _______ _______ _______ _____ _____    ______ ____
ROOT
ATOM      1  C   LIG    1       25.373 -29.385   7.934  0.00  0.00    +0.130 A 
ATOM      2  N   LIG    1       25.650 -28.088   7.685  0.00  0.00    -0.199 NA
ATOM      3  C   LIG    1       25.329 -27.558   6.493  0.00  0.00    +0.221 A 
ATOM      4  N   LIG    1       24.706 -28.244   5.528  0.00  0.00    -0.223 NA
ATOM      5  C   LIG    1       24.416 -29.527   5.797  0.00  0.00    +0.118 A 
ATOM      6  C   LIG    1       24.738 -30.153   6.979  0.00  0.00    +0.064 A 
ENDROOT
BRANCH   1   7
ATOM      7  N   LIG    1       25.719 -29.934   9.197  0.00  0.00    -0.288 N 
ATOM      8  C   LIG    1       26.605 -31.096   9.079  0.00  0.00    +0.137 C 
BRANCH   7  16
ATOM      9  C   LIG    1       26.214 -26.508  15.012  0.00  0.00    +0.066 C 
ATOM     10  C   LIG    1       25.419 -27.354  14.090  0.00  0.00    +0.044 A 
ATOM     11  N   LIG    1       24.120 -27.729  14.351  0.00  0.00    -0.271 N 
ATOM     12  C   LIG    1       23.323 -27.359  15.500  0.00  0.00    +0.172 C 
ATOM     13  N   LIG    1       23.564 -28.514  13.407  0.00  0.00    -0.171 NA
ATOM     14  C   LIG    1       24.514 -28.655  12.471  0.00  0.00    +0.095 A 
ATOM     15  C   LIG    1       24.474 -29.364  11.258  0.00  0.00    +0.053 A 
ATOM     16  C   LIG    1       25.657 -29.306  10.473  0.00  0.00    +0.037 A 
ATOM     17  C   LIG    1       26.803 -28.553  10.931  0.00  0.00    +0.024 A 
ATOM     18  C   LIG    1       26.879 -27.837  12.153  0.00  0.00    +0.013 A 
ATOM     19  C   LIG    1       25.692 -27.933  12.871  0.00  0.00    +0.023 A 
ENDBRANCH   7  16
ENDBRANCH   1   7
BRANCH   3  20
ATOM     20  N   LIG    1       25.676 -26.251   6.156  0.00  0.00    -0.283 N 
ATOM     21  H   LIG    1       26.491 -26.255   5.560  0.00  0.00    +0.155 HD
BRANCH  20  22
ATOM     22  C   LIG    1       25.135 -25.012   6.511  0.00  0.00    +0.035 A 
ATOM     23  C   LIG    1       25.923 -23.922   6.881  0.00  0.00    +0.052 A 
ATOM     24  C   LIG    1       25.356 -22.670   7.168  0.00  0.00    +0.110 A 
ATOM     25  C   LIG    1       23.968 -22.473   7.066  0.00  0.00    -0.024 A 
ATOM     26  C   LIG    1       23.298 -21.156   7.337  0.00  0.00    +0.045 C 
ATOM     27  C   LIG    1       23.178 -23.563   6.674  0.00  0.00    +0.007 A 
ATOM     28  C   LIG    1       23.754 -24.811   6.405  0.00  0.00    +0.024 A 
BRANCH  24  29
ATOM     29  S   LIG    1       26.469 -21.367   7.629  0.00  0.00    +0.056 S 
ATOM     30  O   LIG    1       26.249 -20.227   6.777  0.00  0.00    -0.153 OA
ATOM     31  O   LIG    1       27.793 -21.910   7.862  0.00  0.00    -0.153 OA
BRANCH  29  32
ATOM     32  N   LIG    1       25.928 -20.929   9.159  0.00  0.00    -0.203 NA
ATOM     33  H   LIG    1       25.157 -21.538   9.432  0.00  0.00    +0.144 HD
ATOM     34  H   LIG    1       25.695 -19.936   9.169  0.00  0.00    +0.144 HD
ENDBRANCH  29  32
ENDBRANCH  24  29
ENDBRANCH  20  22
ENDBRANCH   3  20
TORSDOF 6
ENDMDL
MODEL 8
REMARK VINA RESULT:      -9.6      4.173      8.235
REMARK  Name = *****
REMARK                            x       y       z     vdW  Elec       q    Type
REMARK                         _______ _______ _______ _____ _____    ______ ____
ROOT
ATOM      1  C   LIG    1       25.402 -28.410   7.192  0.00  0.00    +0.130 A 
ATOM      2  N   LIG    1       25.917 -28.177   8.419  0.00  0.00    -0.199 NA
ATOM      3  C   LIG    1       25.901 -29.154   9.340  0.00  0.00    +0.221 A 
ATOM      4  N   LIG    1       25.427 -30.383   9.101  0.00  0.00    -0.223 NA
ATOM      5  C   LIG    1       24.939 -30.608   7.871  0.00  0.00    +0.118 A 
ATOM      6  C   LIG    1       24.890 -29.653   6.881  0.00  0.00    +0.064 A 
ENDROOT
BRANCH   1   7
ATOM      7  N   LIG    1       25.423 -27.369   6.227  0.00  0.00    -0.288 N 
ATOM      8  C   LIG    1       25.271 -27.872   4.858  0.00  0.00    +0.137 C 
BRANCH   7  16
ATOM      9  C   LIG    1       23.350 -21.004   7.222  0.00  0.00    +0.066 C 
ATOM     10  C   LIG    1       24.450 -21.998   7.171  0.00  0.00    +0.044 A 
ATOM     11  N   LIG    1       25.762 -21.676   7.436  0.00  0.00    -0.271 N 
ATOM     12  C   LIG    1       26.279 -20.382   7.824  0.00  0.00    +0.172 C 
ATOM     13  N   LIG    1       26.624 -22.706   7.321  0.00  0.00    -0.171 NA
ATOM     14  C   LIG    1       25.863 -23.759   6.988  0.00  0.00    +0.095 A 
ATOM     15  C   LIG    1       26.238 -25.093   6.754  0.00  0.00    +0.053 A 
ATOM     16  C   LIG    1       25.178 -25.981   6.429  0.00  0.00    +0.037 A 
ATOM     17  C   LIG    1       23.817 -25.501   6.355  0.00  0.00    +0.024 A 
ATOM     18  C   LIG    1       23.407 -24.161   6.575  0.00  0.00    +0.013 A 
ATOM     19  C   LIG    1       24.489 -23.345   6.890  0.00  0.00    +0.023 A 
ENDBRANCH   7  16
ENDBRANCH   1   7
BRANCH   3  20
ATOM     20  N   LIG    1       26.336 -28.935  10.646  0.00  0.00    -0.283 N 
ATOM     21  H   LIG    1       27.255 -29.333  10.773  0.00  0.00    +0.155 HD
BRANCH  20  22
ATOM     22  C   LIG    1       25.734 -28.322  11.748  0.00  0.00    +0.035 A 
ATOM     23  C   LIG    1       26.267 -27.192  12.369  0.00  0.00    +0.052 A 
ATOM     24  C   LIG    1       25.606 -26.557  13.432  0.00  0.00    +0.110 A 
ATOM     25  C   LIG    1       24.365 -27.033  13.889  0.00  0.00    -0.024 A 
ATOM     26  C   LIG    1       23.593 -26.391  15.006  0.00  0.00    +0.045 C 
ATOM     27  C   LIG    1       23.819 -28.157  13.252  0.00  0.00    +0.007 A 
ATOM     28  C   LIG    1       24.495 -28.790  12.202  0.00  0.00    +0.024 A 
BRANCH  24  29
ATOM     29  S   LIG    1       26.393 -25.130  14.136  0.00  0.00    +0.056 S 
ATOM     30  O   LIG    1       26.757 -25.410  15.500  0.00  0.00    -0.153 OA
ATOM     31  O   LIG    1       25.664 -23.933  13.763  0.00  0.00    -0.153 OA
BRANCH  29  32
ATOM     32  N   LIG    1       27.830 -25.024  13.271  0.00  0.00    -0.203 NA
ATOM     33  H   LIG    1       27.855 -25.758  12.564  0.00  0.00    +0.144 HD
ATOM     34  H   LIG    1       28.620 -25.044  13.916  0.00  0.00    +0.144 HD
ENDBRANCH  29  32
ENDBRANCH  24  29
ENDBRANCH  20  22
ENDBRANCH   3  20
TORSDOF 6
ENDMDL
MODEL 9
REMARK VINA RESULT:      -9.4      4.063      8.589
REMARK  Name = *****
REMARK                            x       y       z     vdW  Elec       q    Type
REMARK                         _______ _______ _______ _____ _____    ______ ____
ROOT
ATOM      1  C   LIG    1       25.017 -28.440   6.436  0.00  0.00    +0.130 A 
ATOM      2  N   LIG    1       25.282 -28.787   7.713  0.00  0.00    -0.199 NA
ATOM      3  C   LIG    1       24.734 -29.901   8.226  0.00  0.00    +0.221 A 
ATOM      4  N   LIG    1       23.950 -30.726   7.520  0.00  0.00    -0.223 NA
ATOM      5  C   LIG    1       23.713 -30.381   6.244  0.00  0.00    +0.118 A 
ATOM      6  C   LIG    1       24.210 -29.242   5.654  0.00  0.00    +0.064 A 
ENDROOT
BRANCH   1   7
ATOM      7  N   LIG    1       25.602 -27.259   5.907  0.00  0.00    -0.288 N 
ATOM      8  C   LIG    1       26.263 -27.491   4.618  0.00  0.00    +0.137 C 
BRANCH   7  16
ATOM      9  C   LIG    1       23.267 -21.111   7.499  0.00  0.00    +0.066 C 
ATOM     10  C   LIG    1       24.408 -22.044   7.340  0.00  0.00    +0.044 A 
ATOM     11  N   LIG    1       25.710 -21.686   7.610  0.00  0.00    -0.271 N 
ATOM     12  C   LIG    1       26.176 -20.408   8.102  0.00  0.00    +0.172 C 
ATOM     13  N   LIG    1       26.615 -22.660   7.390  0.00  0.00    -0.171 NA
ATOM     14  C   LIG    1       25.895 -23.714   6.978  0.00  0.00    +0.095 A 
ATOM     15  C   LIG    1       26.325 -25.003   6.619  0.00  0.00    +0.053 A 
ATOM     16  C   LIG    1       25.299 -25.908   6.235  0.00  0.00    +0.037 A 
ATOM     17  C   LIG    1       23.916 -25.487   6.228  0.00  0.00    +0.024 A 
ATOM     18  C   LIG    1       23.451 -24.192   6.573  0.00  0.00    +0.013 A 
ATOM     19  C   LIG    1       24.502 -23.358   6.940  0.00  0.00    +0.023 A 
ENDBRANCH   7  16
ENDBRANCH   1   7
BRANCH   3  20
ATOM     20  N   LIG    1       24.903 -30.251   9.564  0.00  0.00    -0.283 N 
ATOM     21  H   LIG    1       25.365 -31.146   9.628  0.00  0.00    +0.155 HD
BRANCH  20  22
ATOM     22  C   LIG    1       24.534 -29.622  10.756  0.00  0.00    +0.035 A 
ATOM     23  C   LIG    1       25.394 -28.786  11.467  0.00  0.00    +0.052 A 
ATOM     24  C   LIG    1       24.974 -28.114  12.626  0.00  0.00    +0.110 A 
ATOM     25  C   LIG    1       23.654 -28.247  13.091  0.00  0.00    -0.024 A 
ATOM     26  C   LIG    1       23.132 -27.541  14.310  0.00  0.00    +0.045 C 
ATOM     27  C   LIG    1       22.783 -29.071  12.364  0.00  0.00    +0.007 A 
ATOM     28  C   LIG    1       23.218 -29.748  11.219  0.00  0.00    +0.024 A 
BRANCH  24  29
ATOM     29  S   LIG    1       26.168 -27.083  13.439  0.00  0.00    +0.056 S 
ATOM     30  O   LIG    1       26.525 -27.671  14.703  0.00  0.00    -0.153 OA
ATOM     31  O   LIG    1       25.778 -25.691  13.319  0.00  0.00    -0.153 OA
BRANCH  29  32
ATOM     32  N   LIG    1       27.522 -27.218  12.452  0.00  0.00    -0.203 NA
ATOM     33  H   LIG    1       27.339 -27.903  11.719  0.00  0.00    +0.144 HD
ATOM     34  H   LIG    1       28.341 -27.428  13.021  0.00  0.00    +0.144 HD
ENDBRANCH  29  32
ENDBRANCH  24  29
ENDBRANCH  20  22
ENDBRANCH   3  20
TORSDOF 6
ENDMDL
