MODEL 1
REMARK VINA RESULT:      -8.3      0.000      0.000
REMARK  Name = *****
REMARK                            x       y       z     vdW  Elec       q    Type
REMARK                         _______ _______ _______ _____ _____    ______ ____
ROOT
ATOM      1  C   LIG    1       28.076 -21.330   7.260  0.00  0.00    +0.339 C 
ATOM      2  C   LIG    1       28.350 -19.877   6.778  0.00  0.00    +0.214 C 
ATOM      3  C   LIG    1       29.292 -19.152   7.751  0.00  0.00    +0.180 C 
ATOM      4  C   LIG    1       30.584 -19.973   7.946  0.00  0.00    +0.177 C 
ATOM      5  C   LIG    1       30.272 -21.472   8.144  0.00  0.00    +0.179 C 
ATOM      6  O   LIG    1       28.869 -21.670   8.413  0.00  0.00    -0.331 OA
ENDROOT
BRANCH   2   7
ATOM      7  O   LIG    1       28.994 -19.914   5.485  0.00  0.00    -0.383 OA
ATOM      8  H   LIG    1       28.568 -20.630   4.975  0.00  0.00    +0.210 HD
ENDBRANCH   2   7
BRANCH   3   9
ATOM      9  O   LIG    1       28.638 -18.906   8.998  0.00  0.00    -0.386 OA
ATOM     10  H   LIG    1       28.723 -19.708   9.549  0.00  0.00    +0.210 HD
ENDBRANCH   3   9
BRANCH   4  11
ATOM     11  O   LIG    1       31.443 -19.837   6.806  0.00  0.00    -0.387 OA
ATOM     12  H   LIG    1       30.970 -20.214   6.033  0.00  0.00    +0.210 HD
ENDBRANCH   4  11
BRANCH   1  13
ATOM     13  O   LIG    1       26.684 -21.441   7.592  0.00  0.00    -0.457 OA
BRANCH  13  20
ATOM     14  O   LIG    1       23.637 -28.134   5.522  0.00  0.00    -0.245 OA
ATOM     15  C   LIG    1       24.306 -27.142   5.811  0.00  0.00    +0.337 C 
ATOM     16  O   LIG    1       23.727 -25.930   6.155  0.00  0.00    -0.422 OA
ATOM     17  C   LIG    1       24.520 -24.818   6.504  0.00  0.00    +0.143 A 
ATOM     18  C   LIG    1       25.910 -24.898   6.477  0.00  0.00    +0.021 A 
ATOM     19  C   LIG    1       26.671 -23.777   6.824  0.00  0.00    +0.061 A 
ATOM     20  C   LIG    1       26.042 -22.601   7.242  0.00  0.00    +0.166 A 
ATOM     21  C   LIG    1       24.639 -22.551   7.249  0.00  0.00    +0.162 A 
ATOM     22  C   LIG    1       26.541 -26.152   6.099  0.00  0.00    +0.019 C 
ATOM     23  C   LIG    1       23.868 -23.648   6.877  0.00  0.00    +0.096 A 
ATOM     24  C   LIG    1       25.777 -27.205   5.795  0.00  0.00    +0.092 C 
BRANCH  21  25
ATOM     25  O   LIG    1       23.983 -21.417   7.641  0.00  0.00    -0.503 OA
ATOM     26  H   LIG    1       23.508 -21.646   8.460  0.00  0.00    +0.292 HD
ENDBRANCH  21  25
ENDBRANCH  13  20
ENDBRANCH   1  13
BRANCH   5  27
ATOM     27  C   LIG    1       31.073 -22.054   9.315  0.00  0.00    +0.190 C 
BRANCH  27  28
ATOM     28  O   LIG    1       32.308 -21.355   9.471  0.00  0.00    -0.392 OA
ATOM     29  H   LIG    1       33.016 -21.950   9.160  0.00  0.00    +0.209 HD
ENDBRANCH  27  28
ENDBRANCH   5  27
TORSDOF 8
ENDMDL
MODEL 2
REMARK VINA RESULT:      -8.1      2.210      7.720
REMARK  Name = *****
REMARK                            x       y       z     vdW  Elec       q    Type
REMARK                         _______ _______ _______ _____ _____    ______ ____
ROOT
ATOM      1  C   LIG    1       26.791 -22.166   7.429  0.00  0.00    +0.339 C 
ATOM      2  C   LIG    1       26.148 -20.751   7.379  0.00  0.00    +0.214 C 
ATOM      3  C   LIG    1       24.924 -20.745   6.451  0.00  0.00    +0.180 C 
ATOM      4  C   LIG    1       23.928 -21.841   6.883  0.00  0.00    +0.177 C 
ATOM      5  C   LIG    1       24.654 -23.167   7.196  0.00  0.00    +0.179 C 
ATOM      6  O   LIG    1       26.010 -23.135   6.705  0.00  0.00    -0.331 OA
ENDROOT
BRANCH   2   7
ATOM      7  O   LIG    1       25.701 -20.380   8.702  0.00  0.00    -0.383 OA
ATOM      8  H   LIG    1       26.491 -20.088   9.198  0.00  0.00    +0.210 HD
ENDBRANCH   2   7
BRANCH   3   9
ATOM      9  O   LIG    1       25.323 -20.910   5.088  0.00  0.00    -0.386 OA
ATOM     10  H   LIG    1       25.376 -20.025   4.678  0.00  0.00    +0.210 HD
ENDBRANCH   3   9
BRANCH   4  11
ATOM     11  O   LIG    1       23.207 -21.434   8.054  0.00  0.00    -0.387 OA
ATOM     12  H   LIG    1       23.806 -21.548   8.823  0.00  0.00    +0.210 HD
ENDBRANCH   4  11
BRANCH   1  13
ATOM     13  O   LIG    1       28.103 -22.086   6.851  0.00  0.00    -0.457 OA
BRANCH  13  20
ATOM     14  O   LIG    1       32.396 -16.140   8.990  0.00  0.00    -0.245 OA
ATOM     15  C   LIG    1       31.746 -17.172   8.829  0.00  0.00    +0.337 C 
ATOM     16  O   LIG    1       30.967 -17.393   7.703  0.00  0.00    -0.422 OA
ATOM     17  C   LIG    1       30.253 -18.596   7.537  0.00  0.00    +0.143 A 
ATOM     18  C   LIG    1       30.282 -19.583   8.518  0.00  0.00    +0.021 A 
ATOM     19  C   LIG    1       29.560 -20.766   8.328  0.00  0.00    +0.061 A 
ATOM     20  C   LIG    1       28.854 -20.976   7.140  0.00  0.00    +0.166 A 
ATOM     21  C   LIG    1       28.837 -19.957   6.175  0.00  0.00    +0.162 A 
ATOM     22  C   LIG    1       31.075 -19.367   9.718  0.00  0.00    +0.019 C 
ATOM     23  C   LIG    1       29.526 -18.763   6.364  0.00  0.00    +0.096 A 
ATOM     24  C   LIG    1       31.767 -18.232   9.851  0.00  0.00    +0.092 C 
BRANCH  21  25
ATOM     25  O   LIG    1       28.151 -20.117   5.003  0.00  0.00    -0.503 OA
ATOM     26  H   LIG    1       28.807 -20.026   4.288  0.00  0.00    +0.292 HD
ENDBRANCH  21  25
ENDBRANCH  13  20
ENDBRANCH   1  13
BRANCH   5  27
ATOM     27  C   LIG    1       23.936 -24.357   6.549  0.00  0.00    +0.190 C 
BRANCH  27  28
ATOM     28  O   LIG    1       22.522 -24.164   6.577  0.00  0.00    -0.392 OA
ATOM     29  H   LIG    1       22.317 -23.665   7.389  0.00  0.00    +0.209 HD
ENDBRANCH  27  28
ENDBRANCH   5  27
TORSDOF 8
ENDMDL
MODEL 3
REMARK VINA RESULT:      -8.0      2.191      8.058
REMARK  Name = *****
REMARK                            x       y       z     vdW  Elec       q    Type
REMARK                         _______ _______ _______ _____ _____    ______ ____
ROOT
ATOM      1  C   LIG    1       27.417 -21.784   7.636  0.00  0.00    +0.339 C 
ATOM      2  C   LIG    1       26.534 -20.504   7.637  0.00  0.00    +0.214 C 
ATOM      3  C   LIG    1       25.342 -20.667   6.681  0.00  0.00    +0.180 C 
ATOM      4  C   LIG    1       24.550 -21.942   7.037  0.00  0.00    +0.177 C 
ATOM      5  C   LIG    1       25.495 -23.133   7.306  0.00  0.00    +0.179 C 
ATOM      6  O   LIG    1       26.831 -22.838   6.850  0.00  0.00    -0.331 OA
ENDROOT
BRANCH   2   7
ATOM      7  O   LIG    1       26.008 -20.284   8.965  0.00  0.00    -0.383 OA
ATOM      8  H   LIG    1       26.727 -19.890   9.495  0.00  0.00    +0.210 HD
ENDBRANCH   2   7
BRANCH   3   9
ATOM      9  O   LIG    1       25.785 -20.690   5.322  0.00  0.00    -0.386 OA
ATOM     10  H   LIG    1       25.538 -21.553   4.938  0.00  0.00    +0.210 HD
ENDBRANCH   3   9
BRANCH   4  11
ATOM     11  O   LIG    1       23.750 -21.728   8.208  0.00  0.00    -0.387 OA
ATOM     12  H   LIG    1       23.026 -21.113   7.962  0.00  0.00    +0.210 HD
ENDBRANCH   4  11
BRANCH   1  13
ATOM     13  O   LIG    1       28.702 -21.445   7.095  0.00  0.00    -0.457 OA
BRANCH  13  20
ATOM     14  O   LIG    1       32.861 -16.445  11.103  0.00  0.00    -0.245 OA
ATOM     15  C   LIG    1       32.083 -17.089  10.400  0.00  0.00    +0.337 C 
ATOM     16  O   LIG    1       32.247 -18.445  10.160  0.00  0.00    -0.422 OA
ATOM     17  C   LIG    1       31.325 -19.160   9.369  0.00  0.00    +0.143 A 
ATOM     18  C   LIG    1       30.243 -18.514   8.777  0.00  0.00    +0.021 A 
ATOM     19  C   LIG    1       29.347 -19.248   7.993  0.00  0.00    +0.061 A 
ATOM     20  C   LIG    1       29.509 -20.629   7.846  0.00  0.00    +0.166 A 
ATOM     21  C   LIG    1       30.615 -21.247   8.449  0.00  0.00    +0.162 A 
ATOM     22  C   LIG    1       30.061 -17.088   8.996  0.00  0.00    +0.019 C 
ATOM     23  C   LIG    1       31.532 -20.524   9.206  0.00  0.00    +0.096 A 
ATOM     24  C   LIG    1       30.928 -16.428   9.769  0.00  0.00    +0.092 C 
BRANCH  21  25
ATOM     25  O   LIG    1       30.817 -22.594   8.322  0.00  0.00    -0.503 OA
ATOM     26  H   LIG    1       31.024 -22.751   7.382  0.00  0.00    +0.292 HD
ENDBRANCH  21  25
ENDBRANCH  13  20
ENDBRANCH   1  13
BRANCH   5  27
ATOM     27  C   LIG    1       25.010 -24.397   6.586  0.00  0.00    +0.190 C 
BRANCH  27  28
ATOM     28  O   LIG    1       23.608 -24.318   6.326  0.00  0.00    -0.392 OA
ATOM     29  H   LIG    1       23.261 -25.229   6.345  0.00  0.00    +0.209 HD
ENDBRANCH  27  28
ENDBRANCH   5  27
TORSDOF 8
ENDMDL
MODEL 4
REMARK VINA RESULT:      -7.9      3.817      8.391
REMARK  Name = *****
REMARK                            x       y       z     vdW  Elec       q    Type
REMARK                         _______ _______ _______ _____ _____    ______ ____
ROOT
ATOM      1  C   LIG    1       24.519 -28.876   6.250  0.00  0.00    +0.339 C 
ATOM      2  C   LIG    1       24.319 -30.197   5.454  0.00  0.00    +0.214 C 
ATOM      3  C   LIG    1       25.387 -31.231   5.841  0.00  0.00    +0.180 C 
ATOM      4  C   LIG    1       25.385 -31.446   7.368  0.00  0.00    +0.177 C 
ATOM      5  C   LIG    1       25.299 -30.103   8.124  0.00  0.00    +0.179 C 
ATOM      6  O   LIG    1       25.563 -28.998   7.234  0.00  0.00    -0.331 OA
ENDROOT
BRANCH   2   7
ATOM      7  O   LIG    1       23.026 -30.758   5.772  0.00  0.00    -0.383 OA
ATOM      8  H   LIG    1       22.998 -30.878   6.741  0.00  0.00    +0.210 HD
ENDBRANCH   2   7
BRANCH   3   9
ATOM      9  O   LIG    1       26.675 -30.824   5.373  0.00  0.00    -0.386 OA
ATOM     10  H   LIG    1       27.182 -30.485   6.135  0.00  0.00    +0.210 HD
ENDBRANCH   3   9
BRANCH   4  11
ATOM     11  O   LIG    1       24.270 -32.256   7.761  0.00  0.00    -0.387 OA
ATOM     12  H   LIG    1       23.453 -31.793   7.475  0.00  0.00    +0.210 HD
ENDBRANCH   4  11
BRANCH   1  13
ATOM     13  O   LIG    1       24.861 -27.837   5.321  0.00  0.00    -0.457 OA
BRANCH  13  20
ATOM     14  O   LIG    1       24.505 -20.662   7.922  0.00  0.00    -0.245 OA
ATOM     15  C   LIG    1       24.362 -21.802   7.483  0.00  0.00    +0.337 C 
ATOM     16  O   LIG    1       25.437 -22.627   7.188  0.00  0.00    -0.422 OA
ATOM     17  C   LIG    1       25.239 -23.937   6.709  0.00  0.00    +0.143 A 
ATOM     18  C   LIG    1       23.955 -24.428   6.485  0.00  0.00    +0.021 A 
ATOM     19  C   LIG    1       23.790 -25.731   6.005  0.00  0.00    +0.061 A 
ATOM     20  C   LIG    1       24.903 -26.552   5.799  0.00  0.00    +0.166 A 
ATOM     21  C   LIG    1       26.183 -26.023   6.025  0.00  0.00    +0.162 A 
ATOM     22  C   LIG    1       22.811 -23.576   6.767  0.00  0.00    +0.019 C 
ATOM     23  C   LIG    1       26.365 -24.719   6.473  0.00  0.00    +0.096 A 
ATOM     24  C   LIG    1       23.013 -22.344   7.245  0.00  0.00    +0.092 C 
BRANCH  21  25
ATOM     25  O   LIG    1       27.299 -26.788   5.826  0.00  0.00    -0.503 OA
ATOM     26  H   LIG    1       27.266 -27.497   6.494  0.00  0.00    +0.292 HD
ENDBRANCH  21  25
ENDBRANCH  13  20
ENDBRANCH   1  13
BRANCH   5  27
ATOM     27  C   LIG    1       26.314 -30.047   9.272  0.00  0.00    +0.190 C 
BRANCH  27  28
ATOM     28  O   LIG    1       27.224 -28.963   9.082  0.00  0.00    -0.392 OA
ATOM     29  H   LIG    1       28.075 -29.230   9.478  0.00  0.00    +0.209 HD
ENDBRANCH  27  28
ENDBRANCH   5  27
TORSDOF 8
ENDMDL
MODEL 5
REMARK VINA RESULT:      -7.6      2.937      5.043
REMARK  Name = *****
REMARK                            x       y       z     vdW  Elec       q    Type
REMARK                         _______ _______ _______ _____ _____    ______ ____
ROOT
ATOM      1  C   LIG    1       25.474 -23.469   7.091  0.00  0.00    +0.339 C 
ATOM      2  C   LIG    1       26.427 -22.397   7.690  0.00  0.00    +0.214 C 
ATOM      3  C   LIG    1       26.241 -21.048   6.978  0.00  0.00    +0.180 C 
ATOM      4  C   LIG    1       24.758 -20.625   7.025  0.00  0.00    +0.177 C 
ATOM      5  C   LIG    1       23.826 -21.811   6.692  0.00  0.00    +0.179 C 
ATOM      6  O   LIG    1       24.574 -22.904   6.120  0.00  0.00    -0.331 OA
ENDROOT
BRANCH   2   7
ATOM      7  O   LIG    1       26.115 -22.204   9.088  0.00  0.00    -0.383 OA
ATOM      8  H   LIG    1       26.336 -21.277   9.304  0.00  0.00    +0.210 HD
ENDBRANCH   2   7
BRANCH   3   9
ATOM      9  O   LIG    1       26.722 -21.118   5.634  0.00  0.00    -0.386 OA
ATOM     10  H   LIG    1       26.311 -21.893   5.205  0.00  0.00    +0.210 HD
ENDBRANCH   3   9
BRANCH   4  11
ATOM     11  O   LIG    1       24.415 -20.134   8.327  0.00  0.00    -0.387 OA
ATOM     12  H   LIG    1       23.620 -19.568   8.229  0.00  0.00    +0.210 HD
ENDBRANCH   4  11
BRANCH   1  13
ATOM     13  O   LIG    1       26.273 -24.484   6.465  0.00  0.00    -0.457 OA
BRANCH  13  20
ATOM     14  O   LIG    1       23.560 -31.626   6.436  0.00  0.00    -0.245 OA
ATOM     15  C   LIG    1       24.092 -30.530   6.611  0.00  0.00    +0.337 C 
ATOM     16  O   LIG    1       24.001 -29.503   5.684  0.00  0.00    -0.422 OA
ATOM     17  C   LIG    1       24.602 -28.251   5.924  0.00  0.00    +0.143 A 
ATOM     18  C   LIG    1       25.334 -28.023   7.087  0.00  0.00    +0.021 A 
ATOM     19  C   LIG    1       25.922 -26.772   7.296  0.00  0.00    +0.061 A 
ATOM     20  C   LIG    1       25.736 -25.742   6.369  0.00  0.00    +0.166 A 
ATOM     21  C   LIG    1       25.000 -26.007   5.204  0.00  0.00    +0.162 A 
ATOM     22  C   LIG    1       25.461 -29.091   8.065  0.00  0.00    +0.019 C 
ATOM     23  C   LIG    1       24.435 -27.256   4.967  0.00  0.00    +0.096 A 
ATOM     24  C   LIG    1       24.866 -30.265   7.836  0.00  0.00    +0.092 C 
BRANCH  21  25
ATOM     25  O   LIG    1       24.802 -25.032   4.267  0.00  0.00    -0.503 OA
ATOM     26  H   LIG    1       24.534 -25.489   3.449  0.00  0.00    +0.292 HD
ENDBRANCH  21  25
ENDBRANCH  13  20
ENDBRANCH   1  13
BRANCH   5  27
ATOM     27  C   LIG    1       22.740 -21.397   5.693  0.00  0.00    +0.190 C 
BRANCH  27  28
ATOM     28  O   LIG    1       22.584 -19.978   5.683  0.00  0.00    -0.392 OA
ATOM     29  H   LIG    1       23.442 -19.597   5.420  0.00  0.00    +0.209 HD
ENDBRANCH  27  28
ENDBRANCH   5  27
TORSDOF 8
ENDMDL
MODEL 6
REMARK VINA RESULT:      -7.5      2.645      7.129
REMARK  Name = *****
REMARK                            x       y       z     vdW  Elec       q    Type
REMARK                         _______ _______ _______ _____ _____    ______ ____
ROOT
ATOM      1  C   LIG    1       24.921 -22.810   6.072  0.00  0.00    +0.339 C 
ATOM      2  C   LIG    1       23.573 -22.876   6.845  0.00  0.00    +0.214 C 
ATOM      3  C   LIG    1       22.888 -21.501   6.860  0.00  0.00    +0.180 C 
ATOM      4  C   LIG    1       22.727 -20.976   5.418  0.00  0.00    +0.177 C 
ATOM      5  C   LIG    1       24.016 -21.190   4.596  0.00  0.00    +0.179 C 
ATOM      6  O   LIG    1       25.123 -21.524   5.458  0.00  0.00    -0.331 OA
ENDROOT
BRANCH   2   7
ATOM      7  O   LIG    1       22.685 -23.804   6.184  0.00  0.00    -0.383 OA
ATOM      8  H   LIG    1       22.231 -23.308   5.474  0.00  0.00    +0.210 HD
ENDBRANCH   2   7
BRANCH   3   9
ATOM      9  O   LIG    1       23.623 -20.581   7.671  0.00  0.00    -0.386 OA
ATOM     10  H   LIG    1       24.220 -20.073   7.089  0.00  0.00    +0.210 HD
ENDBRANCH   3   9
BRANCH   4  11
ATOM     11  O   LIG    1       21.651 -21.651   4.754  0.00  0.00    -0.387 OA
ATOM     12  H   LIG    1       22.022 -22.457   4.335  0.00  0.00    +0.210 HD
ENDBRANCH   4  11
BRANCH   1  13
ATOM     13  O   LIG    1       25.986 -23.068   6.999  0.00  0.00    -0.457 OA
BRANCH  13  20
ATOM     14  O   LIG    1       30.912 -17.374   8.296  0.00  0.00    -0.245 OA
ATOM     15  C   LIG    1       30.235 -18.332   7.927  0.00  0.00    +0.337 C 
ATOM     16  O   LIG    1       29.167 -18.818   8.666  0.00  0.00    -0.422 OA
ATOM     17  C   LIG    1       28.395 -19.903   8.205  0.00  0.00    +0.143 A 
ATOM     18  C   LIG    1       28.709 -20.542   7.007  0.00  0.00    +0.021 A 
ATOM     19  C   LIG    1       27.928 -21.619   6.576  0.00  0.00    +0.061 A 
ATOM     20  C   LIG    1       26.813 -22.021   7.317  0.00  0.00    +0.166 A 
ATOM     21  C   LIG    1       26.530 -21.362   8.524  0.00  0.00    +0.162 A 
ATOM     22  C   LIG    1       29.837 -20.065   6.224  0.00  0.00    +0.019 C 
ATOM     23  C   LIG    1       27.316 -20.308   8.981  0.00  0.00    +0.096 A 
ATOM     24  C   LIG    1       30.544 -19.019   6.661  0.00  0.00    +0.092 C 
BRANCH  21  25
ATOM     25  O   LIG    1       25.455 -21.730   9.284  0.00  0.00    -0.503 OA
ATOM     26  H   LIG    1       24.712 -21.853   8.665  0.00  0.00    +0.292 HD
ENDBRANCH  21  25
ENDBRANCH  13  20
ENDBRANCH   1  13
BRANCH   5  27
ATOM     27  C   LIG    1       24.386 -19.928   3.807  0.00  0.00    +0.190 C 
BRANCH  27  28
ATOM     28  O   LIG    1       25.804 -19.787   3.726  0.00  0.00    -0.392 OA
ATOM     29  H   LIG    1       26.022 -19.614   2.791  0.00  0.00    +0.209 HD
ENDBRANCH  27  28
ENDBRANCH   5  27
TORSDOF 8
ENDMDL
MODEL 7
REMARK VINA RESULT:      -7.4      3.815      5.252
REMARK  Name = *****
REMARK                            x       y       z     vdW  Elec       q    Type
REMARK                         _______ _______ _______ _____ _____    ______ ____
ROOT
ATOM      1  C   LIG    1       24.737 -23.252   5.941  0.00  0.00    +0.339 C 
ATOM      2  C   LIG    1       23.565 -22.909   6.902  0.00  0.00    +0.214 C 
ATOM      3  C   LIG    1       23.575 -21.415   7.260  0.00  0.00    +0.180 C 
ATOM      4  C   LIG    1       23.563 -20.564   5.973  0.00  0.00    +0.177 C 
ATOM      5  C   LIG    1       24.554 -21.116   4.926  0.00  0.00    +0.179 C 
ATOM      6  O   LIG    1       25.452 -22.073   5.526  0.00  0.00    -0.331 OA
ENDROOT
BRANCH   2   7
ATOM      7  O   LIG    1       22.308 -23.198   6.250  0.00  0.00    -0.383 OA
ATOM      8  H   LIG    1       22.373 -22.849   5.340  0.00  0.00    +0.210 HD
ENDBRANCH   2   7
BRANCH   3   9
ATOM      9  O   LIG    1       24.702 -21.101   8.082  0.00  0.00    -0.386 OA
ATOM     10  H   LIG    1       24.502 -21.388   8.994  0.00  0.00    +0.210 HD
ENDBRANCH   3   9
BRANCH   4  11
ATOM     11  O   LIG    1       22.253 -20.550   5.391  0.00  0.00    -0.387 OA
ATOM     12  H   LIG    1       21.932 -21.477   5.365  0.00  0.00    +0.210 HD
ENDBRANCH   4  11
BRANCH   1  13
ATOM     13  O   LIG    1       25.637 -24.137   6.623  0.00  0.00    -0.457 OA
BRANCH  13  20
ATOM     14  O   LIG    1       25.053 -31.711   5.809  0.00  0.00    -0.245 OA
ATOM     15  C   LIG    1       25.188 -30.532   6.134  0.00  0.00    +0.337 C 
ATOM     16  O   LIG    1       25.158 -29.498   5.211  0.00  0.00    -0.422 OA
ATOM     17  C   LIG    1       25.292 -28.155   5.618  0.00  0.00    +0.143 A 
ATOM     18  C   LIG    1       25.494 -27.834   6.957  0.00  0.00    +0.021 A 
ATOM     19  C   LIG    1       25.629 -26.493   7.331  0.00  0.00    +0.061 A 
ATOM     20  C   LIG    1       25.511 -25.480   6.375  0.00  0.00    +0.166 A 
ATOM     21  C   LIG    1       25.317 -25.839   5.032  0.00  0.00    +0.162 A 
ATOM     22  C   LIG    1       25.550 -28.902   7.943  0.00  0.00    +0.019 C 
ATOM     23  C   LIG    1       25.212 -27.170   4.640  0.00  0.00    +0.096 A 
ATOM     24  C   LIG    1       25.396 -30.168   7.546  0.00  0.00    +0.092 C 
BRANCH  21  25
ATOM     25  O   LIG    1       25.207 -24.881   4.062  0.00  0.00    -0.503 OA
ATOM     26  H   LIG    1       24.358 -25.043   3.613  0.00  0.00    +0.292 HD
ENDBRANCH  21  25
ENDBRANCH  13  20
ENDBRANCH   1  13
BRANCH   5  27
ATOM     27  C   LIG    1       25.393 -19.990   4.310  0.00  0.00    +0.190 C 
BRANCH  27  28
ATOM     28  O   LIG    1       26.768 -20.142   4.664  0.00  0.00    -0.392 OA
ATOM     29  H   LIG    1       27.248 -19.383   4.283  0.00  0.00    +0.209 HD
ENDBRANCH  27  28
ENDBRANCH   5  27
TORSDOF 8
ENDMDL
MODEL 8
REMARK VINA RESULT:      -7.3      3.392      4.699
REMARK  Name = *****
REMARK                            x       y       z     vdW  Elec       q    Type
REMARK                         _______ _______ _______ _____ _____    ______ ____
ROOT
ATOM      1  C   LIG    1       29.257 -20.654   8.213  0.00  0.00    +0.339 C 
ATOM      2  C   LIG    1       30.684 -21.209   8.484  0.00  0.00    +0.214 C 
ATOM      3  C   LIG    1       31.746 -20.136   8.201  0.00  0.00    +0.180 C 
ATOM      4  C   LIG    1       31.436 -18.860   9.011  0.00  0.00    +0.177 C 
ATOM      5  C   LIG    1       29.936 -18.501   8.941  0.00  0.00    +0.179 C 
ATOM      6  O   LIG    1       29.280 -19.250   7.896  0.00  0.00    -0.331 OA
ENDROOT
BRANCH   2   7
ATOM      7  O   LIG    1       30.797 -21.587   9.874  0.00  0.00    -0.383 OA
ATOM      8  H   LIG    1       29.933 -21.960  10.139  0.00  0.00    +0.210 HD
ENDBRANCH   2   7
BRANCH   3   9
ATOM      9  O   LIG    1       31.823 -19.859   6.801  0.00  0.00    -0.386 OA
ATOM     10  H   LIG    1       31.932 -20.707   6.329  0.00  0.00    +0.210 HD
ENDBRANCH   3   9
BRANCH   4  11
ATOM     11  O   LIG    1       31.793 -19.038  10.388  0.00  0.00    -0.387 OA
ATOM     12  H   LIG    1       31.025 -19.449  10.841  0.00  0.00    +0.210 HD
ENDBRANCH   4  11
BRANCH   1  13
ATOM     13  O   LIG    1       28.691 -21.380   7.112  0.00  0.00    -0.457 OA
BRANCH  13  20
ATOM     14  O   LIG    1       21.770 -19.410   4.546  0.00  0.00    -0.245 OA
ATOM     15  C   LIG    1       22.953 -19.648   4.786  0.00  0.00    +0.337 C 
ATOM     16  O   LIG    1       23.376 -20.164   6.002  0.00  0.00    -0.422 OA
ATOM     17  C   LIG    1       24.736 -20.448   6.238  0.00  0.00    +0.143 A 
ATOM     18  C   LIG    1       25.698 -20.183   5.266  0.00  0.00    +0.021 A 
ATOM     19  C   LIG    1       27.041 -20.471   5.530  0.00  0.00    +0.061 A 
ATOM     20  C   LIG    1       27.408 -21.066   6.741  0.00  0.00    +0.166 A 
ATOM     21  C   LIG    1       26.415 -21.311   7.702  0.00  0.00    +0.162 A 
ATOM     22  C   LIG    1       25.282 -19.622   3.991  0.00  0.00    +0.019 C 
ATOM     23  C   LIG    1       25.079 -21.001   7.466  0.00  0.00    +0.096 A 
ATOM     24  C   LIG    1       23.987 -19.382   3.771  0.00  0.00    +0.092 C 
BRANCH  21  25
ATOM     25  O   LIG    1       26.733 -21.881   8.904  0.00  0.00    -0.503 OA
ATOM     26  H   LIG    1       25.891 -22.174   9.297  0.00  0.00    +0.292 HD
ENDBRANCH  21  25
ENDBRANCH  13  20
ENDBRANCH   1  13
BRANCH   5  27
ATOM     27  C   LIG    1       29.737 -17.007   8.659  0.00  0.00    +0.190 C 
BRANCH  27  28
ATOM     28  O   LIG    1       30.253 -16.223   9.735  0.00  0.00    -0.392 OA
ATOM     29  H   LIG    1       29.495 -15.767  10.146  0.00  0.00    +0.209 HD
ENDBRANCH  27  28
ENDBRANCH   5  27
TORSDOF 8
ENDMDL
MODEL 9
REMARK VINA RESULT:      -7.3      1.594      2.163
REMARK  Name = *****
REMARK                            x       y       z     vdW  Elec       q    Type
REMARK                         _______ _______ _______ _____ _____    ______ ____
ROOT
ATOM      1  C   LIG    1       28.066 -20.382   7.891  0.00  0.00    +0.339 C 
ATOM      2  C   LIG    1       28.900 -20.768   6.637  0.00  0.00    +0.214 C 
ATOM      3  C   LIG    1       29.805 -19.603   6.208  0.00  0.00    +0.180 C 
ATOM      4  C   LIG    1       30.682 -19.151   7.395  0.00  0.00    +0.177 C 
ATOM      5  C   LIG    1       29.857 -19.052   8.696  0.00  0.00    +0.179 C 
ATOM      6  O   LIG    1       28.443 -19.093   8.409  0.00  0.00    -0.331 OA
ENDROOT
BRANCH   2   7
ATOM      7  O   LIG    1       29.749 -21.894   6.952  0.00  0.00    -0.383 OA
ATOM      8  H   LIG    1       29.703 -22.024   7.919  0.00  0.00    +0.210 HD
ENDBRANCH   2   7
BRANCH   3   9
ATOM      9  O   LIG    1       29.025 -18.521   5.694  0.00  0.00    -0.386 OA
ATOM     10  H   LIG    1       29.189 -17.737   6.253  0.00  0.00    +0.210 HD
ENDBRANCH   3   9
BRANCH   4  11
ATOM     11  O   LIG    1       31.754 -20.078   7.610  0.00  0.00    -0.387 OA
ATOM     12  H   LIG    1       31.473 -20.944   7.244  0.00  0.00    +0.210 HD
ENDBRANCH   4  11
BRANCH   1  13
ATOM     13  O   LIG    1       26.679 -20.359   7.522  0.00  0.00    -0.457 OA
BRANCH  13  20
ATOM     14  O   LIG    1       24.038 -27.022   4.878  0.00  0.00    -0.245 OA
ATOM     15  C   LIG    1       24.561 -26.061   5.440  0.00  0.00    +0.337 C 
ATOM     16  O   LIG    1       24.442 -24.765   4.963  0.00  0.00    -0.422 OA
ATOM     17  C   LIG    1       25.035 -23.682   5.643  0.00  0.00    +0.143 A 
ATOM     18  C   LIG    1       25.788 -23.890   6.796  0.00  0.00    +0.021 A 
ATOM     19  C   LIG    1       26.368 -22.797   7.448  0.00  0.00    +0.061 A 
ATOM     20  C   LIG    1       26.152 -21.500   6.973  0.00  0.00    +0.166 A 
ATOM     21  C   LIG    1       25.396 -21.325   5.804  0.00  0.00    +0.162 A 
ATOM     22  C   LIG    1       25.945 -25.243   7.305  0.00  0.00    +0.019 C 
ATOM     23  C   LIG    1       24.839 -22.406   5.127  0.00  0.00    +0.096 A 
ATOM     24  C   LIG    1       25.357 -26.258   6.664  0.00  0.00    +0.092 C 
BRANCH  21  25
ATOM     25  O   LIG    1       25.170 -20.074   5.300  0.00  0.00    -0.503 OA
ATOM     26  H   LIG    1       24.249 -19.851   5.528  0.00  0.00    +0.292 HD
ENDBRANCH  21  25
ENDBRANCH  13  20
ENDBRANCH   1  13
BRANCH   5  27
ATOM     27  C   LIG    1       30.157 -17.747   9.444  0.00  0.00    +0.190 C 
BRANCH  27  28
ATOM     28  O   LIG    1       30.136 -17.965  10.855  0.00  0.00    -0.392 OA
ATOM     29  H   LIG    1       30.350 -18.904  11.004  0.00  0.00    +0.209 HD
ENDBRANCH  27  28
ENDBRANCH   5  27
TORSDOF 8
ENDMDL
