MODEL 1
REMARK VINA RESULT:      -6.6      0.000      0.000
REMARK  Name = *****
REMARK                            x       y       z     vdW  Elec       q    Type
REMARK                         _______ _______ _______ _____ _____    ______ ____
ROOT
ATOM      1  C   LIG    1       28.101 -20.178   6.156  0.00  0.00    +0.025 A 
ATOM      2  C   LIG    1       29.314 -19.484   6.205  0.00  0.00    +0.024 A 
ATOM      3  C   LIG    1       30.288 -19.812   7.151  0.00  0.00    +0.030 A 
ATOM      4  C   LIG    1       30.066 -20.881   8.024  0.00  0.00    +0.105 A 
ATOM      5  C   LIG    1       28.887 -21.624   7.947  0.00  0.00    +0.030 A 
ATOM      6  C   LIG    1       27.920 -21.281   6.999  0.00  0.00    +0.024 A 
ENDROOT
BRANCH   1   7
ATOM      7  N   LIG    1       27.186 -19.922   5.129  0.00  0.00    -0.358 N 
ATOM      8  H   LIG    1       26.824 -18.973   5.129  0.00  0.00    +0.142 HD
ATOM      9  H   LIG    1       26.443 -20.612   5.060  0.00  0.00    +0.142 HD
ENDBRANCH   1   7
BRANCH   4  10
ATOM     10  S   LIG    1       31.299 -21.297   9.216  0.00  0.00    +0.056 S 
ATOM     11  O   LIG    1       30.676 -21.959  10.341  0.00  0.00    -0.153 OA
ATOM     12  O   LIG    1       32.191 -20.174   9.371  0.00  0.00    -0.153 OA
BRANCH  10  13
ATOM     13  N   LIG    1       32.181 -22.496   8.435  0.00  0.00    -0.203 NA
ATOM     14  H   LIG    1       31.988 -23.399   8.866  0.00  0.00    +0.144 HD
ATOM     15  H   LIG    1       33.171 -22.245   8.431  0.00  0.00    +0.144 HD
ENDBRANCH  10  13
ENDBRANCH   4  10
TORSDOF 3
ENDMDL
MODEL 2
REMARK VINA RESULT:      -6.6      1.885      2.520
REMARK  Name = *****
REMARK                            x       y       z     vdW  Elec       q    Type
REMARK                         _______ _______ _______ _____ _____    ______ ____
ROOT
ATOM      1  C   LIG    1       28.173 -19.944   5.796  0.00  0.00    +0.025 A 
ATOM      2  C   LIG    1       28.241 -20.733   6.949  0.00  0.00    +0.024 A 
ATOM      3  C   LIG    1       29.190 -20.471   7.940  0.00  0.00    +0.030 A 
ATOM      4  C   LIG    1       30.048 -19.378   7.798  0.00  0.00    +0.105 A 
ATOM      5  C   LIG    1       29.953 -18.544   6.683  0.00  0.00    +0.030 A 
ATOM      6  C   LIG    1       29.002 -18.820   5.698  0.00  0.00    +0.024 A 
ENDROOT
BRANCH   1   7
ATOM      7  N   LIG    1       27.142 -20.139   4.870  0.00  0.00    -0.358 N 
ATOM      8  H   LIG    1       26.253 -19.740   5.156  0.00  0.00    +0.142 HD
ATOM      9  H   LIG    1       27.044 -21.103   4.564  0.00  0.00    +0.142 HD
ENDBRANCH   1   7
BRANCH   4  10
ATOM     10  S   LIG    1       31.244 -19.045   9.054  0.00  0.00    +0.056 S 
ATOM     11  O   LIG    1       32.179 -20.145   9.128  0.00  0.00    -0.153 OA
ATOM     12  O   LIG    1       30.564 -18.522  10.213  0.00  0.00    -0.153 OA
BRANCH  10  13
ATOM     13  N   LIG    1       32.120 -17.767   8.404  0.00  0.00    -0.203 NA
ATOM     14  H   LIG    1       32.989 -18.117   8.002  0.00  0.00    +0.144 HD
ATOM     15  H   LIG    1       32.255 -17.048   9.116  0.00  0.00    +0.144 HD
ENDBRANCH  10  13
ENDBRANCH   4  10
TORSDOF 3
ENDMDL
MODEL 3
REMARK VINA RESULT:      -6.6      1.839      2.278
REMARK  Name = *****
REMARK                            x       y       z     vdW  Elec       q    Type
REMARK                         _______ _______ _______ _____ _____    ______ ____
ROOT
ATOM      1  C   LIG    1       28.067 -19.907   5.887  0.00  0.00    +0.025 A 
ATOM      2  C   LIG    1       28.926 -18.824   5.674  0.00  0.00    +0.024 A 
ATOM      3  C   LIG    1       29.956 -18.540   6.574  0.00  0.00    +0.030 A 
ATOM      4  C   LIG    1       30.159 -19.378   7.673  0.00  0.00    +0.105 A 
ATOM      5  C   LIG    1       29.350 -20.499   7.867  0.00  0.00    +0.030 A 
ATOM      6  C   LIG    1       28.322 -20.768   6.961  0.00  0.00    +0.024 A 
ENDROOT
BRANCH   1   7
ATOM      7  N   LIG    1       27.119 -20.254   4.918  0.00  0.00    -0.358 N 
ATOM      8  H   LIG    1       26.162 -20.041   5.186  0.00  0.00    +0.142 HD
ATOM      9  H   LIG    1       27.215 -21.204   4.574  0.00  0.00    +0.142 HD
ENDBRANCH   1   7
BRANCH   4  10
ATOM     10  S   LIG    1       31.464 -19.020   8.807  0.00  0.00    +0.056 S 
ATOM     11  O   LIG    1       32.166 -17.834   8.373  0.00  0.00    -0.153 OA
ATOM     12  O   LIG    1       32.143 -20.250   9.134  0.00  0.00    -0.153 OA
BRANCH  10  13
ATOM     13  N   LIG    1       30.635 -18.557  10.194  0.00  0.00    -0.203 NA
ATOM     14  H   LIG    1       30.742 -17.554  10.338  0.00  0.00    +0.144 HD
ATOM     15  H   LIG    1       30.947 -19.122  10.984  0.00  0.00    +0.144 HD
ENDBRANCH  10  13
ENDBRANCH   4  10
TORSDOF 3
ENDMDL
MODEL 4
REMARK VINA RESULT:      -6.2      5.459      6.441
REMARK  Name = *****
REMARK                            x       y       z     vdW  Elec       q    Type
REMARK                         _______ _______ _______ _____ _____    ______ ____
ROOT
ATOM      1  C   LIG    1       24.368 -25.341   6.350  0.00  0.00    +0.025 A 
ATOM      2  C   LIG    1       23.306 -24.441   6.486  0.00  0.00    +0.024 A 
ATOM      3  C   LIG    1       23.529 -23.131   6.916  0.00  0.00    +0.030 A 
ATOM      4  C   LIG    1       24.836 -22.702   7.164  0.00  0.00    +0.105 A 
ATOM      5  C   LIG    1       25.913 -23.569   6.972  0.00  0.00    +0.030 A 
ATOM      6  C   LIG    1       25.674 -24.878   6.547  0.00  0.00    +0.024 A 
ENDROOT
BRANCH   1   7
ATOM      7  N   LIG    1       24.148 -26.610   5.803  0.00  0.00    -0.358 N 
ATOM      8  H   LIG    1       24.690 -27.347   6.245  0.00  0.00    +0.142 HD
ATOM      9  H   LIG    1       24.223 -26.639   4.790  0.00  0.00    +0.142 HD
ENDBRANCH   1   7
BRANCH   4  10
ATOM     10  S   LIG    1       25.117 -21.045   7.703  0.00  0.00    +0.056 S 
ATOM     11  O   LIG    1       23.850 -20.413   7.993  0.00  0.00    -0.153 OA
ATOM     12  O   LIG    1       26.109 -20.443   6.846  0.00  0.00    -0.153 OA
BRANCH  10  13
ATOM     13  N   LIG    1       25.853 -21.260   9.198  0.00  0.00    -0.203 NA
ATOM     14  H   LIG    1       25.222 -20.954   9.938  0.00  0.00    +0.144 HD
ATOM     15  H   LIG    1       26.758 -20.786   9.206  0.00  0.00    +0.144 HD
ENDBRANCH  10  13
ENDBRANCH   4  10
TORSDOF 3
ENDMDL
MODEL 5
REMARK VINA RESULT:      -6.2      5.469      6.380
REMARK  Name = *****
REMARK                            x       y       z     vdW  Elec       q    Type
REMARK                         _______ _______ _______ _____ _____    ______ ____
ROOT
ATOM      1  C   LIG    1       24.395 -25.334   6.280  0.00  0.00    +0.025 A 
ATOM      2  C   LIG    1       25.686 -24.894   6.591  0.00  0.00    +0.024 A 
ATOM      3  C   LIG    1       25.913 -23.580   7.008  0.00  0.00    +0.030 A 
ATOM      4  C   LIG    1       24.829 -22.712   7.164  0.00  0.00    +0.105 A 
ATOM      5  C   LIG    1       23.528 -23.153   6.918  0.00  0.00    +0.030 A 
ATOM      6  C   LIG    1       23.317 -24.468   6.497  0.00  0.00    +0.024 A 
ENDROOT
BRANCH   1   7
ATOM      7  N   LIG    1       24.165 -26.681   5.982  0.00  0.00    -0.358 N 
ATOM      8  H   LIG    1       24.846 -27.082   5.344  0.00  0.00    +0.142 HD
ATOM      9  H   LIG    1       23.211 -26.879   5.693  0.00  0.00    +0.142 HD
ENDBRANCH   1   7
BRANCH   4  10
ATOM     10  S   LIG    1       25.117 -21.053   7.696  0.00  0.00    +0.056 S 
ATOM     11  O   LIG    1       23.852 -20.414   7.981  0.00  0.00    -0.153 OA
ATOM     12  O   LIG    1       26.113 -20.459   6.838  0.00  0.00    -0.153 OA
BRANCH  10  13
ATOM     13  N   LIG    1       25.850 -21.264   9.193  0.00  0.00    -0.203 NA
ATOM     14  H   LIG    1       25.417 -22.050   9.678  0.00  0.00    +0.144 HD
ATOM     15  H   LIG    1       25.817 -20.388   9.717  0.00  0.00    +0.144 HD
ENDBRANCH  10  13
ENDBRANCH   4  10
TORSDOF 3
ENDMDL
MODEL 6
REMARK VINA RESULT:      -6.0      6.298      7.025
REMARK  Name = *****
REMARK                            x       y       z     vdW  Elec       q    Type
REMARK                         _______ _______ _______ _____ _____    ______ ____
ROOT
ATOM      1  C   LIG    1       24.009 -22.264   7.241  0.00  0.00    +0.025 A 
ATOM      2  C   LIG    1       23.125 -23.263   6.817  0.00  0.00    +0.024 A 
ATOM      3  C   LIG    1       23.593 -24.536   6.480  0.00  0.00    +0.030 A 
ATOM      4  C   LIG    1       24.953 -24.827   6.617  0.00  0.00    +0.105 A 
ATOM      5  C   LIG    1       25.838 -23.861   7.098  0.00  0.00    +0.030 A 
ATOM      6  C   LIG    1       25.357 -22.591   7.426  0.00  0.00    +0.024 A 
ENDROOT
BRANCH   1   7
ATOM      7  N   LIG    1       23.516 -21.035   7.691  0.00  0.00    -0.358 N 
ATOM      8  H   LIG    1       23.838 -20.240   7.147  0.00  0.00    +0.142 HD
ATOM      9  H   LIG    1       23.635 -20.886   8.689  0.00  0.00    +0.142 HD
ENDBRANCH   1   7
BRANCH   4  10
ATOM     10  S   LIG    1       25.542 -26.437   6.195  0.00  0.00    +0.056 S 
ATOM     11  O   LIG    1       26.012 -27.104   7.389  0.00  0.00    -0.153 OA
ATOM     12  O   LIG    1       26.335 -26.339   4.995  0.00  0.00    -0.153 OA
BRANCH  10  13
ATOM     13  N   LIG    1       24.133 -27.247   5.765  0.00  0.00    -0.203 NA
ATOM     14  H   LIG    1       23.511 -27.304   6.571  0.00  0.00    +0.144 HD
ATOM     15  H   LIG    1       24.370 -28.155   5.363  0.00  0.00    +0.144 HD
ENDBRANCH  10  13
ENDBRANCH   4  10
TORSDOF 3
ENDMDL
MODEL 7
REMARK VINA RESULT:      -6.0      6.265      6.932
REMARK  Name = *****
REMARK                            x       y       z     vdW  Elec       q    Type
REMARK                         _______ _______ _______ _____ _____    ______ ____
ROOT
ATOM      1  C   LIG    1       24.016 -22.217   7.420  0.00  0.00    +0.025 A 
ATOM      2  C   LIG    1       25.377 -22.542   7.456  0.00  0.00    +0.024 A 
ATOM      3  C   LIG    1       25.818 -23.814   7.086  0.00  0.00    +0.030 A 
ATOM      4  C   LIG    1       24.894 -24.756   6.627  0.00  0.00    +0.105 A 
ATOM      5  C   LIG    1       23.542 -24.429   6.525  0.00  0.00    +0.030 A 
ATOM      6  C   LIG    1       23.113 -23.154   6.903  0.00  0.00    +0.024 A 
ENDROOT
BRANCH   1   7
ATOM      7  N   LIG    1       23.599 -20.906   7.675  0.00  0.00    -0.358 N 
ATOM      8  H   LIG    1       22.592 -20.780   7.632  0.00  0.00    +0.142 HD
ATOM      9  H   LIG    1       24.093 -20.206   7.129  0.00  0.00    +0.142 HD
ENDBRANCH   1   7
BRANCH   4  10
ATOM     10  S   LIG    1       25.455 -26.362   6.155  0.00  0.00    +0.056 S 
ATOM     11  O   LIG    1       26.018 -27.031   7.306  0.00  0.00    -0.153 OA
ATOM     12  O   LIG    1       26.154 -26.257   4.898  0.00  0.00    -0.153 OA
BRANCH  10  13
ATOM     13  N   LIG    1       24.021 -27.176   5.831  0.00  0.00    -0.203 NA
ATOM     14  H   LIG    1       23.761 -27.745   6.636  0.00  0.00    +0.144 HD
ATOM     15  H   LIG    1       24.118 -27.708   4.965  0.00  0.00    +0.144 HD
ENDBRANCH  10  13
ENDBRANCH   4  10
TORSDOF 3
ENDMDL
MODEL 8
REMARK VINA RESULT:      -5.8      3.115      3.585
REMARK  Name = *****
REMARK                            x       y       z     vdW  Elec       q    Type
REMARK                         _______ _______ _______ _____ _____    ______ ____
ROOT
ATOM      1  C   LIG    1       29.652 -20.428   7.404  0.00  0.00    +0.025 A 
ATOM      2  C   LIG    1       29.348 -19.081   7.182  0.00  0.00    +0.024 A 
ATOM      3  C   LIG    1       29.940 -18.077   7.952  0.00  0.00    +0.030 A 
ATOM      4  C   LIG    1       30.885 -18.422   8.921  0.00  0.00    +0.105 A 
ATOM      5  C   LIG    1       31.246 -19.756   9.114  0.00  0.00    +0.030 A 
ATOM      6  C   LIG    1       30.643 -20.749   8.340  0.00  0.00    +0.024 A 
ENDROOT
BRANCH   1   7
ATOM      7  N   LIG    1       29.148 -21.413   6.549  0.00  0.00    -0.358 N 
ATOM      8  H   LIG    1       28.674 -21.043   5.731  0.00  0.00    +0.142 HD
ATOM      9  H   LIG    1       28.593 -22.121   7.021  0.00  0.00    +0.142 HD
ENDBRANCH   1   7
BRANCH   4  10
ATOM     10  S   LIG    1       31.635 -17.151   9.891  0.00  0.00    +0.056 S 
ATOM     11  O   LIG    1       32.607 -17.740  10.785  0.00  0.00    -0.153 OA
ATOM     12  O   LIG    1       30.607 -16.248  10.345  0.00  0.00    -0.153 OA
BRANCH  10  13
ATOM     13  N   LIG    1       32.540 -16.304   8.756  0.00  0.00    -0.203 NA
ATOM     14  H   LIG    1       31.985 -16.161   7.913  0.00  0.00    +0.144 HD
ATOM     15  H   LIG    1       33.423 -16.789   8.591  0.00  0.00    +0.144 HD
ENDBRANCH  10  13
ENDBRANCH   4  10
TORSDOF 3
ENDMDL
MODEL 9
REMARK VINA RESULT:      -5.8      6.337      6.757
REMARK  Name = *****
REMARK                            x       y       z     vdW  Elec       q    Type
REMARK                         _______ _______ _______ _____ _____    ______ ____
ROOT
ATOM      1  C   LIG    1       23.351 -19.690   4.674  0.00  0.00    +0.025 A 
ATOM      2  C   LIG    1       24.150 -20.580   3.948  0.00  0.00    +0.024 A 
ATOM      3  C   LIG    1       24.477 -21.834   4.469  0.00  0.00    +0.030 A 
ATOM      4  C   LIG    1       23.958 -22.222   5.706  0.00  0.00    +0.105 A 
ATOM      5  C   LIG    1       23.109 -21.371   6.415  0.00  0.00    +0.030 A 
ATOM      6  C   LIG    1       22.794 -20.117   5.885  0.00  0.00    +0.024 A 
ENDROOT
BRANCH   1   7
ATOM      7  N   LIG    1       22.930 -18.489   4.092  0.00  0.00    -0.358 N 
ATOM      8  H   LIG    1       22.296 -17.951   4.676  0.00  0.00    +0.142 HD
ATOM      9  H   LIG    1       22.578 -18.594   3.145  0.00  0.00    +0.142 HD
ENDBRANCH   1   7
BRANCH   4  10
ATOM     10  S   LIG    1       24.369 -23.809   6.361  0.00  0.00    +0.056 S 
ATOM     11  O   LIG    1       23.158 -24.493   6.758  0.00  0.00    -0.153 OA
ATOM     12  O   LIG    1       25.506 -23.668   7.237  0.00  0.00    -0.153 OA
BRANCH  10  13
ATOM     13  N   LIG    1       24.917 -24.639   5.006  0.00  0.00    -0.203 NA
ATOM     14  H   LIG    1       25.930 -24.544   4.933  0.00  0.00    +0.144 HD
ATOM     15  H   LIG    1       24.413 -24.316   4.179  0.00  0.00    +0.144 HD
ENDBRANCH  10  13
ENDBRANCH   4  10
TORSDOF 3
ENDMDL
