MODEL 1
REMARK VINA RESULT:      -8.4      0.000      0.000
REMARK  Name = *****
REMARK                            x       y       z     vdW  Elec       q    Type
REMARK                         _______ _______ _______ _____ _____    ______ ____
ROOT
ATOM      1  N   LIG    1       25.004 -21.155   6.755  0.00  0.00    -0.298 N 
ATOM      2  C   LIG    1       24.227 -20.453   5.791  0.00  0.00    +0.048 A 
ATOM      3  C   LIG    1       24.822 -19.782   4.706  0.00  0.00    +0.034 A 
ATOM      4  C   LIG    1       24.029 -19.090   3.774  0.00  0.00    +0.017 A 
ATOM      5  C   LIG    1       22.644 -19.038   3.915  0.00  0.00    +0.001 A 
ATOM      6  C   LIG    1       22.043 -19.674   4.991  0.00  0.00    +0.002 A 
ATOM      7  S   LIG    1       26.578 -19.812   4.399  0.00  0.00    -0.086 S 
ATOM      8  C   LIG    1       27.207 -20.347   5.977  0.00  0.00    +0.034 A 
ATOM      9  C   LIG    1       28.583 -20.166   6.205  0.00  0.00    +0.017 A 
ATOM     10  C   LIG    1       29.163 -20.553   7.410  0.00  0.00    +0.001 A 
ATOM     11  C   LIG    1       28.371 -21.111   8.401  0.00  0.00    +0.002 A 
ATOM     12  C   LIG    1       27.004 -21.301   8.177  0.00  0.00    +0.024 A 
ATOM     13  C   LIG    1       22.826 -20.367   5.920  0.00  0.00    +0.024 A 
ATOM     14  C   LIG    1       26.395 -20.955   6.953  0.00  0.00    +0.048 A 
ENDROOT
BRANCH   1  15
ATOM     15  C   LIG    1       24.475 -22.482   7.166  0.00  0.00    +0.116 C 
BRANCH  15  19
ATOM     16  C   LIG    1       24.169 -27.178   5.833  0.00  0.00    +0.105 C 
ATOM     17  N   LIG    1       24.749 -25.855   5.665  0.00  0.00    -0.305 NA
ATOM     18  C   LIG    1       23.952 -24.801   6.291  0.00  0.00    +0.089 C 
ATOM     19  C   LIG    1       24.918 -23.624   6.243  0.00  0.00    +0.022 C 
ATOM     20  C   LIG    1       26.256 -24.273   6.603  0.00  0.00    +0.021 C 
ATOM     21  C   LIG    1       26.091 -25.749   6.246  0.00  0.00    +0.084 C 
ENDBRANCH  15  19
ENDBRANCH   1  15
TORSDOF 2
ENDMDL
MODEL 2
REMARK VINA RESULT:      -7.6      1.790      4.872
REMARK  Name = *****
REMARK                            x       y       z     vdW  Elec       q    Type
REMARK                         _______ _______ _______ _____ _____    ______ ____
ROOT
ATOM      1  N   LIG    1       25.157 -21.418   6.069  0.00  0.00    -0.298 N 
ATOM      2  C   LIG    1       24.178 -20.612   5.423  0.00  0.00    +0.048 A 
ATOM      3  C   LIG    1       22.837 -21.026   5.306  0.00  0.00    +0.034 A 
ATOM      4  C   LIG    1       21.894 -20.211   4.656  0.00  0.00    +0.017 A 
ATOM      5  C   LIG    1       22.269 -18.990   4.099  0.00  0.00    +0.001 A 
ATOM      6  C   LIG    1       23.591 -18.578   4.184  0.00  0.00    +0.002 A 
ATOM      7  S   LIG    1       22.231 -22.545   6.013  0.00  0.00    -0.086 S 
ATOM      8  C   LIG    1       23.747 -23.436   6.297  0.00  0.00    +0.034 A 
ATOM      9  C   LIG    1       23.634 -24.817   6.543  0.00  0.00    +0.017 A 
ATOM     10  C   LIG    1       24.765 -25.594   6.774  0.00  0.00    +0.001 A 
ATOM     11  C   LIG    1       26.019 -25.003   6.747  0.00  0.00    +0.002 A 
ATOM     12  C   LIG    1       26.136 -23.630   6.510  0.00  0.00    +0.024 A 
ATOM     13  C   LIG    1       24.533 -19.382   4.833  0.00  0.00    +0.024 A 
ATOM     14  C   LIG    1       25.007 -22.809   6.311  0.00  0.00    +0.048 A 
ENDROOT
BRANCH   1  15
ATOM     15  C   LIG    1       26.087 -20.699   6.977  0.00  0.00    +0.116 C 
BRANCH  15  19
ATOM     16  C   LIG    1       30.843 -20.076   7.939  0.00  0.00    +0.105 C 
ATOM     17  N   LIG    1       29.779 -20.413   7.007  0.00  0.00    -0.305 NA
ATOM     18  C   LIG    1       28.523 -20.749   7.675  0.00  0.00    +0.089 C 
ATOM     19  C   LIG    1       27.547 -20.739   6.505  0.00  0.00    +0.022 C 
ATOM     20  C   LIG    1       28.005 -19.524   5.696  0.00  0.00    +0.021 C 
ATOM     21  C   LIG    1       29.467 -19.316   6.085  0.00  0.00    +0.084 C 
ENDBRANCH  15  19
ENDBRANCH   1  15
TORSDOF 2
ENDMDL
MODEL 3
REMARK VINA RESULT:      -7.3      1.071      1.482
REMARK  Name = *****
REMARK                            x       y       z     vdW  Elec       q    Type
REMARK                         _______ _______ _______ _____ _____    ______ ____
ROOT
ATOM      1  N   LIG    1       25.926 -22.015   6.945  0.00  0.00    -0.298 N 
ATOM      2  C   LIG    1       24.690 -21.654   6.339  0.00  0.00    +0.048 A 
ATOM      3  C   LIG    1       24.623 -20.715   5.293  0.00  0.00    +0.034 A 
ATOM      4  C   LIG    1       23.386 -20.373   4.719  0.00  0.00    +0.017 A 
ATOM      5  C   LIG    1       22.202 -20.941   5.185  0.00  0.00    +0.001 A 
ATOM      6  C   LIG    1       22.246 -21.850   6.232  0.00  0.00    +0.002 A 
ATOM      7  S   LIG    1       26.072 -19.955   4.585  0.00  0.00    -0.086 S 
ATOM      8  C   LIG    1       27.292 -20.274   5.843  0.00  0.00    +0.034 A 
ATOM      9  C   LIG    1       28.483 -19.528   5.775  0.00  0.00    +0.017 A 
ATOM     10  C   LIG    1       29.492 -19.709   6.716  0.00  0.00    +0.001 A 
ATOM     11  C   LIG    1       29.315 -20.626   7.741  0.00  0.00    +0.002 A 
ATOM     12  C   LIG    1       28.137 -21.376   7.809  0.00  0.00    +0.024 A 
ATOM     13  C   LIG    1       23.474 -22.197   6.804  0.00  0.00    +0.024 A 
ATOM     14  C   LIG    1       27.113 -21.243   6.848  0.00  0.00    +0.048 A 
ENDROOT
BRANCH   1  15
ATOM     15  C   LIG    1       26.115 -23.465   7.209  0.00  0.00    +0.116 C 
BRANCH  15  19
ATOM     16  C   LIG    1       24.501 -27.928   6.023  0.00  0.00    +0.105 C 
ATOM     17  N   LIG    1       24.371 -26.481   5.955  0.00  0.00    -0.305 NA
ATOM     18  C   LIG    1       25.136 -25.792   6.994  0.00  0.00    +0.089 C 
ATOM     19  C   LIG    1       25.080 -24.351   6.503  0.00  0.00    +0.022 C 
ATOM     20  C   LIG    1       25.273 -24.502   4.993  0.00  0.00    +0.021 C 
ATOM     21  C   LIG    1       24.834 -25.931   4.678  0.00  0.00    +0.084 C 
ENDBRANCH  15  19
ENDBRANCH   1  15
TORSDOF 2
ENDMDL
MODEL 4
REMARK VINA RESULT:      -7.2      1.742      5.649
REMARK  Name = *****
REMARK                            x       y       z     vdW  Elec       q    Type
REMARK                         _______ _______ _______ _____ _____    ______ ____
ROOT
ATOM      1  N   LIG    1       25.131 -22.730   7.032  0.00  0.00    -0.298 N 
ATOM      2  C   LIG    1       25.332 -24.032   6.496  0.00  0.00    +0.048 A 
ATOM      3  C   LIG    1       25.029 -24.338   5.156  0.00  0.00    +0.034 A 
ATOM      4  C   LIG    1       25.232 -25.637   4.657  0.00  0.00    +0.017 A 
ATOM      5  C   LIG    1       25.718 -26.649   5.481  0.00  0.00    +0.001 A 
ATOM      6  C   LIG    1       26.000 -26.372   6.811  0.00  0.00    +0.002 A 
ATOM      7  S   LIG    1       24.442 -23.118   3.997  0.00  0.00    -0.086 S 
ATOM      8  C   LIG    1       23.900 -21.820   5.091  0.00  0.00    +0.034 A 
ATOM      9  C   LIG    1       23.070 -20.829   4.535  0.00  0.00    +0.017 A 
ATOM     10  C   LIG    1       22.597 -19.776   5.315  0.00  0.00    +0.001 A 
ATOM     11  C   LIG    1       22.937 -19.713   6.657  0.00  0.00    +0.002 A 
ATOM     12  C   LIG    1       23.767 -20.692   7.213  0.00  0.00    +0.024 A 
ATOM     13  C   LIG    1       25.804 -25.081   7.311  0.00  0.00    +0.024 A 
ATOM     14  C   LIG    1       24.294 -21.748   6.440  0.00  0.00    +0.048 A 
ENDROOT
BRANCH   1  15
ATOM     15  C   LIG    1       26.222 -22.213   7.899  0.00  0.00    +0.116 C 
BRANCH  15  19
ATOM     16  C   LIG    1       30.613 -20.056   7.843  0.00  0.00    +0.105 C 
ATOM     17  N   LIG    1       29.509 -20.688   7.138  0.00  0.00    -0.305 NA
ATOM     18  C   LIG    1       28.640 -21.466   8.020  0.00  0.00    +0.089 C 
ATOM     19  C   LIG    1       27.446 -21.730   7.110  0.00  0.00    +0.022 C 
ATOM     20  C   LIG    1       27.271 -20.393   6.388  0.00  0.00    +0.021 C 
ATOM     21  C   LIG    1       28.640 -19.719   6.463  0.00  0.00    +0.084 C 
ENDBRANCH  15  19
ENDBRANCH   1  15
TORSDOF 2
ENDMDL
MODEL 5
REMARK VINA RESULT:      -6.6      1.525      4.614
REMARK  Name = *****
REMARK                            x       y       z     vdW  Elec       q    Type
REMARK                         _______ _______ _______ _____ _____    ______ ____
ROOT
ATOM      1  N   LIG    1       26.717 -20.648   6.559  0.00  0.00    -0.298 N 
ATOM      2  C   LIG    1       28.089 -20.433   6.869  0.00  0.00    +0.048 A 
ATOM      3  C   LIG    1       28.848 -19.440   6.222  0.00  0.00    +0.034 A 
ATOM      4  C   LIG    1       30.204 -19.255   6.545  0.00  0.00    +0.017 A 
ATOM      5  C   LIG    1       30.827 -20.062   7.495  0.00  0.00    +0.001 A 
ATOM      6  C   LIG    1       30.101 -21.061   8.125  0.00  0.00    +0.002 A 
ATOM      7  S   LIG    1       28.151 -18.321   5.022  0.00  0.00    -0.086 S 
ATOM      8  C   LIG    1       26.644 -19.163   4.584  0.00  0.00    +0.034 A 
ATOM      9  C   LIG    1       25.995 -18.732   3.413  0.00  0.00    +0.017 A 
ATOM     10  C   LIG    1       24.811 -19.332   2.992  0.00  0.00    +0.001 A 
ATOM     11  C   LIG    1       24.274 -20.376   3.728  0.00  0.00    +0.002 A 
ATOM     12  C   LIG    1       24.911 -20.804   4.898  0.00  0.00    +0.024 A 
ATOM     13  C   LIG    1       28.750 -21.246   7.811  0.00  0.00    +0.024 A 
ATOM     14  C   LIG    1       26.090 -20.190   5.371  0.00  0.00    +0.048 A 
ENDROOT
BRANCH   1  15
ATOM     15  C   LIG    1       25.819 -20.865   7.723  0.00  0.00    +0.116 C 
BRANCH  15  19
ATOM     16  C   LIG    1       25.695 -25.432   5.974  0.00  0.00    +0.105 C 
ATOM     17  N   LIG    1       25.273 -24.446   6.956  0.00  0.00    -0.305 NA
ATOM     18  C   LIG    1       26.140 -23.270   6.990  0.00  0.00    +0.089 C 
ATOM     19  C   LIG    1       25.311 -22.309   7.835  0.00  0.00    +0.022 C 
ATOM     20  C   LIG    1       23.892 -22.544   7.315  0.00  0.00    +0.021 C 
ATOM     21  C   LIG    1       23.918 -23.945   6.708  0.00  0.00    +0.084 C 
ENDBRANCH  15  19
ENDBRANCH   1  15
TORSDOF 2
ENDMDL
MODEL 6
REMARK VINA RESULT:      -6.0      5.388     10.110
REMARK  Name = *****
REMARK                            x       y       z     vdW  Elec       q    Type
REMARK                         _______ _______ _______ _____ _____    ______ ____
ROOT
ATOM      1  N   LIG    1       24.577 -30.811   7.181  0.00  0.00    -0.298 N 
ATOM      2  C   LIG    1       24.477 -30.720   8.597  0.00  0.00    +0.048 A 
ATOM      3  C   LIG    1       25.522 -31.138   9.443  0.00  0.00    +0.034 A 
ATOM      4  C   LIG    1       25.391 -31.042  10.839  0.00  0.00    +0.017 A 
ATOM      5  C   LIG    1       24.221 -30.552  11.414  0.00  0.00    +0.001 A 
ATOM      6  C   LIG    1       23.171 -30.158  10.597  0.00  0.00    +0.002 A 
ATOM      7  S   LIG    1       27.080 -31.743   8.824  0.00  0.00    -0.086 S 
ATOM      8  C   LIG    1       26.666 -32.133   7.135  0.00  0.00    +0.034 A 
ATOM      9  C   LIG    1       27.573 -32.946   6.432  0.00  0.00    +0.017 A 
ATOM     10  C   LIG    1       27.331 -33.304   5.109  0.00  0.00    +0.001 A 
ATOM     11  C   LIG    1       26.176 -32.863   4.481  0.00  0.00    +0.002 A 
ATOM     12  C   LIG    1       25.275 -32.048   5.173  0.00  0.00    +0.024 A 
ATOM     13  C   LIG    1       23.297 -30.247   9.207  0.00  0.00    +0.024 A 
ATOM     14  C   LIG    1       25.511 -31.637   6.502  0.00  0.00    +0.048 A 
ENDROOT
BRANCH   1  15
ATOM     15  C   LIG    1       24.081 -29.634   6.422  0.00  0.00    +0.116 C 
BRANCH  15  19
ATOM     16  C   LIG    1       25.039 -24.880   5.777  0.00  0.00    +0.105 C 
ATOM     17  N   LIG    1       25.501 -26.239   6.011  0.00  0.00    -0.305 NA
ATOM     18  C   LIG    1       24.441 -27.126   6.486  0.00  0.00    +0.089 C 
ATOM     19  C   LIG    1       25.102 -28.492   6.341  0.00  0.00    +0.022 C 
ATOM     20  C   LIG    1       25.838 -28.367   5.005  0.00  0.00    +0.021 C 
ATOM     21  C   LIG    1       26.046 -26.867   4.804  0.00  0.00    +0.084 C 
ENDBRANCH  15  19
ENDBRANCH   1  15
TORSDOF 2
ENDMDL
MODEL 7
REMARK VINA RESULT:      -5.9      5.983      9.173
REMARK  Name = *****
REMARK                            x       y       z     vdW  Elec       q    Type
REMARK                         _______ _______ _______ _____ _____    ______ ____
ROOT
ATOM      1  N   LIG    1       24.317 -29.968   7.285  0.00  0.00    -0.298 N 
ATOM      2  C   LIG    1       24.796 -28.700   6.852  0.00  0.00    +0.048 A 
ATOM      3  C   LIG    1       25.712 -27.953   7.616  0.00  0.00    +0.034 A 
ATOM      4  C   LIG    1       26.162 -26.699   7.166  0.00  0.00    +0.017 A 
ATOM      5  C   LIG    1       25.697 -26.163   5.968  0.00  0.00    +0.001 A 
ATOM      6  C   LIG    1       24.775 -26.874   5.213  0.00  0.00    +0.002 A 
ATOM      7  S   LIG    1       26.408 -28.553   9.144  0.00  0.00    -0.086 S 
ATOM      8  C   LIG    1       25.278 -29.865   9.560  0.00  0.00    +0.034 A 
ATOM      9  C   LIG    1       25.327 -30.348  10.880  0.00  0.00    +0.017 A 
ATOM     10  C   LIG    1       24.480 -31.371  11.297  0.00  0.00    +0.001 A 
ATOM     11  C   LIG    1       23.567 -31.910  10.403  0.00  0.00    +0.002 A 
ATOM     12  C   LIG    1       23.519 -31.438   9.087  0.00  0.00    +0.024 A 
ATOM     13  C   LIG    1       24.327 -28.124   5.654  0.00  0.00    +0.024 A 
ATOM     14  C   LIG    1       24.391 -30.430   8.625  0.00  0.00    +0.048 A 
ENDROOT
BRANCH   1  15
ATOM     15  C   LIG    1       24.245 -31.022   6.239  0.00  0.00    +0.116 C 
BRANCH  15  19
ATOM     16  C   LIG    1       26.940 -33.824   3.269  0.00  0.00    +0.105 C 
ATOM     17  N   LIG    1       26.845 -32.765   4.261  0.00  0.00    -0.305 NA
ATOM     18  C   LIG    1       25.493 -32.225   4.391  0.00  0.00    +0.089 C 
ATOM     19  C   LIG    1       25.618 -31.402   5.667  0.00  0.00    +0.022 C 
ATOM     20  C   LIG    1       26.472 -32.300   6.564  0.00  0.00    +0.021 C 
ATOM     21  C   LIG    1       27.235 -33.210   5.603  0.00  0.00    +0.084 C 
ENDBRANCH  15  19
ENDBRANCH   1  15
TORSDOF 2
ENDMDL
MODEL 8
REMARK VINA RESULT:      -5.8      5.238      9.552
REMARK  Name = *****
REMARK                            x       y       z     vdW  Elec       q    Type
REMARK                         _______ _______ _______ _____ _____    ______ ____
ROOT
ATOM      1  N   LIG    1       25.597 -29.787   7.511  0.00  0.00    -0.298 N 
ATOM      2  C   LIG    1       25.544 -30.991   6.754  0.00  0.00    +0.048 A 
ATOM      3  C   LIG    1       25.466 -32.253   7.373  0.00  0.00    +0.034 A 
ATOM      4  C   LIG    1       25.422 -33.425   6.599  0.00  0.00    +0.017 A 
ATOM      5  C   LIG    1       25.474 -33.364   5.208  0.00  0.00    +0.001 A 
ATOM      6  C   LIG    1       25.575 -32.131   4.582  0.00  0.00    +0.002 A 
ATOM      7  S   LIG    1       25.352 -32.455   9.140  0.00  0.00    -0.086 S 
ATOM      8  C   LIG    1       25.898 -30.860   9.717  0.00  0.00    +0.034 A 
ATOM      9  C   LIG    1       26.252 -30.765  11.076  0.00  0.00    +0.017 A 
ATOM     10  C   LIG    1       26.691 -29.559  11.615  0.00  0.00    +0.001 A 
ATOM     11  C   LIG    1       26.794 -28.443  10.800  0.00  0.00    +0.002 A 
ATOM     12  C   LIG    1       26.435 -28.529   9.451  0.00  0.00    +0.024 A 
ATOM     13  C   LIG    1       25.615 -30.961   5.347  0.00  0.00    +0.024 A 
ATOM     14  C   LIG    1       25.950 -29.727   8.884  0.00  0.00    +0.048 A 
ENDROOT
BRANCH   1  15
ATOM     15  C   LIG    1       24.753 -28.672   7.009  0.00  0.00    +0.116 C 
BRANCH  15  19
ATOM     16  C   LIG    1       25.962 -23.967   6.433  0.00  0.00    +0.105 C 
ATOM     17  N   LIG    1       26.074 -25.357   6.021  0.00  0.00    -0.305 NA
ATOM     18  C   LIG    1       25.626 -26.294   7.050  0.00  0.00    +0.089 C 
ATOM     19  C   LIG    1       25.551 -27.596   6.262  0.00  0.00    +0.022 C 
ATOM     20  C   LIG    1       24.951 -27.146   4.928  0.00  0.00    +0.021 C 
ATOM     21  C   LIG    1       25.281 -25.659   4.825  0.00  0.00    +0.084 C 
ENDBRANCH  15  19
ENDBRANCH   1  15
TORSDOF 2
ENDMDL
MODEL 9
REMARK VINA RESULT:      -5.6      9.127     10.286
REMARK  Name = *****
REMARK                            x       y       z     vdW  Elec       q    Type
REMARK                         _______ _______ _______ _____ _____    ______ ____
ROOT
ATOM      1  N   LIG    1       24.696 -27.741  12.845  0.00  0.00    -0.298 N 
ATOM      2  C   LIG    1       23.275 -27.812  12.884  0.00  0.00    +0.048 A 
ATOM      3  C   LIG    1       22.576 -28.935  12.402  0.00  0.00    +0.034 A 
ATOM      4  C   LIG    1       21.171 -28.973  12.447  0.00  0.00    +0.017 A 
ATOM      5  C   LIG    1       20.444 -27.897  12.951  0.00  0.00    +0.001 A 
ATOM      6  C   LIG    1       21.116 -26.772  13.409  0.00  0.00    +0.002 A 
ATOM      7  S   LIG    1       23.397 -30.386  11.774  0.00  0.00    -0.086 S 
ATOM      8  C   LIG    1       25.036 -29.763  11.463  0.00  0.00    +0.034 A 
ATOM      9  C   LIG    1       25.870 -30.551  10.649  0.00  0.00    +0.017 A 
ATOM     10  C   LIG    1       27.167 -30.143  10.351  0.00  0.00    +0.001 A 
ATOM     11  C   LIG    1       27.637 -28.938  10.851  0.00  0.00    +0.002 A 
ATOM     12  C   LIG    1       26.815 -28.154  11.667  0.00  0.00    +0.024 A 
ATOM     13  C   LIG    1       22.513 -26.730  13.369  0.00  0.00    +0.024 A 
ATOM     14  C   LIG    1       25.510 -28.559  12.018  0.00  0.00    +0.048 A 
ENDROOT
BRANCH   1  15
ATOM     15  C   LIG    1       25.349 -27.201  14.066  0.00  0.00    +0.116 C 
BRANCH  15  19
ATOM     16  C   LIG    1       28.356 -23.616  15.493  0.00  0.00    +0.105 C 
ATOM     17  N   LIG    1       27.305 -24.106  14.615  0.00  0.00    -0.305 NA
ATOM     18  C   LIG    1       27.207 -25.564  14.603  0.00  0.00    +0.089 C 
ATOM     19  C   LIG    1       25.877 -25.771  13.888  0.00  0.00    +0.022 C 
ATOM     20  C   LIG    1       24.999 -24.672  14.489  0.00  0.00    +0.021 C 
ATOM     21  C   LIG    1       25.977 -23.613  14.993  0.00  0.00    +0.084 C 
ENDBRANCH  15  19
ENDBRANCH   1  15
TORSDOF 2
ENDMDL
