MODEL 1
REMARK VINA RESULT:      -5.1      0.000      0.000
REMARK  Name = *****
REMARK                            x       y       z     vdW  Elec       q    Type
REMARK                         _______ _______ _______ _____ _____    ______ ____
ROOT
ATOM      1  C   LIG    1       20.252 -30.808  14.473  0.00  0.00    +0.109 C 
ATOM      2  C   LIG    1       20.830 -29.441  13.957  0.00  0.00    +0.230 C 
ATOM      3  C   LIG    1       21.752 -29.767  12.718  0.00  0.00    +0.014 C 
ATOM      4  C   LIG    1       21.008 -29.426  11.397  0.00  0.00    +0.015 C 
ATOM      5  C   LIG    1       22.084 -31.285  12.873  0.00  0.00    +0.007 C 
ATOM      6  C   LIG    1       23.578 -31.671  12.785  0.00  0.00    -0.003 C 
ATOM      7  C   LIG    1       24.308 -30.984  11.610  0.00  0.00    -0.001 C 
ATOM      8  C   LIG    1       24.073 -29.457  11.643  0.00  0.00    +0.005 C 
ATOM      9  C   LIG    1       24.168 -31.665  10.170  0.00  0.00    -0.025 C 
ATOM     10  C   LIG    1       22.792 -31.414   9.516  0.00  0.00    +0.012 C 
ATOM     11  C   LIG    1       24.325 -33.206  10.284  0.00  0.00    -0.002 C 
ATOM     12  C   LIG    1       25.800 -33.595  10.351  0.00  0.00    +0.037 C 
ATOM     13  C   LIG    1       26.420 -33.364   8.984  0.00  0.00    +0.132 C 
ATOM     14  C   LIG    1       26.227 -31.938   8.415  0.00  0.00    +0.086 C 
ATOM     15  C   LIG    1       23.519 -33.825  11.434  0.00  0.00    +0.004 C 
ATOM     16  C   LIG    1       25.258 -31.029   9.228  0.00  0.00    +0.028 C 
ATOM     17  C   LIG    1       23.820 -33.186  12.777  0.00  0.00    +0.004 C 
ATOM     18  C   LIG    1       23.096 -28.985  12.733  0.00  0.00    +0.011 C 
ATOM     19  C   LIG    1       21.448 -31.733  14.204  0.00  0.00    +0.062 C 
ENDROOT
BRANCH  14  20
ATOM     20  N   LIG    1       25.989 -31.813   6.952  0.00  0.00    -0.293 NA
ATOM     21  C   LIG    1       25.143 -32.878   6.374  0.00  0.00    +0.113 C 
ATOM     22  C   LIG    1       23.634 -32.610   6.477  0.00  0.00    +0.175 C 
ATOM     23  O   LIG    1       23.287 -31.367   5.853  0.00  0.00    -0.377 OA
ATOM     24  C   LIG    1       24.020 -30.270   6.402  0.00  0.00    +0.175 C 
ATOM     25  C   LIG    1       25.540 -30.519   6.425  0.00  0.00    +0.113 C 
ENDBRANCH  14  20
BRANCH   1  26
ATOM     26  N   LIG    1       18.891 -31.401  13.931  0.00  0.00    +0.251 N 
ATOM     27  C   LIG    1       18.838 -32.954  14.185  0.00  0.00    +0.134 C 
ATOM     28  C   LIG    1       18.473 -33.599  12.855  0.00  0.00    +0.056 C 
ATOM     29  C   LIG    1       17.827 -32.501  12.043  0.00  0.00    +0.056 C 
ATOM     30  C   LIG    1       18.653 -31.290  12.419  0.00  0.00    +0.134 C 
BRANCH  26  31
ATOM     31  C   LIG    1       17.648 -30.788  14.644  0.00  0.00    +0.161 C 
BRANCH  31  33
ATOM     32  C   LIG    1       15.979 -28.897  14.335  0.00  0.00    +0.009 C 
ATOM     33  C   LIG    1       16.831 -29.814  13.850  0.00  0.00    +0.015 C 
ENDBRANCH  31  33
ENDBRANCH  26  31
ENDBRANCH   1  26
BRANCH  13  34
ATOM     34  O   LIG    1       27.810 -33.689   9.049  0.00  0.00    -0.390 OA
ATOM     35  H   LIG    1       27.976 -34.077   9.926  0.00  0.00    +0.210 HD
ENDBRANCH  13  34
BRANCH   2  36
ATOM     36  O   LIG    1       19.843 -28.435  13.691  0.00  0.00    -0.455 OA
BRANCH  36  37
ATOM     37  C   LIG    1       19.893 -27.343  14.516  0.00  0.00    +0.304 C 
ATOM     38  O   LIG    1       20.730 -27.168  15.415  0.00  0.00    -0.251 OA
ATOM     39  C   LIG    1       18.876 -26.324  14.090  0.00  0.00    +0.136 C 
ENDBRANCH  36  37
ENDBRANCH   2  36
TORSDOF 7
ENDMDL
MODEL 2
REMARK VINA RESULT:      -5.0      0.660      1.692
REMARK  Name = *****
REMARK                            x       y       z     vdW  Elec       q    Type
REMARK                         _______ _______ _______ _____ _____    ______ ____
ROOT
ATOM      1  C   LIG    1       20.083 -30.995  14.572  0.00  0.00    +0.109 C 
ATOM      2  C   LIG    1       20.666 -29.592  14.174  0.00  0.00    +0.230 C 
ATOM      3  C   LIG    1       21.619 -29.821  12.936  0.00  0.00    +0.014 C 
ATOM      4  C   LIG    1       20.904 -29.384  11.627  0.00  0.00    +0.015 C 
ATOM      5  C   LIG    1       21.954 -31.346  12.984  0.00  0.00    +0.007 C 
ATOM      6  C   LIG    1       23.452 -31.720  12.903  0.00  0.00    -0.003 C 
ATOM      7  C   LIG    1       24.205 -30.944  11.800  0.00  0.00    -0.001 C 
ATOM      8  C   LIG    1       23.963 -29.425  11.943  0.00  0.00    +0.005 C 
ATOM      9  C   LIG    1       24.102 -31.515  10.310  0.00  0.00    -0.025 C 
ATOM     10  C   LIG    1       22.741 -31.220   9.645  0.00  0.00    +0.012 C 
ATOM     11  C   LIG    1       24.264 -33.061  10.313  0.00  0.00    -0.002 C 
ATOM     12  C   LIG    1       25.738 -33.449  10.385  0.00  0.00    +0.037 C 
ATOM     13  C   LIG    1       26.389 -33.115   9.055  0.00  0.00    +0.132 C 
ATOM     14  C   LIG    1       26.203 -31.650   8.589  0.00  0.00    +0.086 C 
ATOM     15  C   LIG    1       23.434 -33.766  11.394  0.00  0.00    +0.004 C 
ATOM     16  C   LIG    1       25.211 -30.808   9.445  0.00  0.00    +0.028 C 
ATOM     17  C   LIG    1       23.701 -33.229  12.788  0.00  0.00    +0.004 C 
ATOM     18  C   LIG    1       22.958 -29.039  13.041  0.00  0.00    +0.011 C 
ATOM     19  C   LIG    1       21.289 -31.894  14.263  0.00  0.00    +0.062 C 
ENDROOT
BRANCH  14  20
ATOM     20  N   LIG    1       25.999 -31.416   7.135  0.00  0.00    -0.293 NA
ATOM     21  C   LIG    1       25.207 -32.459   6.450  0.00  0.00    +0.113 C 
ATOM     22  C   LIG    1       23.687 -32.250   6.531  0.00  0.00    +0.175 C 
ATOM     23  O   LIG    1       23.312 -30.974   5.998  0.00  0.00    -0.377 OA
ATOM     24  C   LIG    1       23.992 -29.900   6.652  0.00  0.00    +0.175 C 
ATOM     25  C   LIG    1       25.518 -30.100   6.699  0.00  0.00    +0.113 C 
ENDBRANCH  14  20
BRANCH   1  26
ATOM     26  N   LIG    1       18.737 -31.550  13.955  0.00  0.00    +0.251 N 
ATOM     27  C   LIG    1       18.016 -30.421  13.127  0.00  0.00    +0.134 C 
ATOM     28  C   LIG    1       16.578 -30.370  13.625  0.00  0.00    +0.056 C 
ATOM     29  C   LIG    1       16.334 -31.711  14.279  0.00  0.00    +0.056 C 
ATOM     30  C   LIG    1       17.659 -31.988  14.956  0.00  0.00    +0.134 C 
BRANCH  26  31
ATOM     31  C   LIG    1       18.975 -32.740  12.978  0.00  0.00    +0.161 C 
BRANCH  31  33
ATOM     32  C   LIG    1       19.558 -32.844  10.507  0.00  0.00    +0.009 C 
ATOM     33  C   LIG    1       18.763 -32.464  11.520  0.00  0.00    +0.015 C 
ENDBRANCH  31  33
ENDBRANCH  26  31
ENDBRANCH   1  26
BRANCH  13  34
ATOM     34  O   LIG    1       27.778 -33.440   9.127  0.00  0.00    -0.390 OA
ATOM     35  H   LIG    1       28.045 -33.769   8.250  0.00  0.00    +0.210 HD
ENDBRANCH  13  34
BRANCH   2  36
ATOM     36  O   LIG    1       19.682 -28.571  13.960  0.00  0.00    -0.455 OA
BRANCH  36  37
ATOM     37  C   LIG    1       19.898 -27.406  14.646  0.00  0.00    +0.304 C 
ATOM     38  O   LIG    1       20.864 -27.189  15.394  0.00  0.00    -0.251 OA
ATOM     39  C   LIG    1       18.875 -26.377  14.258  0.00  0.00    +0.136 C 
ENDBRANCH  36  37
ENDBRANCH   2  36
TORSDOF 7
ENDMDL
MODEL 3
REMARK VINA RESULT:      -4.4      2.136      8.511
REMARK  Name = *****
REMARK                            x       y       z     vdW  Elec       q    Type
REMARK                         _______ _______ _______ _____ _____    ______ ____
ROOT
ATOM      1  C   LIG    1       26.282 -29.660   8.393  0.00  0.00    +0.109 C 
ATOM      2  C   LIG    1       26.218 -31.230   8.378  0.00  0.00    +0.230 C 
ATOM      3  C   LIG    1       24.901 -31.646   9.143  0.00  0.00    +0.014 C 
ATOM      4  C   LIG    1       23.798 -32.048   8.125  0.00  0.00    +0.015 C 
ATOM      5  C   LIG    1       24.535 -30.388   9.994  0.00  0.00    +0.007 C 
ATOM      6  C   LIG    1       24.261 -30.633  11.495  0.00  0.00    -0.003 C 
ATOM      7  C   LIG    1       23.345 -31.851  11.747  0.00  0.00    -0.001 C 
ATOM      8  C   LIG    1       23.887 -33.099  11.014  0.00  0.00    +0.005 C 
ATOM      9  C   LIG    1       21.769 -31.615  11.617  0.00  0.00    -0.025 C 
ATOM     10  C   LIG    1       21.294 -31.508  10.152  0.00  0.00    +0.012 C 
ATOM     11  C   LIG    1       21.365 -30.282  12.307  0.00  0.00    -0.002 C 
ATOM     12  C   LIG    1       21.236 -30.473  13.816  0.00  0.00    +0.037 C 
ATOM     13  C   LIG    1       19.995 -31.303  14.092  0.00  0.00    +0.132 C 
ATOM     14  C   LIG    1       19.933 -32.652  13.334  0.00  0.00    +0.086 C 
ATOM     15  C   LIG    1       22.283 -29.103  11.957  0.00  0.00    +0.004 C 
ATOM     16  C   LIG    1       21.040 -32.855  12.258  0.00  0.00    +0.028 C 
ATOM     17  C   LIG    1       23.747 -29.392  12.235  0.00  0.00    +0.004 C 
ATOM     18  C   LIG    1       25.112 -32.834  10.123  0.00  0.00    +0.011 C 
ATOM     19  C   LIG    1       25.673 -29.371   9.773  0.00  0.00    +0.062 C 
ENDROOT
BRANCH  14  20
ATOM     20  N   LIG    1       18.604 -33.095  12.835  0.00  0.00    -0.293 NA
ATOM     21  C   LIG    1       17.457 -32.622  13.638  0.00  0.00    +0.113 C 
ATOM     22  C   LIG    1       16.953 -31.222  13.254  0.00  0.00    +0.175 C 
ATOM     23  O   LIG    1       16.589 -31.167  11.869  0.00  0.00    -0.377 OA
ATOM     24  C   LIG    1       17.670 -31.553  11.016  0.00  0.00    +0.175 C 
ATOM     25  C   LIG    1       18.292 -32.904  11.414  0.00  0.00    +0.113 C 
ENDBRANCH  14  20
BRANCH   1  26
ATOM     26  N   LIG    1       25.636 -28.783   7.247  0.00  0.00    +0.251 N 
ATOM     27  C   LIG    1       24.076 -28.995   7.218  0.00  0.00    +0.134 C 
ATOM     28  C   LIG    1       23.710 -29.324   5.777  0.00  0.00    +0.056 C 
ATOM     29  C   LIG    1       24.859 -28.802   4.945  0.00  0.00    +0.056 C 
ATOM     30  C   LIG    1       26.058 -29.121   5.811  0.00  0.00    +0.134 C 
BRANCH  26  31
ATOM     31  C   LIG    1       25.877 -27.258   7.456  0.00  0.00    +0.161 C 
BRANCH  31  33
ATOM     32  C   LIG    1       25.740 -25.313   5.827  0.00  0.00    +0.009 C 
ATOM     33  C   LIG    1       26.278 -26.470   6.246  0.00  0.00    +0.015 C 
ENDBRANCH  31  33
ENDBRANCH  26  31
ENDBRANCH   1  26
BRANCH  13  34
ATOM     34  O   LIG    1       19.889 -31.519  15.500  0.00  0.00    -0.390 OA
ATOM     35  H   LIG    1       20.711 -31.193  15.905  0.00  0.00    +0.210 HD
ENDBRANCH  13  34
BRANCH   2  36
ATOM     36  O   LIG    1       26.339 -31.823   7.078  0.00  0.00    -0.455 OA
BRANCH  36  37
ATOM     37  C   LIG    1       27.278 -32.814   6.980  0.00  0.00    +0.304 C 
ATOM     38  O   LIG    1       27.818 -33.382   7.943  0.00  0.00    -0.251 OA
ATOM     39  C   LIG    1       27.464 -33.214   5.544  0.00  0.00    +0.136 C 
ENDBRANCH  36  37
ENDBRANCH   2  36
TORSDOF 7
ENDMDL
MODEL 4
REMARK VINA RESULT:      -3.9      1.868      2.842
REMARK  Name = *****
REMARK                            x       y       z     vdW  Elec       q    Type
REMARK                         _______ _______ _______ _____ _____    ______ ____
ROOT
ATOM      1  C   LIG    1       22.122 -31.764  14.615  0.00  0.00    +0.109 C 
ATOM      2  C   LIG    1       22.601 -30.275  14.457  0.00  0.00    +0.230 C 
ATOM      3  C   LIG    1       23.049 -30.091  12.955  0.00  0.00    +0.014 C 
ATOM      4  C   LIG    1       21.946 -29.338  12.160  0.00  0.00    +0.015 C 
ATOM      5  C   LIG    1       23.301 -31.546  12.446  0.00  0.00    +0.007 C 
ATOM      6  C   LIG    1       24.656 -31.800  11.745  0.00  0.00    -0.003 C 
ATOM      7  C   LIG    1       25.016 -30.702  10.720  0.00  0.00    -0.001 C 
ATOM      8  C   LIG    1       24.917 -29.302  11.365  0.00  0.00    +0.005 C 
ATOM      9  C   LIG    1       24.371 -30.830   9.262  0.00  0.00    -0.025 C 
ATOM     10  C   LIG    1       22.880 -30.431   9.226  0.00  0.00    +0.012 C 
ATOM     11  C   LIG    1       24.444 -32.301   8.767  0.00  0.00    -0.002 C 
ATOM     12  C   LIG    1       25.830 -32.613   8.207  0.00  0.00    +0.037 C 
ATOM     13  C   LIG    1       25.992 -31.879   6.888  0.00  0.00    +0.132 C 
ATOM     14  C   LIG    1       25.730 -30.354   6.955  0.00  0.00    +0.086 C 
ATOM     15  C   LIG    1       24.009 -33.329   9.819  0.00  0.00    +0.004 C 
ATOM     16  C   LIG    1       25.143 -29.846   8.305  0.00  0.00    +0.028 C 
ATOM     17  C   LIG    1       24.772 -33.197  11.125  0.00  0.00    +0.004 C 
ATOM     18  C   LIG    1       24.379 -29.300  12.806  0.00  0.00    +0.011 C 
ATOM     19  C   LIG    1       23.098 -32.471  13.662  0.00  0.00    +0.062 C 
ENDROOT
BRANCH  14  20
ATOM     20  N   LIG    1       25.044 -29.727   5.795  0.00  0.00    -0.293 NA
ATOM     21  C   LIG    1       23.959 -28.791   6.155  0.00  0.00    +0.113 C 
ATOM     22  C   LIG    1       24.432 -27.358   6.441  0.00  0.00    +0.175 C 
ATOM     23  O   LIG    1       25.145 -26.816   5.322  0.00  0.00    -0.377 OA
ATOM     24  C   LIG    1       26.254 -27.635   4.946  0.00  0.00    +0.175 C 
ATOM     25  C   LIG    1       25.865 -29.112   4.746  0.00  0.00    +0.113 C 
ENDBRANCH  14  20
BRANCH   1  26
ATOM     26  N   LIG    1       20.619 -32.192  14.375  0.00  0.00    +0.251 N 
ATOM     27  C   LIG    1       19.699 -30.917  14.300  0.00  0.00    +0.134 C 
ATOM     28  C   LIG    1       18.548 -31.156  15.267  0.00  0.00    +0.056 C 
ATOM     29  C   LIG    1       18.497 -32.653  15.465  0.00  0.00    +0.056 C 
ATOM     30  C   LIG    1       19.964 -33.027  15.482  0.00  0.00    +0.134 C 
BRANCH  26  31
ATOM     31  C   LIG    1       20.426 -32.963  13.035  0.00  0.00    +0.161 C 
BRANCH  31  33
ATOM     32  C   LIG    1       19.986 -32.238  10.640  0.00  0.00    +0.009 C 
ATOM     33  C   LIG    1       19.684 -32.245  11.948  0.00  0.00    +0.015 C 
ENDBRANCH  31  33
ENDBRANCH  26  31
ENDBRANCH   1  26
BRANCH  13  34
ATOM     34  O   LIG    1       27.301 -32.135   6.376  0.00  0.00    -0.390 OA
ATOM     35  H   LIG    1       27.580 -33.004   6.717  0.00  0.00    +0.210 HD
ENDBRANCH  13  34
BRANCH   2  36
ATOM     36  O   LIG    1       21.656 -29.292  14.901  0.00  0.00    -0.455 OA
BRANCH  36  37
ATOM     37  C   LIG    1       22.180 -28.045  15.119  0.00  0.00    +0.304 C 
ATOM     38  O   LIG    1       23.338 -27.816  15.500  0.00  0.00    -0.251 OA
ATOM     39  C   LIG    1       21.197 -26.989  14.701  0.00  0.00    +0.136 C 
ENDBRANCH  36  37
ENDBRANCH   2  36
TORSDOF 7
ENDMDL
MODEL 5
REMARK VINA RESULT:      -3.9      2.629      4.304
REMARK  Name = *****
REMARK                            x       y       z     vdW  Elec       q    Type
REMARK                         _______ _______ _______ _____ _____    ______ ____
ROOT
ATOM      1  C   LIG    1       23.674 -32.202  13.640  0.00  0.00    +0.109 C 
ATOM      2  C   LIG    1       24.754 -31.061  13.604  0.00  0.00    +0.230 C 
ATOM      3  C   LIG    1       24.895 -30.605  12.099  0.00  0.00    +0.014 C 
ATOM      4  C   LIG    1       24.138 -29.267  11.875  0.00  0.00    +0.015 C 
ATOM      5  C   LIG    1       24.309 -31.798  11.279  0.00  0.00    +0.007 C 
ATOM      6  C   LIG    1       25.191 -32.335  10.127  0.00  0.00    -0.003 C 
ATOM      7  C   LIG    1       25.795 -31.209   9.259  0.00  0.00    -0.001 C 
ATOM      8  C   LIG    1       26.515 -30.168  10.144  0.00  0.00    +0.005 C 
ATOM      9  C   LIG    1       24.866 -30.602   8.108  0.00  0.00    -0.025 C 
ATOM     10  C   LIG    1       23.776 -29.653   8.651  0.00  0.00    +0.012 C 
ATOM     11  C   LIG    1       24.122 -31.741   7.357  0.00  0.00    -0.002 C 
ATOM     12  C   LIG    1       25.033 -32.385   6.315  0.00  0.00    +0.037 C 
ATOM     13  C   LIG    1       25.231 -31.401   5.176  0.00  0.00    +0.132 C 
ATOM     14  C   LIG    1       25.746 -30.005   5.605  0.00  0.00    +0.086 C 
ATOM     15  C   LIG    1       23.493 -32.786   8.289  0.00  0.00    +0.004 C 
ATOM     16  C   LIG    1       25.781 -29.760   7.143  0.00  0.00    +0.028 C 
ATOM     17  C   LIG    1       24.491 -33.389   9.260  0.00  0.00    +0.004 C 
ATOM     18  C   LIG    1       26.372 -30.407  11.656  0.00  0.00    +0.011 C 
ATOM     19  C   LIG    1       23.962 -32.898  12.302  0.00  0.00    +0.062 C 
ENDROOT
BRANCH  14  20
ATOM     20  N   LIG    1       25.205 -28.825   4.880  0.00  0.00    -0.293 NA
ATOM     21  C   LIG    1       24.054 -28.173   5.540  0.00  0.00    +0.113 C 
ATOM     22  C   LIG    1       24.444 -27.135   6.605  0.00  0.00    +0.175 C 
ATOM     23  O   LIG    1       25.284 -26.116   6.049  0.00  0.00    -0.377 OA
ATOM     24  C   LIG    1       26.457 -26.663   5.442  0.00  0.00    +0.175 C 
ATOM     25  C   LIG    1       26.142 -27.786   4.437  0.00  0.00    +0.113 C 
ENDBRANCH  14  20
BRANCH   1  26
ATOM     26  N   LIG    1       22.137 -31.896  13.848  0.00  0.00    +0.251 N 
ATOM     27  C   LIG    1       21.896 -30.341  13.892  0.00  0.00    +0.134 C 
ATOM     28  C   LIG    1       21.080 -30.064  15.147  0.00  0.00    +0.056 C 
ATOM     29  C   LIG    1       20.431 -31.382  15.500  0.00  0.00    +0.056 C 
ATOM     30  C   LIG    1       21.519 -32.380  15.167  0.00  0.00    +0.134 C 
BRANCH  26  31
ATOM     31  C   LIG    1       21.257 -32.454  12.690  0.00  0.00    +0.161 C 
BRANCH  31  33
ATOM     32  C   LIG    1       20.952 -31.112  10.554  0.00  0.00    +0.009 C 
ATOM     33  C   LIG    1       20.593 -31.443  11.805  0.00  0.00    +0.015 C 
ENDBRANCH  31  33
ENDBRANCH  26  31
ENDBRANCH   1  26
BRANCH  13  34
ATOM     34  O   LIG    1       26.114 -31.981   4.215  0.00  0.00    -0.390 OA
ATOM     35  H   LIG    1       26.942 -32.202   4.678  0.00  0.00    +0.210 HD
ENDBRANCH  13  34
BRANCH   2  36
ATOM     36  O   LIG    1       24.512 -29.978  14.512  0.00  0.00    -0.455 OA
BRANCH  36  37
ATOM     37  C   LIG    1       25.621 -29.517  15.170  0.00  0.00    +0.304 C 
ATOM     38  O   LIG    1       26.595 -30.212  15.499  0.00  0.00    -0.251 OA
ATOM     39  C   LIG    1       25.554 -28.024  15.318  0.00  0.00    +0.136 C 
ENDBRANCH  36  37
ENDBRANCH   2  36
TORSDOF 7
ENDMDL
MODEL 6
REMARK VINA RESULT:      -2.8      1.773      8.775
REMARK  Name = *****
REMARK                            x       y       z     vdW  Elec       q    Type
REMARK                         _______ _______ _______ _____ _____    ______ ____
ROOT
ATOM      1  C   LIG    1       25.911 -31.299   7.939  0.00  0.00    +0.109 C 
ATOM      2  C   LIG    1       26.051 -32.706   8.623  0.00  0.00    +0.230 C 
ATOM      3  C   LIG    1       24.799 -32.887   9.569  0.00  0.00    +0.014 C 
ATOM      4  C   LIG    1       23.757 -33.825   8.900  0.00  0.00    +0.015 C 
ATOM      5  C   LIG    1       24.275 -31.433   9.796  0.00  0.00    +0.007 C 
ATOM      6  C   LIG    1       24.036 -31.013  11.265  0.00  0.00    -0.003 C 
ATOM      7  C   LIG    1       23.286 -32.089  12.082  0.00  0.00    -0.001 C 
ATOM      8  C   LIG    1       23.984 -33.460  11.946  0.00  0.00    +0.005 C 
ATOM      9  C   LIG    1       21.692 -32.118  11.954  0.00  0.00    -0.025 C 
ATOM     10  C   LIG    1       21.206 -32.732  10.623  0.00  0.00    +0.012 C 
ATOM     11  C   LIG    1       21.120 -30.674  12.006  0.00  0.00    -0.002 C 
ATOM     12  C   LIG    1       21.019 -30.186  13.449  0.00  0.00    +0.037 C 
ATOM     13  C   LIG    1       19.896 -30.944  14.135  0.00  0.00    +0.132 C 
ATOM     14  C   LIG    1       20.008 -32.486  14.057  0.00  0.00    +0.086 C 
ATOM     15  C   LIG    1       21.877 -29.678  11.118  0.00  0.00    +0.004 C 
ATOM     16  C   LIG    1       21.131 -33.018  13.118  0.00  0.00    +0.028 C 
ATOM     17  C   LIG    1       23.366 -29.641  11.409  0.00  0.00    +0.004 C 
ATOM     18  C   LIG    1       25.164 -33.480  10.959  0.00  0.00    +0.011 C 
ATOM     19  C   LIG    1       25.271 -30.497   9.083  0.00  0.00    +0.062 C 
ENDROOT
BRANCH  14  20
ATOM     20  N   LIG    1       18.747 -33.255  13.884  0.00  0.00    -0.293 NA
ATOM     21  C   LIG    1       17.553 -32.619  14.478  0.00  0.00    +0.113 C 
ATOM     22  C   LIG    1       16.863 -31.596  13.563  0.00  0.00    +0.175 C 
ATOM     23  O   LIG    1       16.485 -32.192  12.315  0.00  0.00    -0.377 OA
ATOM     24  C   LIG    1       17.602 -32.779  11.643  0.00  0.00    +0.175 C 
ATOM     25  C   LIG    1       18.402 -33.740  12.542  0.00  0.00    +0.113 C 
ENDBRANCH  14  20
BRANCH   1  26
ATOM     26  N   LIG    1       25.155 -31.106   6.564  0.00  0.00    +0.251 N 
ATOM     27  C   LIG    1       26.190 -30.809   5.415  0.00  0.00    +0.134 C 
ATOM     28  C   LIG    1       25.696 -29.559   4.699  0.00  0.00    +0.056 C 
ATOM     29  C   LIG    1       24.226 -29.462   5.034  0.00  0.00    +0.056 C 
ATOM     30  C   LIG    1       24.191 -29.915   6.478  0.00  0.00    +0.134 C 
BRANCH  26  31
ATOM     31  C   LIG    1       24.363 -32.377   6.135  0.00  0.00    +0.161 C 
BRANCH  31  33
ATOM     32  C   LIG    1       23.776 -33.713   4.056  0.00  0.00    +0.009 C 
ATOM     33  C   LIG    1       24.545 -32.837   4.721  0.00  0.00    +0.015 C 
ENDBRANCH  31  33
ENDBRANCH  26  31
ENDBRANCH   1  26
BRANCH  13  34
ATOM     34  O   LIG    1       19.820 -30.521  15.498  0.00  0.00    -0.390 OA
ATOM     35  H   LIG    1       18.886 -30.581  15.767  0.00  0.00    +0.210 HD
ENDBRANCH  13  34
BRANCH   2  36
ATOM     36  O   LIG    1       26.246 -33.798   7.715  0.00  0.00    -0.455 OA
BRANCH  36  37
ATOM     37  C   LIG    1       27.452 -33.802   7.066  0.00  0.00    +0.304 C 
ATOM     38  O   LIG    1       27.602 -33.689   5.840  0.00  0.00    -0.251 OA
ATOM     39  C   LIG    1       28.577 -33.825   8.062  0.00  0.00    +0.136 C 
ENDBRANCH  36  37
ENDBRANCH   2  36
TORSDOF 7
ENDMDL
MODEL 7
REMARK VINA RESULT:      -2.7      2.094      2.963
REMARK  Name = *****
REMARK                            x       y       z     vdW  Elec       q    Type
REMARK                         _______ _______ _______ _____ _____    ______ ____
ROOT
ATOM      1  C   LIG    1       21.879 -32.338  13.580  0.00  0.00    +0.109 C 
ATOM      2  C   LIG    1       22.817 -31.086  13.722  0.00  0.00    +0.230 C 
ATOM      3  C   LIG    1       23.307 -30.708  12.270  0.00  0.00    +0.014 C 
ATOM      4  C   LIG    1       22.513 -29.481  11.743  0.00  0.00    +0.015 C 
ATOM      5  C   LIG    1       23.075 -32.007  11.434  0.00  0.00    +0.007 C 
ATOM      6  C   LIG    1       24.276 -32.508  10.599  0.00  0.00    -0.003 C 
ATOM      7  C   LIG    1       24.979 -31.375   9.819  0.00  0.00    -0.001 C 
ATOM      8  C   LIG    1       25.338 -30.207  10.764  0.00  0.00    +0.005 C 
ATOM      9  C   LIG    1       24.334 -30.947   8.420  0.00  0.00    -0.025 C 
ATOM     10  C   LIG    1       23.054 -30.098   8.580  0.00  0.00    +0.012 C 
ATOM     11  C   LIG    1       23.926 -32.207   7.607  0.00  0.00    -0.002 C 
ATOM     12  C   LIG    1       25.137 -32.804   6.893  0.00  0.00    +0.037 C 
ATOM     13  C   LIG    1       25.535 -31.873   5.762  0.00  0.00    +0.132 C 
ATOM     14  C   LIG    1       25.784 -30.405   6.185  0.00  0.00    +0.086 C 
ATOM     15  C   LIG    1       23.174 -33.258   8.434  0.00  0.00    +0.004 C 
ATOM     16  C   LIG    1       25.388 -30.065   7.652  0.00  0.00    +0.028 C 
ATOM     17  C   LIG    1       23.933 -33.685   9.677  0.00  0.00    +0.004 C 
ATOM     18  C   LIG    1       24.823 -30.370  12.205  0.00  0.00    +0.011 C 
ATOM     19  C   LIG    1       22.575 -33.076  12.426  0.00  0.00    +0.062 C 
ENDROOT
BRANCH  14  20
ATOM     20  N   LIG    1       25.345 -29.339   5.244  0.00  0.00    -0.293 NA
ATOM     21  C   LIG    1       24.165 -28.572   5.694  0.00  0.00    +0.113 C 
ATOM     22  C   LIG    1       24.496 -27.391   6.619  0.00  0.00    +0.175 C 
ATOM     23  O   LIG    1       25.414 -26.486   5.992  0.00  0.00    -0.377 OA
ATOM     24  C   LIG    1       26.615 -27.141   5.581  0.00  0.00    +0.175 C 
ATOM     25  C   LIG    1       26.349 -28.400   4.734  0.00  0.00    +0.113 C 
ENDBRANCH  14  20
BRANCH   1  26
ATOM     26  N   LIG    1       20.320 -32.198  13.359  0.00  0.00    +0.251 N 
ATOM     27  C   LIG    1       19.543 -32.788  14.595  0.00  0.00    +0.134 C 
ATOM     28  C   LIG    1       18.509 -33.756  14.035  0.00  0.00    +0.056 C 
ATOM     29  C   LIG    1       18.322 -33.348  12.592  0.00  0.00    +0.056 C 
ATOM     30  C   LIG    1       19.727 -32.974  12.175  0.00  0.00    +0.134 C 
BRANCH  26  31
ATOM     31  C   LIG    1       19.870 -30.714  13.214  0.00  0.00    +0.161 C 
BRANCH  31  33
ATOM     32  C   LIG    1       18.413 -28.956  14.329  0.00  0.00    +0.009 C 
ATOM     33  C   LIG    1       18.961 -30.180  14.280  0.00  0.00    +0.015 C 
ENDBRANCH  31  33
ENDBRANCH  26  31
ENDBRANCH   1  26
BRANCH  13  34
ATOM     34  O   LIG    1       26.692 -32.406   5.114  0.00  0.00    -0.390 OA
ATOM     35  H   LIG    1       26.787 -33.330   5.405  0.00  0.00    +0.210 HD
ENDBRANCH  13  34
BRANCH   2  36
ATOM     36  O   LIG    1       22.243 -29.985  14.439  0.00  0.00    -0.455 OA
BRANCH  36  37
ATOM     37  C   LIG    1       23.144 -29.188  15.093  0.00  0.00    +0.304 C 
ATOM     38  O   LIG    1       24.258 -29.556  15.497  0.00  0.00    -0.251 OA
ATOM     39  C   LIG    1       22.650 -27.770  15.132  0.00  0.00    +0.136 C 
ENDBRANCH  36  37
ENDBRANCH   2  36
TORSDOF 7
ENDMDL
