MODEL 1
REMARK VINA RESULT:      -7.5      0.000      0.000
REMARK  Name = *****
REMARK                            x       y       z     vdW  Elec       q    Type
REMARK                         _______ _______ _______ _____ _____    ______ ____
ROOT
ATOM      1  O   LIG    1       28.531 -20.076   8.321  0.00  0.00    -0.489 OA
ENDROOT
BRANCH   1   5
ATOM      2  C   LIG    1       24.831 -20.636   6.437  0.00  0.00    -0.045 A 
ATOM      3  C   LIG    1       26.024 -20.493   5.696  0.00  0.00    +0.007 A 
ATOM      4  C   LIG    1       27.253 -20.335   6.353  0.00  0.00    +0.046 A 
ATOM      5  C   LIG    1       27.318 -20.356   7.741  0.00  0.00    +0.121 A 
ATOM      6  C   LIG    1       26.151 -20.635   8.464  0.00  0.00    +0.046 A 
ATOM      7  C   LIG    1       24.929 -20.779   7.814  0.00  0.00    +0.007 A 
BRANCH   2   8
ATOM      8  C   LIG    1       23.494 -20.624   5.733  0.00  0.00    +0.063 C 
BRANCH   8   9
ATOM      9  C   LIG    1       23.591 -20.525   4.202  0.00  0.00    +0.164 C 
BRANCH   9  11
ATOM     10  C   LIG    1       22.261 -18.599   4.498  0.00  0.00    +0.193 C 
ATOM     11  O   LIG    1       23.363 -19.172   3.804  0.00  0.00    -0.383 OA
ENDBRANCH   9  11
ENDBRANCH   8   9
ENDBRANCH   2   8
ENDBRANCH   1   5
BRANCH   1  12
ATOM     12  C   LIG    1       29.571 -21.018   8.038  0.00  0.00    +0.261 C 
BRANCH  12  13
ATOM     13  C   LIG    1       30.948 -20.505   8.443  0.00  0.00    +0.166 C 
BRANCH  13  14
ATOM     14  O   LIG    1       31.879 -21.594   8.365  0.00  0.00    -0.387 OA
ATOM     15  H   LIG    1       31.386 -22.327   7.947  0.00  0.00    +0.210 HD
ENDBRANCH  13  14
BRANCH  13  16
ATOM     16  C   LIG    1       31.412 -19.349   7.538  0.00  0.00    +0.115 C 
BRANCH  16  17
ATOM     17  N   LIG    1       30.985 -18.019   8.016  0.00  0.00    -0.311 NA
ATOM     18  H   LIG    1       29.963 -17.990   7.975  0.00  0.00    +0.122 HD
BRANCH  17  19
ATOM     19  C   LIG    1       31.412 -17.702   9.388  0.00  0.00    +0.048 C 
ATOM     20  C   LIG    1       30.242 -17.417  10.331  0.00  0.00    +0.024 C 
ATOM     21  C   LIG    1       32.355 -16.500   9.340  0.00  0.00    +0.024 C 
ENDBRANCH  17  19
ENDBRANCH  16  17
ENDBRANCH  13  16
ENDBRANCH  12  13
ENDBRANCH   1  12
TORSDOF 10
ENDMDL
MODEL 2
REMARK VINA RESULT:      -7.4      3.434      7.692
REMARK  Name = *****
REMARK                            x       y       z     vdW  Elec       q    Type
REMARK                         _______ _______ _______ _____ _____    ______ ____
ROOT
ATOM      1  O   LIG    1       24.486 -20.814   7.664  0.00  0.00    -0.489 OA
ENDROOT
BRANCH   1   5
ATOM      2  C   LIG    1       28.465 -19.913   6.708  0.00  0.00    -0.045 A 
ATOM      3  C   LIG    1       28.078 -20.249   8.023  0.00  0.00    +0.007 A 
ATOM      4  C   LIG    1       26.744 -20.575   8.311  0.00  0.00    +0.046 A 
ATOM      5  C   LIG    1       25.793 -20.607   7.298  0.00  0.00    +0.121 A 
ATOM      6  C   LIG    1       26.213 -20.406   5.975  0.00  0.00    +0.046 A 
ATOM      7  C   LIG    1       27.534 -20.071   5.691  0.00  0.00    +0.007 A 
BRANCH   2   8
ATOM      8  C   LIG    1       29.856 -19.390   6.436  0.00  0.00    +0.063 C 
BRANCH   8   9
ATOM      9  C   LIG    1       30.880 -19.728   7.531  0.00  0.00    +0.164 C 
BRANCH   9  11
ATOM     10  C   LIG    1       31.803 -17.918   8.730  0.00  0.00    +0.193 C 
ATOM     11  O   LIG    1       31.891 -18.719   7.557  0.00  0.00    -0.383 OA
ENDBRANCH   9  11
ENDBRANCH   8   9
ENDBRANCH   2   8
ENDBRANCH   1   5
BRANCH   1  12
ATOM     12  C   LIG    1       23.517 -20.497   6.658  0.00  0.00    +0.261 C 
BRANCH  12  13
ATOM     13  C   LIG    1       22.845 -21.739   6.085  0.00  0.00    +0.166 C 
BRANCH  13  14
ATOM     14  O   LIG    1       23.408 -22.003   4.792  0.00  0.00    -0.387 OA
ATOM     15  H   LIG    1       23.665 -22.945   4.808  0.00  0.00    +0.210 HD
ENDBRANCH  13  14
BRANCH  13  16
ATOM     16  C   LIG    1       23.035 -22.961   7.002  0.00  0.00    +0.115 C 
BRANCH  16  17
ATOM     17  N   LIG    1       23.048 -24.247   6.276  0.00  0.00    -0.311 NA
ATOM     18  H   LIG    1       22.978 -24.037   5.277  0.00  0.00    +0.122 HD
BRANCH  17  19
ATOM     19  C   LIG    1       24.252 -25.061   6.506  0.00  0.00    +0.048 C 
ATOM     20  C   LIG    1       25.542 -24.241   6.495  0.00  0.00    +0.024 C 
ATOM     21  C   LIG    1       24.312 -26.153   5.438  0.00  0.00    +0.024 C 
ENDBRANCH  17  19
ENDBRANCH  16  17
ENDBRANCH  13  16
ENDBRANCH  12  13
ENDBRANCH   1  12
TORSDOF 10
ENDMDL
MODEL 3
REMARK VINA RESULT:      -7.3      1.624      2.177
REMARK  Name = *****
REMARK                            x       y       z     vdW  Elec       q    Type
REMARK                         _______ _______ _______ _____ _____    ______ ____
ROOT
ATOM      1  O   LIG    1       28.715 -19.980   7.991  0.00  0.00    -0.489 OA
ENDROOT
BRANCH   1   5
ATOM      2  C   LIG    1       24.719 -20.745   6.988  0.00  0.00    -0.045 A 
ATOM      3  C   LIG    1       25.720 -20.627   5.999  0.00  0.00    +0.007 A 
ATOM      4  C   LIG    1       27.055 -20.399   6.364  0.00  0.00    +0.046 A 
ATOM      5  C   LIG    1       27.417 -20.325   7.704  0.00  0.00    +0.121 A 
ATOM      6  C   LIG    1       26.441 -20.579   8.679  0.00  0.00    +0.046 A 
ATOM      7  C   LIG    1       25.114 -20.792   8.317  0.00  0.00    +0.007 A 
BRANCH   2   8
ATOM      8  C   LIG    1       23.262 -20.808   6.590  0.00  0.00    +0.063 C 
BRANCH   8   9
ATOM      9  C   LIG    1       22.854 -22.124   5.910  0.00  0.00    +0.164 C 
BRANCH   9  11
ATOM     10  C   LIG    1       23.528 -24.267   6.629  0.00  0.00    +0.193 C 
ATOM     11  O   LIG    1       22.705 -23.140   6.904  0.00  0.00    -0.383 OA
ENDBRANCH   9  11
ENDBRANCH   8   9
ENDBRANCH   2   8
ENDBRANCH   1   5
BRANCH   1  12
ATOM     12  C   LIG    1       29.661 -21.051   7.895  0.00  0.00    +0.261 C 
BRANCH  12  13
ATOM     13  C   LIG    1       30.923 -20.787   8.710  0.00  0.00    +0.166 C 
BRANCH  13  14
ATOM     14  O   LIG    1       31.875 -21.820   8.419  0.00  0.00    -0.387 OA
ATOM     15  H   LIG    1       32.743 -21.373   8.395  0.00  0.00    +0.210 HD
ENDBRANCH  13  14
BRANCH  13  16
ATOM     16  C   LIG    1       31.527 -19.408   8.390  0.00  0.00    +0.115 C 
BRANCH  16  17
ATOM     17  N   LIG    1       31.897 -18.633   9.591  0.00  0.00    -0.311 NA
ATOM     18  H   LIG    1       32.918 -18.589   9.627  0.00  0.00    +0.122 HD
BRANCH  17  19
ATOM     19  C   LIG    1       31.364 -17.261   9.615  0.00  0.00    +0.048 C 
ATOM     20  C   LIG    1       32.455 -16.192   9.552  0.00  0.00    +0.024 C 
ATOM     21  C   LIG    1       30.527 -17.087  10.882  0.00  0.00    +0.024 C 
ENDBRANCH  17  19
ENDBRANCH  16  17
ENDBRANCH  13  16
ENDBRANCH  12  13
ENDBRANCH   1  12
TORSDOF 10
ENDMDL
MODEL 4
REMARK VINA RESULT:      -7.2      2.128      2.808
REMARK  Name = *****
REMARK                            x       y       z     vdW  Elec       q    Type
REMARK                         _______ _______ _______ _____ _____    ______ ____
ROOT
ATOM      1  O   LIG    1       28.522 -20.032   5.832  0.00  0.00    -0.489 OA
ENDROOT
BRANCH   1   5
ATOM      2  C   LIG    1       24.668 -21.132   7.053  0.00  0.00    -0.045 A 
ATOM      3  C   LIG    1       25.726 -20.999   7.977  0.00  0.00    +0.007 A 
ATOM      4  C   LIG    1       27.000 -20.601   7.546  0.00  0.00    +0.046 A 
ATOM      5  C   LIG    1       27.229 -20.297   6.209  0.00  0.00    +0.121 A 
ATOM      6  C   LIG    1       26.141 -20.300   5.324  0.00  0.00    +0.046 A 
ATOM      7  C   LIG    1       24.880 -20.707   5.749  0.00  0.00    +0.007 A 
BRANCH   2   8
ATOM      8  C   LIG    1       23.351 -21.733   7.488  0.00  0.00    +0.063 C 
BRANCH   8   9
ATOM      9  C   LIG    1       22.661 -22.582   6.410  0.00  0.00    +0.164 C 
BRANCH   9  11
ATOM     10  C   LIG    1       23.806 -24.643   6.490  0.00  0.00    +0.193 C 
ATOM     11  O   LIG    1       22.618 -23.944   6.841  0.00  0.00    -0.383 OA
ENDBRANCH   9  11
ENDBRANCH   8   9
ENDBRANCH   2   8
ENDBRANCH   1   5
BRANCH   1  12
ATOM     12  C   LIG    1       29.507 -20.254   6.849  0.00  0.00    +0.261 C 
BRANCH  12  13
ATOM     13  C   LIG    1       30.671 -19.274   6.755  0.00  0.00    +0.166 C 
BRANCH  13  14
ATOM     14  O   LIG    1       30.162 -18.006   6.315  0.00  0.00    -0.387 OA
ATOM     15  H   LIG    1       29.346 -18.213   5.819  0.00  0.00    +0.210 HD
ENDBRANCH  13  14
BRANCH  13  16
ATOM     16  C   LIG    1       31.388 -19.113   8.107  0.00  0.00    +0.115 C 
BRANCH  16  17
ATOM     17  N   LIG    1       32.082 -17.819   8.256  0.00  0.00    -0.311 NA
ATOM     18  H   LIG    1       31.691 -17.177   7.562  0.00  0.00    +0.122 HD
BRANCH  17  19
ATOM     19  C   LIG    1       31.950 -17.210   9.589  0.00  0.00    +0.048 C 
ATOM     20  C   LIG    1       30.503 -17.135  10.075  0.00  0.00    +0.024 C 
ATOM     21  C   LIG    1       32.566 -15.811   9.549  0.00  0.00    +0.024 C 
ENDBRANCH  17  19
ENDBRANCH  16  17
ENDBRANCH  13  16
ENDBRANCH  12  13
ENDBRANCH   1  12
TORSDOF 10
ENDMDL
MODEL 5
REMARK VINA RESULT:      -7.2      3.623      7.906
REMARK  Name = *****
REMARK                            x       y       z     vdW  Elec       q    Type
REMARK                         _______ _______ _______ _____ _____    ______ ____
ROOT
ATOM      1  O   LIG    1       25.027 -20.817   6.146  0.00  0.00    -0.489 OA
ENDROOT
BRANCH   1   5
ATOM      2  C   LIG    1       29.015 -19.905   7.051  0.00  0.00    -0.045 A 
ATOM      3  C   LIG    1       28.481 -19.689   5.762  0.00  0.00    +0.007 A 
ATOM      4  C   LIG    1       27.134 -19.976   5.494  0.00  0.00    +0.046 A 
ATOM      5  C   LIG    1       26.299 -20.441   6.502  0.00  0.00    +0.121 A 
ATOM      6  C   LIG    1       26.802 -20.523   7.808  0.00  0.00    +0.046 A 
ATOM      7  C   LIG    1       28.141 -20.250   8.072  0.00  0.00    +0.007 A 
BRANCH   2   8
ATOM      8  C   LIG    1       30.501 -19.768   7.289  0.00  0.00    +0.063 C 
BRANCH   8   9
ATOM      9  C   LIG    1       30.886 -19.600   8.767  0.00  0.00    +0.164 C 
BRANCH   9  11
ATOM     10  C   LIG    1       31.395 -21.877   9.119  0.00  0.00    +0.193 C 
ATOM     11  O   LIG    1       31.904 -20.548   9.098  0.00  0.00    -0.383 OA
ENDBRANCH   9  11
ENDBRANCH   8   9
ENDBRANCH   2   8
ENDBRANCH   1   5
BRANCH   1  12
ATOM     12  C   LIG    1       24.154 -21.116   7.241  0.00  0.00    +0.261 C 
BRANCH  12  13
ATOM     13  C   LIG    1       23.280 -22.337   6.973  0.00  0.00    +0.166 C 
BRANCH  13  14
ATOM     14  O   LIG    1       22.545 -22.110   5.762  0.00  0.00    -0.387 OA
ATOM     15  H   LIG    1       21.803 -21.526   6.015  0.00  0.00    +0.210 HD
ENDBRANCH  13  14
BRANCH  13  16
ATOM     16  C   LIG    1       24.122 -23.619   6.848  0.00  0.00    +0.115 C 
BRANCH  16  17
ATOM     17  N   LIG    1       23.330 -24.810   6.478  0.00  0.00    -0.311 NA
ATOM     18  H   LIG    1       22.497 -24.484   5.980  0.00  0.00    +0.122 HD
BRANCH  17  19
ATOM     19  C   LIG    1       24.044 -25.771   5.624  0.00  0.00    +0.048 C 
ATOM     20  C   LIG    1       24.512 -27.015   6.381  0.00  0.00    +0.024 C 
ATOM     21  C   LIG    1       25.239 -25.062   4.986  0.00  0.00    +0.024 C 
ENDBRANCH  17  19
ENDBRANCH  16  17
ENDBRANCH  13  16
ENDBRANCH  12  13
ENDBRANCH   1  12
TORSDOF 10
ENDMDL
MODEL 6
REMARK VINA RESULT:      -7.2      2.894      7.742
REMARK  Name = *****
REMARK                            x       y       z     vdW  Elec       q    Type
REMARK                         _______ _______ _______ _____ _____    ______ ____
ROOT
ATOM      1  O   LIG    1       27.180 -21.285   6.240  0.00  0.00    -0.489 OA
ENDROOT
BRANCH   1   5
ATOM      2  C   LIG    1       30.554 -19.225   7.629  0.00  0.00    -0.045 A 
ATOM      3  C   LIG    1       30.180 -20.476   8.164  0.00  0.00    +0.007 A 
ATOM      4  C   LIG    1       29.062 -21.159   7.661  0.00  0.00    +0.046 A 
ATOM      5  C   LIG    1       28.331 -20.629   6.604  0.00  0.00    +0.121 A 
ATOM      6  C   LIG    1       28.790 -19.455   5.990  0.00  0.00    +0.046 A 
ATOM      7  C   LIG    1       29.891 -18.772   6.497  0.00  0.00    +0.007 A 
BRANCH   2   8
ATOM      8  C   LIG    1       31.644 -18.412   8.289  0.00  0.00    +0.063 C 
BRANCH   8   9
ATOM      9  C   LIG    1       31.395 -18.122   9.778  0.00  0.00    +0.164 C 
BRANCH   9  11
ATOM     10  C   LIG    1       32.890 -16.318  10.057  0.00  0.00    +0.193 C 
ATOM     11  O   LIG    1       32.613 -17.676  10.379  0.00  0.00    -0.383 OA
ENDBRANCH   9  11
ENDBRANCH   8   9
ENDBRANCH   2   8
ENDBRANCH   1   5
BRANCH   1  12
ATOM     12  C   LIG    1       25.967 -20.572   6.504  0.00  0.00    +0.261 C 
BRANCH  12  13
ATOM     13  C   LIG    1       25.044 -20.523   5.291  0.00  0.00    +0.166 C 
BRANCH  13  14
ATOM     14  O   LIG    1       25.853 -20.394   4.112  0.00  0.00    -0.387 OA
ATOM     15  H   LIG    1       26.773 -20.332   4.435  0.00  0.00    +0.210 HD
ENDBRANCH  13  14
BRANCH  13  16
ATOM     16  C   LIG    1       24.168 -21.785   5.194  0.00  0.00    +0.115 C 
BRANCH  16  17
ATOM     17  N   LIG    1       24.946 -23.036   5.091  0.00  0.00    -0.311 NA
ATOM     18  H   LIG    1       25.926 -22.805   5.271  0.00  0.00    +0.122 HD
BRANCH  17  19
ATOM     19  C   LIG    1       24.527 -24.088   6.030  0.00  0.00    +0.048 C 
ATOM     20  C   LIG    1       23.232 -23.753   6.770  0.00  0.00    +0.024 C 
ATOM     21  C   LIG    1       25.659 -24.327   7.029  0.00  0.00    +0.024 C 
ENDBRANCH  17  19
ENDBRANCH  16  17
ENDBRANCH  13  16
ENDBRANCH  12  13
ENDBRANCH   1  12
TORSDOF 10
ENDMDL
MODEL 7
REMARK VINA RESULT:      -7.1      3.091      7.383
REMARK  Name = *****
REMARK                            x       y       z     vdW  Elec       q    Type
REMARK                         _______ _______ _______ _____ _____    ______ ____
ROOT
ATOM      1  O   LIG    1       25.415 -21.889   7.515  0.00  0.00    -0.489 OA
ENDROOT
BRANCH   1   5
ATOM      2  C   LIG    1       29.022 -19.966   6.597  0.00  0.00    -0.045 A 
ATOM      3  C   LIG    1       28.942 -20.939   7.616  0.00  0.00    +0.007 A 
ATOM      4  C   LIG    1       27.728 -21.589   7.883  0.00  0.00    +0.046 A 
ATOM      5  C   LIG    1       26.597 -21.310   7.124  0.00  0.00    +0.121 A 
ATOM      6  C   LIG    1       26.720 -20.444   6.028  0.00  0.00    +0.046 A 
ATOM      7  C   LIG    1       27.922 -19.790   5.770  0.00  0.00    +0.007 A 
BRANCH   2   8
ATOM      8  C   LIG    1       30.279 -19.141   6.432  0.00  0.00    +0.063 C 
BRANCH   8   9
ATOM      9  C   LIG    1       31.313 -19.343   7.550  0.00  0.00    +0.164 C 
BRANCH   9  11
ATOM     10  C   LIG    1       31.248 -17.528   9.057  0.00  0.00    +0.193 C 
ATOM     11  O   LIG    1       31.875 -18.077   7.903  0.00  0.00    -0.383 OA
ENDBRANCH   9  11
ENDBRANCH   8   9
ENDBRANCH   2   8
ENDBRANCH   1   5
BRANCH   1  12
ATOM     12  C   LIG    1       25.161 -23.184   6.958  0.00  0.00    +0.261 C 
BRANCH  12  13
ATOM     13  C   LIG    1       23.845 -23.239   6.190  0.00  0.00    +0.166 C 
BRANCH  13  14
ATOM     14  O   LIG    1       23.130 -24.414   6.601  0.00  0.00    -0.387 OA
ATOM     15  H   LIG    1       23.101 -24.372   7.576  0.00  0.00    +0.210 HD
ENDBRANCH  13  14
BRANCH  13  16
ATOM     16  C   LIG    1       22.988 -21.986   6.442  0.00  0.00    +0.115 C 
BRANCH  16  17
ATOM     17  N   LIG    1       22.527 -21.329   5.203  0.00  0.00    -0.311 NA
ATOM     18  H   LIG    1       21.536 -21.104   5.324  0.00  0.00    +0.122 HD
BRANCH  17  19
ATOM     19  C   LIG    1       23.254 -20.095   4.865  0.00  0.00    +0.048 C 
ATOM     20  C   LIG    1       22.332 -18.894   4.650  0.00  0.00    +0.024 C 
ATOM     21  C   LIG    1       24.089 -20.350   3.610  0.00  0.00    +0.024 C 
ENDBRANCH  17  19
ENDBRANCH  16  17
ENDBRANCH  13  16
ENDBRANCH  12  13
ENDBRANCH   1  12
TORSDOF 10
ENDMDL
MODEL 8
REMARK VINA RESULT:      -6.9      2.647      7.456
REMARK  Name = *****
REMARK                            x       y       z     vdW  Elec       q    Type
REMARK                         _______ _______ _______ _____ _____    ______ ____
ROOT
ATOM      1  O   LIG    1       26.656 -20.692   6.193  0.00  0.00    -0.489 OA
ENDROOT
BRANCH   1   5
ATOM      2  C   LIG    1       30.475 -19.397   7.329  0.00  0.00    -0.045 A 
ATOM      3  C   LIG    1       29.890 -20.554   7.888  0.00  0.00    +0.007 A 
ATOM      4  C   LIG    1       28.622 -20.982   7.468  0.00  0.00    +0.046 A 
ATOM      5  C   LIG    1       27.941 -20.294   6.471  0.00  0.00    +0.121 A 
ATOM      6  C   LIG    1       28.586 -19.229   5.828  0.00  0.00    +0.046 A 
ATOM      7  C   LIG    1       29.839 -18.796   6.252  0.00  0.00    +0.007 A 
BRANCH   2   8
ATOM      8  C   LIG    1       31.754 -18.838   7.909  0.00  0.00    +0.063 C 
BRANCH   8   9
ATOM      9  C   LIG    1       31.542 -17.692   8.910  0.00  0.00    +0.164 C 
BRANCH   9  11
ATOM     10  C   LIG    1       31.308 -17.451  11.245  0.00  0.00    +0.193 C 
ATOM     11  O   LIG    1       32.018 -18.098  10.196  0.00  0.00    -0.383 OA
ENDBRANCH   9  11
ENDBRANCH   8   9
ENDBRANCH   2   8
ENDBRANCH   1   5
BRANCH   1  12
ATOM     12  C   LIG    1       26.234 -21.888   6.858  0.00  0.00    +0.261 C 
BRANCH  12  13
ATOM     13  C   LIG    1       24.965 -21.682   7.677  0.00  0.00    +0.166 C 
BRANCH  13  14
ATOM     14  O   LIG    1       25.224 -20.678   8.669  0.00  0.00    -0.387 OA
ATOM     15  H   LIG    1       26.112 -20.882   9.019  0.00  0.00    +0.210 HD
ENDBRANCH  13  14
BRANCH  13  16
ATOM     16  C   LIG    1       23.781 -21.255   6.790  0.00  0.00    +0.115 C 
BRANCH  16  17
ATOM     17  N   LIG    1       23.975 -21.565   5.359  0.00  0.00    -0.311 NA
ATOM     18  H   LIG    1       23.507 -22.455   5.170  0.00  0.00    +0.122 HD
BRANCH  17  19
ATOM     19  C   LIG    1       23.442 -20.546   4.441  0.00  0.00    +0.048 C 
ATOM     20  C   LIG    1       24.533 -19.785   3.688  0.00  0.00    +0.024 C 
ATOM     21  C   LIG    1       22.578 -19.572   5.243  0.00  0.00    +0.024 C 
ENDBRANCH  17  19
ENDBRANCH  16  17
ENDBRANCH  13  16
ENDBRANCH  12  13
ENDBRANCH   1  12
TORSDOF 10
ENDMDL
MODEL 9
REMARK VINA RESULT:      -6.8      6.499      8.311
REMARK  Name = *****
REMARK                            x       y       z     vdW  Elec       q    Type
REMARK                         _______ _______ _______ _____ _____    ______ ____
ROOT
ATOM      1  O   LIG    1       25.633 -26.577   6.005  0.00  0.00    -0.489 OA
ENDROOT
BRANCH   1   5
ATOM      2  C   LIG    1       24.034 -22.844   7.037  0.00  0.00    -0.045 A 
ATOM      3  C   LIG    1       23.206 -23.929   6.676  0.00  0.00    +0.007 A 
ATOM      4  C   LIG    1       23.766 -25.176   6.363  0.00  0.00    +0.046 A 
ATOM      5  C   LIG    1       25.140 -25.372   6.440  0.00  0.00    +0.121 A 
ATOM      6  C   LIG    1       25.940 -24.330   6.930  0.00  0.00    +0.046 A 
ATOM      7  C   LIG    1       25.387 -23.088   7.229  0.00  0.00    +0.007 A 
BRANCH   2   8
ATOM      8  C   LIG    1       23.447 -21.461   7.196  0.00  0.00    +0.063 C 
BRANCH   8   9
ATOM      9  C   LIG    1       23.663 -20.543   5.982  0.00  0.00    +0.164 C 
BRANCH   9  11
ATOM     10  C   LIG    1       22.393 -19.075   4.642  0.00  0.00    +0.193 C 
ATOM     11  O   LIG    1       22.409 -20.317   5.336  0.00  0.00    -0.383 OA
ENDBRANCH   9  11
ENDBRANCH   8   9
ENDBRANCH   2   8
ENDBRANCH   1   5
BRANCH   1  12
ATOM     12  C   LIG    1       24.680 -27.420   5.348  0.00  0.00    +0.261 C 
BRANCH  12  13
ATOM     13  C   LIG    1       24.137 -28.510   6.266  0.00  0.00    +0.166 C 
BRANCH  13  14
ATOM     14  O   LIG    1       23.290 -29.373   5.492  0.00  0.00    -0.387 OA
ATOM     15  H   LIG    1       23.890 -30.030   5.088  0.00  0.00    +0.210 HD
ENDBRANCH  13  14
BRANCH  13  16
ATOM     16  C   LIG    1       25.271 -29.325   6.912  0.00  0.00    +0.115 C 
BRANCH  16  17
ATOM     17  N   LIG    1       25.984 -28.597   7.981  0.00  0.00    -0.311 NA
ATOM     18  H   LIG    1       25.448 -27.751   8.188  0.00  0.00    +0.122 HD
BRANCH  17  19
ATOM     19  C   LIG    1       26.158 -29.364   9.224  0.00  0.00    +0.048 C 
ATOM     20  C   LIG    1       24.853 -29.967   9.745  0.00  0.00    +0.024 C 
ATOM     21  C   LIG    1       26.773 -28.446  10.281  0.00  0.00    +0.024 C 
ENDBRANCH  17  19
ENDBRANCH  16  17
ENDBRANCH  13  16
ENDBRANCH  12  13
ENDBRANCH   1  12
TORSDOF 10
ENDMDL
