MODEL 1
REMARK VINA RESULT:      -8.0      0.000      0.000
REMARK  Name = *****
REMARK                            x       y       z     vdW  Elec       q    Type
REMARK                         _______ _______ _______ _____ _____    ______ ____
ROOT
ATOM      1  C   LIG    1       25.712 -24.860   6.575  0.00  0.00    +0.166 A 
ATOM      2  C   LIG    1       25.646 -23.511   6.967  0.00  0.00    +0.204 A 
ATOM      3  C   LIG    1       24.376 -23.059   7.146  0.00  0.00    +0.166 A 
ATOM      4  C   LIG    1       23.273 -23.776   6.605  0.00  0.00    +0.050 A 
ATOM      5  C   LIG    1       23.478 -25.054   6.081  0.00  0.00    +0.007 A 
ATOM      6  C   LIG    1       24.674 -25.597   5.975  0.00  0.00    +0.050 A 
ENDROOT
BRANCH   3   7
ATOM      7  O   LIG    1       24.140 -21.992   7.949  0.00  0.00    -0.483 OA
BRANCH   7   8
ATOM      8  C   LIG    1       23.618 -20.754   7.462  0.00  0.00    +0.280 C 
BRANCH   8   9
ATOM      9  C   LIG    1       24.301 -20.270   6.164  0.00  0.00    +0.175 C 
BRANCH   9  10
ATOM     10  N   LIG    1       23.393 -20.010   4.893  0.00  0.00    +0.245 N 
BRANCH  10  11
ATOM     11  C   LIG    1       22.708 -21.285   4.367  0.00  0.00    +0.130 C 
ATOM     12  C   LIG    1       21.214 -21.392   4.648  0.00  0.00    +0.060 C 
ENDBRANCH  10  11
BRANCH  10  13
ATOM     13  C   LIG    1       22.310 -18.908   5.176  0.00  0.00    +0.130 C 
ATOM     14  C   LIG    1       22.388 -17.661   4.299  0.00  0.00    +0.060 C 
ENDBRANCH  10  13
BRANCH  10  15
ATOM     15  C   LIG    1       24.413 -19.431   3.824  0.00  0.00    +0.130 C 
ATOM     16  C   LIG    1       25.891 -19.496   4.177  0.00  0.00    +0.060 C 
ENDBRANCH  10  15
ENDBRANCH   9  10
ENDBRANCH   8   9
ENDBRANCH   7   8
ENDBRANCH   3   7
BRANCH   2  17
ATOM     17  O   LIG    1       26.697 -22.772   7.570  0.00  0.00    -0.480 OA
BRANCH  17  18
ATOM     18  C   LIG    1       27.245 -21.675   6.905  0.00  0.00    +0.280 C 
BRANCH  18  19
ATOM     19  C   LIG    1       27.643 -20.548   7.825  0.00  0.00    +0.175 C 
BRANCH  19  20
ATOM     20  N   LIG    1       29.345 -19.969   7.888  0.00  0.00    +0.245 N 
BRANCH  20  21
ATOM     21  C   LIG    1       30.253 -21.559   8.220  0.00  0.00    +0.130 C 
ATOM     22  C   LIG    1       31.230 -21.786   9.343  0.00  0.00    +0.060 C 
ENDBRANCH  20  21
BRANCH  20  23
ATOM     23  C   LIG    1       29.762 -18.285   9.119  0.00  0.00    +0.130 C 
ATOM     24  C   LIG    1       31.270 -17.386   9.336  0.00  0.00    +0.060 C 
ENDBRANCH  20  23
BRANCH  20  25
ATOM     25  C   LIG    1       29.793 -19.634   6.214  0.00  0.00    +0.130 C 
ATOM     26  C   LIG    1       29.275 -18.365   5.495  0.00  0.00    +0.060 C 
ENDBRANCH  20  25
ENDBRANCH  19  20
ENDBRANCH  18  19
ENDBRANCH  17  18
ENDBRANCH   2  17
BRANCH   1  27
ATOM     27  O   LIG    1       26.259 -25.654   7.502  0.00  0.00    -0.483 OA
BRANCH  27  28
ATOM     28  C   LIG    1       26.586 -27.015   7.384  0.00  0.00    +0.280 C 
BRANCH  28  29
ATOM     29  C   LIG    1       25.994 -28.245   8.501  0.00  0.00    +0.175 C 
BRANCH  29  30
ATOM     30  N   LIG    1       25.354 -30.051   8.115  0.00  0.00    +0.245 N 
BRANCH  30  31
ATOM     31  C   LIG    1       23.833 -30.246   9.032  0.00  0.00    +0.130 C 
ATOM     32  C   LIG    1       24.109 -30.131  10.533  0.00  0.00    +0.060 C 
ENDBRANCH  30  31
BRANCH  30  33
ATOM     33  C   LIG    1       26.415 -31.730   8.417  0.00  0.00    +0.130 C 
ATOM     34  C   LIG    1       27.356 -32.790   7.117  0.00  0.00    +0.060 C 
ENDBRANCH  30  33
BRANCH  30  36
ATOM     35  C   LIG    1       25.026 -29.741   5.303  0.00  0.00    +0.060 C 
ATOM     36  C   LIG    1       24.508 -30.084   6.632  0.00  0.00    +0.130 C 
ENDBRANCH  30  36
ENDBRANCH  29  30
ENDBRANCH  28  29
ENDBRANCH  27  28
ENDBRANCH   1  27
TORSDOF 21
ENDMDL
MODEL 2
REMARK VINA RESULT:      -8.0      3.265      6.986
REMARK  Name = *****
REMARK                            x       y       z     vdW  Elec       q    Type
REMARK                         _______ _______ _______ _____ _____    ______ ____
ROOT
ATOM      1  C   LIG    1       24.865 -29.378   7.316  0.00  0.00    +0.166 A 
ATOM      2  C   LIG    1       25.705 -28.289   7.606  0.00  0.00    +0.204 A 
ATOM      3  C   LIG    1       25.575 -27.256   6.731  0.00  0.00    +0.166 A 
ATOM      4  C   LIG    1       24.952 -27.455   5.468  0.00  0.00    +0.050 A 
ATOM      5  C   LIG    1       24.280 -28.654   5.218  0.00  0.00    +0.007 A 
ATOM      6  C   LIG    1       24.276 -29.659   6.070  0.00  0.00    +0.050 A 
ENDROOT
BRANCH   3   7
ATOM      7  O   LIG    1       25.923 -25.999   7.104  0.00  0.00    -0.483 OA
BRANCH   7   8
ATOM      8  C   LIG    1       25.789 -24.868   6.242  0.00  0.00    +0.280 C 
BRANCH   8   9
ATOM      9  C   LIG    1       25.882 -23.518   6.984  0.00  0.00    +0.175 C 
BRANCH   9  10
ATOM     10  N   LIG    1       24.936 -22.338   6.513  0.00  0.00    +0.245 N 
BRANCH  10  11
ATOM     11  C   LIG    1       24.695 -22.326   4.992  0.00  0.00    +0.130 C 
ATOM     12  C   LIG    1       24.386 -20.962   4.387  0.00  0.00    +0.060 C 
ENDBRANCH  10  11
BRANCH  10  13
ATOM     13  C   LIG    1       23.557 -22.371   7.265  0.00  0.00    +0.130 C 
ATOM     14  C   LIG    1       22.549 -23.399   6.757  0.00  0.00    +0.060 C 
ENDBRANCH  10  13
BRANCH  10  15
ATOM     15  C   LIG    1       25.714 -21.035   6.974  0.00  0.00    +0.130 C 
ATOM     16  C   LIG    1       25.901 -20.838   8.471  0.00  0.00    +0.060 C 
ENDBRANCH  10  15
ENDBRANCH   9  10
ENDBRANCH   8   9
ENDBRANCH   7   8
ENDBRANCH   3   7
BRANCH   2  17
ATOM     17  O   LIG    1       26.297 -28.011   8.866  0.00  0.00    -0.480 OA
BRANCH  17  18
ATOM     18  C   LIG    1       26.697 -29.062   9.692  0.00  0.00    +0.280 C 
BRANCH  18  19
ATOM     19  C   LIG    1       26.004 -29.075  11.031  0.00  0.00    +0.175 C 
BRANCH  19  20
ATOM     20  N   LIG    1       26.897 -28.651  12.533  0.00  0.00    +0.245 N 
BRANCH  20  21
ATOM     21  C   LIG    1       26.785 -26.793  12.505  0.00  0.00    +0.130 C 
ATOM     22  C   LIG    1       27.253 -25.875  13.602  0.00  0.00    +0.060 C 
ENDBRANCH  20  21
BRANCH  20  23
ATOM     23  C   LIG    1       28.804 -29.547  12.826  0.00  0.00    +0.130 C 
ATOM     24  C   LIG    1       29.936 -29.386  14.176  0.00  0.00    +0.060 C 
ENDBRANCH  20  23
BRANCH  20  25
ATOM     25  C   LIG    1       25.811 -29.063  13.862  0.00  0.00    +0.130 C 
ATOM     26  C   LIG    1       26.338 -29.157  15.314  0.00  0.00    +0.060 C 
ENDBRANCH  20  25
ENDBRANCH  19  20
ENDBRANCH  18  19
ENDBRANCH  17  18
ENDBRANCH   2  17
BRANCH   1  27
ATOM     27  O   LIG    1       23.917 -29.575   8.240  0.00  0.00    -0.483 OA
BRANCH  27  28
ATOM     28  C   LIG    1       23.561 -30.782   8.864  0.00  0.00    +0.280 C 
BRANCH  28  29
ATOM     29  C   LIG    1       22.295 -30.895  10.087  0.00  0.00    +0.175 C 
BRANCH  29  30
ATOM     30  N   LIG    1       22.362 -30.403  11.977  0.00  0.00    +0.245 N 
BRANCH  30  31
ATOM     31  C   LIG    1       20.958 -31.195  12.747  0.00  0.00    +0.130 C 
ATOM     32  C   LIG    1       19.665 -30.754  12.058  0.00  0.00    +0.060 C 
ENDBRANCH  30  31
BRANCH  30  33
ATOM     33  C   LIG    1       22.395 -28.516  12.668  0.00  0.00    +0.130 C 
ATOM     34  C   LIG    1       20.908 -27.327  12.948  0.00  0.00    +0.060 C 
ENDBRANCH  30  33
BRANCH  30  36
ATOM     35  C   LIG    1       24.551 -32.202  12.264  0.00  0.00    +0.060 C 
ATOM     36  C   LIG    1       23.445 -31.415  12.823  0.00  0.00    +0.130 C 
ENDBRANCH  30  36
ENDBRANCH  29  30
ENDBRANCH  28  29
ENDBRANCH  27  28
ENDBRANCH   1  27
TORSDOF 21
ENDMDL
MODEL 3
REMARK VINA RESULT:      -7.9      2.694      9.159
REMARK  Name = *****
REMARK                            x       y       z     vdW  Elec       q    Type
REMARK                         _______ _______ _______ _____ _____    ______ ____
ROOT
ATOM      1  C   LIG    1       24.688 -19.580   5.086  0.00  0.00    +0.166 A 
ATOM      2  C   LIG    1       25.209 -20.629   5.864  0.00  0.00    +0.204 A 
ATOM      3  C   LIG    1       24.401 -21.722   5.913  0.00  0.00    +0.166 A 
ATOM      4  C   LIG    1       23.032 -21.624   5.541  0.00  0.00    +0.050 A 
ATOM      5  C   LIG    1       22.573 -20.459   4.921  0.00  0.00    +0.007 A 
ATOM      6  C   LIG    1       23.335 -19.398   4.746  0.00  0.00    +0.050 A 
ENDROOT
BRANCH   3   7
ATOM      7  O   LIG    1       24.923 -22.943   6.193  0.00  0.00    -0.483 OA
BRANCH   7   8
ATOM      8  C   LIG    1       24.774 -24.068   5.325  0.00  0.00    +0.280 C 
BRANCH   8   9
ATOM      9  C   LIG    1       24.120 -25.287   6.009  0.00  0.00    +0.175 C 
BRANCH   9  10
ATOM     10  N   LIG    1       24.919 -26.655   6.024  0.00  0.00    +0.245 N 
BRANCH  10  11
ATOM     11  C   LIG    1       24.033 -27.870   6.353  0.00  0.00    +0.130 C 
ATOM     12  C   LIG    1       24.280 -29.111   5.504  0.00  0.00    +0.060 C 
ENDBRANCH  10  11
BRANCH  10  13
ATOM     13  C   LIG    1       25.666 -26.899   4.664  0.00  0.00    +0.130 C 
ATOM     14  C   LIG    1       27.176 -27.104   4.765  0.00  0.00    +0.060 C 
ENDBRANCH  10  13
BRANCH  10  15
ATOM     15  C   LIG    1       26.013 -26.429   7.151  0.00  0.00    +0.130 C 
ATOM     16  C   LIG    1       26.324 -27.611   8.056  0.00  0.00    +0.060 C 
ENDBRANCH  10  15
ENDBRANCH   9  10
ENDBRANCH   8   9
ENDBRANCH   7   8
ENDBRANCH   3   7
BRANCH   2  17
ATOM     17  O   LIG    1       26.575 -20.807   6.206  0.00  0.00    -0.480 OA
BRANCH  17  18
ATOM     18  C   LIG    1       27.046 -20.360   7.441  0.00  0.00    +0.280 C 
BRANCH  18  19
ATOM     19  C   LIG    1       28.397 -20.918   7.811  0.00  0.00    +0.175 C 
BRANCH  19  20
ATOM     20  N   LIG    1       29.826 -19.838   7.972  0.00  0.00    +0.245 N 
BRANCH  20  21
ATOM     21  C   LIG    1       31.164 -21.070   8.368  0.00  0.00    +0.130 C 
ATOM     22  C   LIG    1       31.103 -22.102   9.461  0.00  0.00    +0.060 C 
ENDBRANCH  20  21
BRANCH  20  23
ATOM     23  C   LIG    1       29.624 -18.125   9.216  0.00  0.00    +0.130 C 
ATOM     24  C   LIG    1       30.502 -17.683  10.687  0.00  0.00    +0.060 C 
ENDBRANCH  20  23
BRANCH  20  25
ATOM     25  C   LIG    1       30.245 -19.358   6.326  0.00  0.00    +0.130 C 
ATOM     26  C   LIG    1       29.360 -18.359   5.544  0.00  0.00    +0.060 C 
ENDBRANCH  20  25
ENDBRANCH  19  20
ENDBRANCH  18  19
ENDBRANCH  17  18
ENDBRANCH   2  17
BRANCH   1  27
ATOM     27  O   LIG    1       25.397 -19.342   3.977  0.00  0.00    -0.483 OA
BRANCH  27  28
ATOM     28  C   LIG    1       25.324 -18.221   3.134  0.00  0.00    +0.280 C 
BRANCH  28  29
ATOM     29  C   LIG    1       26.301 -16.773   3.373  0.00  0.00    +0.175 C 
BRANCH  29  30
ATOM     30  N   LIG    1       25.722 -14.949   3.772  0.00  0.00    +0.245 N 
BRANCH  30  31
ATOM     31  C   LIG    1       27.143 -14.116   4.464  0.00  0.00    +0.130 C 
ATOM     32  C   LIG    1       26.829 -13.639   5.884  0.00  0.00    +0.060 C 
ENDBRANCH  30  31
BRANCH  30  33
ATOM     33  C   LIG    1       24.162 -14.475   4.946  0.00  0.00    +0.130 C 
ATOM     34  C   LIG    1       22.499 -15.419   5.150  0.00  0.00    +0.060 C 
ENDBRANCH  30  33
BRANCH  30  36
ATOM     35  C   LIG    1       24.670 -13.577   1.508  0.00  0.00    +0.060 C 
ATOM     36  C   LIG    1       25.789 -13.978   2.369  0.00  0.00    +0.130 C 
ENDBRANCH  30  36
ENDBRANCH  29  30
ENDBRANCH  28  29
ENDBRANCH  27  28
ENDBRANCH   1  27
TORSDOF 21
ENDMDL
MODEL 4
REMARK VINA RESULT:      -7.8      3.230      6.987
REMARK  Name = *****
REMARK                            x       y       z     vdW  Elec       q    Type
REMARK                         _______ _______ _______ _____ _____    ______ ____
ROOT
ATOM      1  C   LIG    1       24.780 -29.525   7.437  0.00  0.00    +0.166 A 
ATOM      2  C   LIG    1       25.606 -28.414   7.683  0.00  0.00    +0.204 A 
ATOM      3  C   LIG    1       25.487 -27.432   6.751  0.00  0.00    +0.166 A 
ATOM      4  C   LIG    1       24.890 -27.704   5.489  0.00  0.00    +0.050 A 
ATOM      5  C   LIG    1       24.233 -28.920   5.291  0.00  0.00    +0.007 A 
ATOM      6  C   LIG    1       24.219 -29.878   6.197  0.00  0.00    +0.050 A 
ENDROOT
BRANCH   3   7
ATOM      7  O   LIG    1       25.818 -26.154   7.062  0.00  0.00    -0.483 OA
BRANCH   7   8
ATOM      8  C   LIG    1       26.121 -25.168   6.074  0.00  0.00    +0.280 C 
BRANCH   8   9
ATOM      9  C   LIG    1       24.918 -24.266   5.720  0.00  0.00    +0.175 C 
BRANCH   9  10
ATOM     10  N   LIG    1       24.964 -22.748   6.169  0.00  0.00    +0.245 N 
BRANCH  10  11
ATOM     11  C   LIG    1       26.230 -22.391   6.971  0.00  0.00    +0.130 C 
ATOM     12  C   LIG    1       25.994 -21.968   8.416  0.00  0.00    +0.060 C 
ENDBRANCH  10  11
BRANCH  10  13
ATOM     13  C   LIG    1       24.829 -21.780   4.940  0.00  0.00    +0.130 C 
ATOM     14  C   LIG    1       25.505 -20.419   5.090  0.00  0.00    +0.060 C 
ENDBRANCH  10  13
BRANCH  10  15
ATOM     15  C   LIG    1       23.663 -22.589   7.064  0.00  0.00    +0.130 C 
ATOM     16  C   LIG    1       22.517 -23.552   6.790  0.00  0.00    +0.060 C 
ENDBRANCH  10  15
ENDBRANCH   9  10
ENDBRANCH   8   9
ENDBRANCH   7   8
ENDBRANCH   3   7
BRANCH   2  17
ATOM     17  O   LIG    1       26.171 -28.064   8.938  0.00  0.00    -0.480 OA
BRANCH  17  18
ATOM     18  C   LIG    1       26.576 -29.065   9.821  0.00  0.00    +0.280 C 
BRANCH  18  19
ATOM     19  C   LIG    1       27.284 -28.541  11.046  0.00  0.00    +0.175 C 
BRANCH  19  20
ATOM     20  N   LIG    1       26.354 -28.021  12.494  0.00  0.00    +0.245 N 
BRANCH  20  21
ATOM     21  C   LIG    1       27.368 -28.774  13.861  0.00  0.00    +0.130 C 
ATOM     22  C   LIG    1       26.958 -28.858  15.307  0.00  0.00    +0.060 C 
ENDBRANCH  20  21
BRANCH  20  23
ATOM     23  C   LIG    1       24.254 -28.360  12.484  0.00  0.00    +0.130 C 
ATOM     24  C   LIG    1       22.943 -27.368  13.137  0.00  0.00    +0.060 C 
ENDBRANCH  20  23
BRANCH  20  25
ATOM     25  C   LIG    1       26.700 -26.301  12.687  0.00  0.00    +0.130 C 
ATOM     26  C   LIG    1       25.917 -25.447  13.713  0.00  0.00    +0.060 C 
ENDBRANCH  20  25
ENDBRANCH  19  20
ENDBRANCH  18  19
ENDBRANCH  17  18
ENDBRANCH   2  17
BRANCH   1  27
ATOM     27  O   LIG    1       23.815 -29.679   8.352  0.00  0.00    -0.483 OA
BRANCH  27  28
ATOM     28  C   LIG    1       23.524 -30.825   9.110  0.00  0.00    +0.280 C 
BRANCH  28  29
ATOM     29  C   LIG    1       22.379 -30.823  10.451  0.00  0.00    +0.175 C 
BRANCH  29  30
ATOM     30  N   LIG    1       22.479 -31.773  12.156  0.00  0.00    +0.245 N 
BRANCH  30  31
ATOM     31  C   LIG    1       21.760 -33.384  11.871  0.00  0.00    +0.130 C 
ATOM     32  C   LIG    1       20.247 -33.256  11.685  0.00  0.00    +0.060 C 
ENDBRANCH  30  31
BRANCH  30  33
ATOM     33  C   LIG    1       21.702 -31.106  13.885  0.00  0.00    +0.130 C 
ATOM     34  C   LIG    1       20.263 -29.854  14.136  0.00  0.00    +0.060 C 
ENDBRANCH  30  33
BRANCH  30  36
ATOM     35  C   LIG    1       25.323 -31.775  12.302  0.00  0.00    +0.060 C 
ATOM     36  C   LIG    1       24.027 -32.460  12.371  0.00  0.00    +0.130 C 
ENDBRANCH  30  36
ENDBRANCH  29  30
ENDBRANCH  28  29
ENDBRANCH  27  28
ENDBRANCH   1  27
TORSDOF 21
ENDMDL
MODEL 5
REMARK VINA RESULT:      -7.8      0.986      2.302
REMARK  Name = *****
REMARK                            x       y       z     vdW  Elec       q    Type
REMARK                         _______ _______ _______ _____ _____    ______ ____
ROOT
ATOM      1  C   LIG    1       25.573 -24.780   6.494  0.00  0.00    +0.166 A 
ATOM      2  C   LIG    1       25.652 -23.444   6.924  0.00  0.00    +0.204 A 
ATOM      3  C   LIG    1       24.441 -22.889   7.200  0.00  0.00    +0.166 A 
ATOM      4  C   LIG    1       23.247 -23.490   6.716  0.00  0.00    +0.050 A 
ATOM      5  C   LIG    1       23.304 -24.764   6.146  0.00  0.00    +0.007 A 
ATOM      6  C   LIG    1       24.438 -25.405   5.947  0.00  0.00    +0.050 A 
ENDROOT
BRANCH   3   7
ATOM      7  O   LIG    1       24.353 -21.831   8.044  0.00  0.00    -0.483 OA
BRANCH   7   8
ATOM      8  C   LIG    1       24.140 -20.493   7.592  0.00  0.00    +0.280 C 
BRANCH   8   9
ATOM      9  C   LIG    1       23.002 -20.371   6.555  0.00  0.00    +0.175 C 
BRANCH   9  10
ATOM     10  N   LIG    1       23.366 -19.853   5.103  0.00  0.00    +0.245 N 
BRANCH  10  11
ATOM     11  C   LIG    1       22.666 -18.531   4.738  0.00  0.00    +0.130 C 
ATOM     12  C   LIG    1       21.472 -18.658   3.801  0.00  0.00    +0.060 C 
ENDBRANCH  10  11
BRANCH  10  13
ATOM     13  C   LIG    1       24.919 -19.695   4.921  0.00  0.00    +0.130 C 
ATOM     14  C   LIG    1       25.364 -18.826   3.748  0.00  0.00    +0.060 C 
ENDBRANCH  10  13
BRANCH  10  15
ATOM     15  C   LIG    1       22.880 -21.032   4.159  0.00  0.00    +0.130 C 
ATOM     16  C   LIG    1       23.960 -21.879   3.503  0.00  0.00    +0.060 C 
ENDBRANCH  10  15
ENDBRANCH   9  10
ENDBRANCH   8   9
ENDBRANCH   7   8
ENDBRANCH   3   7
BRANCH   2  17
ATOM     17  O   LIG    1       26.801 -22.817   7.475  0.00  0.00    -0.480 OA
BRANCH  17  18
ATOM     18  C   LIG    1       27.311 -21.660   6.885  0.00  0.00    +0.280 C 
BRANCH  18  19
ATOM     19  C   LIG    1       27.744 -20.615   7.882  0.00  0.00    +0.175 C 
BRANCH  19  20
ATOM     20  N   LIG    1       29.414 -19.948   7.850  0.00  0.00    +0.245 N 
BRANCH  20  21
ATOM     21  C   LIG    1       30.419 -21.485   8.153  0.00  0.00    +0.130 C 
ATOM     22  C   LIG    1       31.027 -21.883   9.471  0.00  0.00    +0.060 C 
ENDBRANCH  20  21
BRANCH  20  23
ATOM     23  C   LIG    1       29.805 -18.229   9.040  0.00  0.00    +0.130 C 
ATOM     24  C   LIG    1       31.349 -17.512   9.521  0.00  0.00    +0.060 C 
ENDBRANCH  20  23
BRANCH  20  25
ATOM     25  C   LIG    1       29.758 -19.614   6.152  0.00  0.00    +0.130 C 
ATOM     26  C   LIG    1       29.189 -18.350   5.463  0.00  0.00    +0.060 C 
ENDBRANCH  20  25
ENDBRANCH  19  20
ENDBRANCH  18  19
ENDBRANCH  17  18
ENDBRANCH   2  17
BRANCH   1  27
ATOM     27  O   LIG    1       26.107 -25.647   7.362  0.00  0.00    -0.483 OA
BRANCH  27  28
ATOM     28  C   LIG    1       26.447 -26.991   7.136  0.00  0.00    +0.280 C 
BRANCH  28  29
ATOM     29  C   LIG    1       25.510 -28.340   7.777  0.00  0.00    +0.175 C 
BRANCH  29  30
ATOM     30  N   LIG    1       25.721 -29.289   9.472  0.00  0.00    +0.245 N 
BRANCH  30  31
ATOM     31  C   LIG    1       26.701 -30.739   9.112  0.00  0.00    +0.130 C 
ATOM     32  C   LIG    1       25.870 -31.748   8.315  0.00  0.00    +0.060 C 
ENDBRANCH  30  31
BRANCH  30  33
ATOM     33  C   LIG    1       24.203 -29.908  10.635  0.00  0.00    +0.130 C 
ATOM     34  C   LIG    1       22.647 -30.915  10.120  0.00  0.00    +0.060 C 
ENDBRANCH  30  33
BRANCH  30  36
ATOM     35  C   LIG    1       26.885 -27.636  11.479  0.00  0.00    +0.060 C 
ATOM     36  C   LIG    1       26.994 -28.610  10.386  0.00  0.00    +0.130 C 
ENDBRANCH  30  36
ENDBRANCH  29  30
ENDBRANCH  28  29
ENDBRANCH  27  28
ENDBRANCH   1  27
TORSDOF 21
ENDMDL
MODEL 6
REMARK VINA RESULT:      -7.7      3.097      6.908
REMARK  Name = *****
REMARK                            x       y       z     vdW  Elec       q    Type
REMARK                         _______ _______ _______ _____ _____    ______ ____
ROOT
ATOM      1  C   LIG    1       24.948 -29.280   7.261  0.00  0.00    +0.166 A 
ATOM      2  C   LIG    1       25.736 -28.182   7.649  0.00  0.00    +0.204 A 
ATOM      3  C   LIG    1       25.677 -27.138   6.780  0.00  0.00    +0.166 A 
ATOM      4  C   LIG    1       25.187 -27.326   5.459  0.00  0.00    +0.050 A 
ATOM      5  C   LIG    1       24.566 -28.531   5.125  0.00  0.00    +0.007 A 
ATOM      6  C   LIG    1       24.494 -29.550   5.957  0.00  0.00    +0.050 A 
ENDROOT
BRANCH   3   7
ATOM      7  O   LIG    1       25.963 -25.882   7.205  0.00  0.00    -0.483 OA
BRANCH   7   8
ATOM      8  C   LIG    1       25.840 -24.732   6.366  0.00  0.00    +0.280 C 
BRANCH   8   9
ATOM      9  C   LIG    1       25.812 -23.402   7.151  0.00  0.00    +0.175 C 
BRANCH   9  10
ATOM     10  N   LIG    1       24.859 -22.248   6.633  0.00  0.00    +0.245 N 
BRANCH  10  11
ATOM     11  C   LIG    1       24.744 -22.200   5.098  0.00  0.00    +0.130 C 
ATOM     12  C   LIG    1       24.836 -20.812   4.476  0.00  0.00    +0.060 C 
ENDBRANCH  10  11
BRANCH  10  13
ATOM     13  C   LIG    1       23.425 -22.359   7.266  0.00  0.00    +0.130 C 
ATOM     14  C   LIG    1       22.540 -23.472   6.711  0.00  0.00    +0.060 C 
ENDBRANCH  10  13
BRANCH  10  15
ATOM     15  C   LIG    1       25.540 -20.929   7.193  0.00  0.00    +0.130 C 
ATOM     16  C   LIG    1       26.749 -21.109   8.098  0.00  0.00    +0.060 C 
ENDBRANCH  10  15
ENDBRANCH   9  10
ENDBRANCH   8   9
ENDBRANCH   7   8
ENDBRANCH   3   7
BRANCH   2  17
ATOM     17  O   LIG    1       26.193 -27.916   8.966  0.00  0.00    -0.480 OA
BRANCH  17  18
ATOM     18  C   LIG    1       26.872 -28.905   9.679  0.00  0.00    +0.280 C 
BRANCH  18  19
ATOM     19  C   LIG    1       26.089 -29.453  10.846  0.00  0.00    +0.175 C 
BRANCH  19  20
ATOM     20  N   LIG    1       25.888 -28.493  12.353  0.00  0.00    +0.245 N 
BRANCH  20  21
ATOM     21  C   LIG    1       24.053 -28.636  12.628  0.00  0.00    +0.130 C 
ATOM     22  C   LIG    1       23.164 -27.545  13.161  0.00  0.00    +0.060 C 
ENDBRANCH  20  21
BRANCH  20  23
ATOM     23  C   LIG    1       26.775 -26.561  12.409  0.00  0.00    +0.130 C 
ATOM     24  C   LIG    1       27.256 -25.575  13.796  0.00  0.00    +0.060 C 
ENDBRANCH  20  23
BRANCH  20  25
ATOM     25  C   LIG    1       26.532 -29.505  13.648  0.00  0.00    +0.130 C 
ATOM     26  C   LIG    1       28.059 -29.695  13.818  0.00  0.00    +0.060 C 
ENDBRANCH  20  25
ENDBRANCH  19  20
ENDBRANCH  18  19
ENDBRANCH  17  18
ENDBRANCH   2  17
BRANCH   1  27
ATOM     27  O   LIG    1       23.916 -29.507   8.081  0.00  0.00    -0.483 OA
BRANCH  27  28
ATOM     28  C   LIG    1       23.610 -30.691   8.772  0.00  0.00    +0.280 C 
BRANCH  28  29
ATOM     29  C   LIG    1       22.440 -30.759  10.089  0.00  0.00    +0.175 C 
BRANCH  29  30
ATOM     30  N   LIG    1       22.363 -31.992  11.604  0.00  0.00    +0.245 N 
BRANCH  30  31
ATOM     31  C   LIG    1       21.261 -33.311  11.116  0.00  0.00    +0.130 C 
ATOM     32  C   LIG    1       19.867 -32.749  10.827  0.00  0.00    +0.060 C 
ENDBRANCH  30  31
BRANCH  30  33
ATOM     33  C   LIG    1       21.835 -31.477  13.473  0.00  0.00    +0.130 C 
ATOM     34  C   LIG    1       20.107 -30.916  14.107  0.00  0.00    +0.060 C 
ENDBRANCH  30  33
BRANCH  30  36
ATOM     35  C   LIG    1       25.071 -32.766  12.027  0.00  0.00    +0.060 C 
ATOM     36  C   LIG    1       23.701 -33.052  11.584  0.00  0.00    +0.130 C 
ENDBRANCH  30  36
ENDBRANCH  29  30
ENDBRANCH  28  29
ENDBRANCH  27  28
ENDBRANCH   1  27
TORSDOF 21
ENDMDL
MODEL 7
REMARK VINA RESULT:      -7.7      3.184      7.064
REMARK  Name = *****
REMARK                            x       y       z     vdW  Elec       q    Type
REMARK                         _______ _______ _______ _____ _____    ______ ____
ROOT
ATOM      1  C   LIG    1       24.836 -29.406   7.159  0.00  0.00    +0.166 A 
ATOM      2  C   LIG    1       25.628 -28.347   7.636  0.00  0.00    +0.204 A 
ATOM      3  C   LIG    1       25.641 -27.265   6.812  0.00  0.00    +0.166 A 
ATOM      4  C   LIG    1       25.219 -27.384   5.459  0.00  0.00    +0.050 A 
ATOM      5  C   LIG    1       24.587 -28.557   5.040  0.00  0.00    +0.007 A 
ATOM      6  C   LIG    1       24.446 -29.608   5.823  0.00  0.00    +0.050 A 
ENDROOT
BRANCH   3   7
ATOM      7  O   LIG    1       25.934 -26.036   7.306  0.00  0.00    -0.483 OA
BRANCH   7   8
ATOM      8  C   LIG    1       25.828 -24.842   6.529  0.00  0.00    +0.280 C 
BRANCH   8   9
ATOM      9  C   LIG    1       25.706 -23.563   7.387  0.00  0.00    +0.175 C 
BRANCH   9  10
ATOM     10  N   LIG    1       25.005 -22.296   6.744  0.00  0.00    +0.245 N 
BRANCH  10  11
ATOM     11  C   LIG    1       25.667 -20.967   7.150  0.00  0.00    +0.130 C 
ATOM     12  C   LIG    1       27.084 -20.753   6.632  0.00  0.00    +0.060 C 
ENDBRANCH  10  11
BRANCH  10  13
ATOM     13  C   LIG    1       24.951 -22.402   5.178  0.00  0.00    +0.130 C 
ATOM     14  C   LIG    1       24.202 -21.279   4.463  0.00  0.00    +0.060 C 
ENDBRANCH  10  13
BRANCH  10  15
ATOM     15  C   LIG    1       23.519 -22.381   7.292  0.00  0.00    +0.130 C 
ATOM     16  C   LIG    1       22.643 -23.497   6.741  0.00  0.00    +0.060 C 
ENDBRANCH  10  15
ENDBRANCH   9  10
ENDBRANCH   8   9
ENDBRANCH   7   8
ENDBRANCH   3   7
BRANCH   2  17
ATOM     17  O   LIG    1       26.020 -28.149   8.986  0.00  0.00    -0.480 OA
BRANCH  17  18
ATOM     18  C   LIG    1       27.135 -28.819   9.490  0.00  0.00    +0.280 C 
BRANCH  18  19
ATOM     19  C   LIG    1       26.809 -29.780  10.606  0.00  0.00    +0.175 C 
BRANCH  19  20
ATOM     20  N   LIG    1       26.742 -29.219  12.313  0.00  0.00    +0.245 N 
BRANCH  20  21
ATOM     21  C   LIG    1       25.904 -30.664  13.133  0.00  0.00    +0.130 C 
ATOM     22  C   LIG    1       25.202 -30.624  14.464  0.00  0.00    +0.060 C 
ENDBRANCH  20  21
BRANCH  20  23
ATOM     23  C   LIG    1       25.979 -27.266  12.673  0.00  0.00    +0.130 C 
ATOM     24  C   LIG    1       26.838 -25.768  13.060  0.00  0.00    +0.060 C 
ENDBRANCH  20  23
BRANCH  20  25
ATOM     25  C   LIG    1       28.393 -29.358  12.923  0.00  0.00    +0.130 C 
ATOM     26  C   LIG    1       28.742 -28.924  14.367  0.00  0.00    +0.060 C 
ENDBRANCH  20  25
ENDBRANCH  19  20
ENDBRANCH  18  19
ENDBRANCH  17  18
ENDBRANCH   2  17
BRANCH   1  27
ATOM     27  O   LIG    1       23.756 -29.640   7.913  0.00  0.00    -0.483 OA
BRANCH  27  28
ATOM     28  C   LIG    1       23.623 -30.565   8.961  0.00  0.00    +0.280 C 
BRANCH  28  29
ATOM     29  C   LIG    1       23.361 -30.086  10.638  0.00  0.00    +0.175 C 
BRANCH  29  30
ATOM     30  N   LIG    1       21.820 -30.431  11.789  0.00  0.00    +0.245 N 
BRANCH  30  31
ATOM     31  C   LIG    1       21.314 -28.842  12.432  0.00  0.00    +0.130 C 
ATOM     32  C   LIG    1       22.401 -28.279  13.350  0.00  0.00    +0.060 C 
ENDBRANCH  30  31
BRANCH  30  33
ATOM     33  C   LIG    1       21.817 -31.698  13.349  0.00  0.00    +0.130 C 
ATOM     34  C   LIG    1       20.628 -31.718  14.861  0.00  0.00    +0.060 C 
ENDBRANCH  30  33
BRANCH  30  36
ATOM     35  C   LIG    1       19.822 -31.762  10.256  0.00  0.00    +0.060 C 
ATOM     36  C   LIG    1       20.392 -30.552  10.861  0.00  0.00    +0.130 C 
ENDBRANCH  30  36
ENDBRANCH  29  30
ENDBRANCH  28  29
ENDBRANCH  27  28
ENDBRANCH   1  27
TORSDOF 21
ENDMDL
MODEL 8
REMARK VINA RESULT:      -7.6      3.203      7.439
REMARK  Name = *****
REMARK                            x       y       z     vdW  Elec       q    Type
REMARK                         _______ _______ _______ _____ _____    ______ ____
ROOT
ATOM      1  C   LIG    1       24.833 -29.336   7.214  0.00  0.00    +0.166 A 
ATOM      2  C   LIG    1       25.712 -28.272   7.483  0.00  0.00    +0.204 A 
ATOM      3  C   LIG    1       25.690 -27.297   6.536  0.00  0.00    +0.166 A 
ATOM      4  C   LIG    1       25.131 -27.551   5.253  0.00  0.00    +0.050 A 
ATOM      5  C   LIG    1       24.411 -28.729   5.041  0.00  0.00    +0.007 A 
ATOM      6  C   LIG    1       24.303 -29.672   5.955  0.00  0.00    +0.050 A 
ENDROOT
BRANCH   3   7
ATOM      7  O   LIG    1       26.083 -26.036   6.846  0.00  0.00    -0.483 OA
BRANCH   7   8
ATOM      8  C   LIG    1       25.310 -24.880   6.521  0.00  0.00    +0.280 C 
BRANCH   8   9
ATOM      9  C   LIG    1       26.001 -23.554   6.905  0.00  0.00    +0.175 C 
BRANCH   9  10
ATOM     10  N   LIG    1       25.239 -22.198   6.602  0.00  0.00    +0.245 N 
BRANCH  10  11
ATOM     11  C   LIG    1       26.031 -20.949   7.030  0.00  0.00    +0.130 C 
ATOM     12  C   LIG    1       26.025 -20.647   8.523  0.00  0.00    +0.060 C 
ENDBRANCH  10  11
BRANCH  10  13
ATOM     13  C   LIG    1       24.851 -22.083   5.085  0.00  0.00    +0.130 C 
ATOM     14  C   LIG    1       24.979 -20.691   4.472  0.00  0.00    +0.060 C 
ENDBRANCH  10  13
BRANCH  10  15
ATOM     15  C   LIG    1       23.899 -22.335   7.441  0.00  0.00    +0.130 C 
ATOM     16  C   LIG    1       22.623 -22.619   6.662  0.00  0.00    +0.060 C 
ENDBRANCH  10  15
ENDBRANCH   9  10
ENDBRANCH   8   9
ENDBRANCH   7   8
ENDBRANCH   3   7
BRANCH   2  17
ATOM     17  O   LIG    1       26.245 -27.939   8.756  0.00  0.00    -0.480 OA
BRANCH  17  18
ATOM     18  C   LIG    1       26.738 -28.945   9.587  0.00  0.00    +0.280 C 
BRANCH  18  19
ATOM     19  C   LIG    1       27.219 -28.441  10.925  0.00  0.00    +0.175 C 
BRANCH  19  20
ATOM     20  N   LIG    1       26.757 -29.281  12.446  0.00  0.00    +0.245 N 
BRANCH  20  21
ATOM     21  C   LIG    1       28.370 -29.259  13.374  0.00  0.00    +0.130 C 
ATOM     22  C   LIG    1       28.699 -30.111  14.570  0.00  0.00    +0.060 C 
ENDBRANCH  20  21
BRANCH  20  23
ATOM     23  C   LIG    1       25.714 -31.127  12.267  0.00  0.00    +0.130 C 
ATOM     24  C   LIG    1       24.785 -32.024  13.476  0.00  0.00    +0.060 C 
ENDBRANCH  20  23
BRANCH  20  25
ATOM     25  C   LIG    1       25.794 -28.115  13.357  0.00  0.00    +0.130 C 
ATOM     26  C   LIG    1       24.298 -27.896  13.029  0.00  0.00    +0.060 C 
ENDBRANCH  20  25
ENDBRANCH  19  20
ENDBRANCH  18  19
ENDBRANCH  17  18
ENDBRANCH   2  17
BRANCH   1  27
ATOM     27  O   LIG    1       23.823 -29.421   8.089  0.00  0.00    -0.483 OA
BRANCH  27  28
ATOM     28  C   LIG    1       23.537 -30.475   8.971  0.00  0.00    +0.280 C 
BRANCH  28  29
ATOM     29  C   LIG    1       22.807 -30.228  10.558  0.00  0.00    +0.175 C 
BRANCH  29  30
ATOM     30  N   LIG    1       21.164 -30.993  11.289  0.00  0.00    +0.245 N 
BRANCH  30  31
ATOM     31  C   LIG    1       21.573 -32.656  11.798  0.00  0.00    +0.130 C 
ATOM     32  C   LIG    1       21.902 -33.512  10.572  0.00  0.00    +0.060 C 
ENDBRANCH  30  31
BRANCH  30  33
ATOM     33  C   LIG    1       19.420 -31.118  10.299  0.00  0.00    +0.130 C 
ATOM     34  C   LIG    1       17.681 -31.539  11.005  0.00  0.00    +0.060 C 
ENDBRANCH  30  33
BRANCH  30  36
ATOM     35  C   LIG    1       20.525 -29.192  13.401  0.00  0.00    +0.060 C 
ATOM     36  C   LIG    1       20.948 -30.510  12.913  0.00  0.00    +0.130 C 
ENDBRANCH  30  36
ENDBRANCH  29  30
ENDBRANCH  28  29
ENDBRANCH  27  28
ENDBRANCH   1  27
TORSDOF 21
ENDMDL
MODEL 9
REMARK VINA RESULT:      -7.6      3.073     10.070
REMARK  Name = *****
REMARK                            x       y       z     vdW  Elec       q    Type
REMARK                         _______ _______ _______ _____ _____    ______ ____
ROOT
ATOM      1  C   LIG    1       25.128 -27.703   7.026  0.00  0.00    +0.166 A 
ATOM      2  C   LIG    1       25.560 -28.687   7.933  0.00  0.00    +0.204 A 
ATOM      3  C   LIG    1       25.410 -29.956   7.469  0.00  0.00    +0.166 A 
ATOM      4  C   LIG    1       24.550 -30.225   6.369  0.00  0.00    +0.050 A 
ATOM      5  C   LIG    1       24.032 -29.159   5.629  0.00  0.00    +0.007 A 
ATOM      6  C   LIG    1       24.229 -27.899   5.963  0.00  0.00    +0.050 A 
ENDROOT
BRANCH   3   7
ATOM      7  O   LIG    1       26.175 -30.959   7.969  0.00  0.00    -0.483 OA
BRANCH   7   8
ATOM      8  C   LIG    1       25.623 -32.166   8.499  0.00  0.00    +0.280 C 
BRANCH   8   9
ATOM      9  C   LIG    1       25.605 -32.204  10.042  0.00  0.00    +0.175 C 
BRANCH   9  10
ATOM     10  N   LIG    1       24.200 -32.232  10.773  0.00  0.00    +0.245 N 
BRANCH  10  11
ATOM     11  C   LIG    1       23.556 -33.631  10.795  0.00  0.00    +0.130 C 
ATOM     12  C   LIG    1       22.337 -33.807   9.898  0.00  0.00    +0.060 C 
ENDBRANCH  10  11
BRANCH  10  13
ATOM     13  C   LIG    1       24.302 -31.675  12.238  0.00  0.00    +0.130 C 
ATOM     14  C   LIG    1       25.401 -32.285  13.104  0.00  0.00    +0.060 C 
ENDBRANCH  10  13
BRANCH  10  15
ATOM     15  C   LIG    1       23.323 -31.218   9.923  0.00  0.00    +0.130 C 
ATOM     16  C   LIG    1       22.624 -30.104  10.688  0.00  0.00    +0.060 C 
ENDBRANCH  10  15
ENDBRANCH   9  10
ENDBRANCH   8   9
ENDBRANCH   7   8
ENDBRANCH   3   7
BRANCH   2  17
ATOM     17  O   LIG    1       26.468 -28.483   9.006  0.00  0.00    -0.480 OA
BRANCH  17  18
ATOM     18  C   LIG    1       26.040 -28.665  10.321  0.00  0.00    +0.280 C 
BRANCH  18  19
ATOM     19  C   LIG    1       26.853 -27.896  11.333  0.00  0.00    +0.175 C 
BRANCH  19  20
ATOM     20  N   LIG    1       26.285 -27.724  13.030  0.00  0.00    +0.245 N 
BRANCH  20  21
ATOM     21  C   LIG    1       27.571 -28.713  13.941  0.00  0.00    +0.130 C 
ATOM     22  C   LIG    1       27.305 -29.623  15.110  0.00  0.00    +0.060 C 
ENDBRANCH  20  21
BRANCH  20  23
ATOM     23  C   LIG    1       24.233 -28.123  13.422  0.00  0.00    +0.130 C 
ATOM     24  C   LIG    1       22.814 -27.091  13.193  0.00  0.00    +0.060 C 
ENDBRANCH  20  23
BRANCH  20  25
ATOM     25  C   LIG    1       26.692 -26.072  13.500  0.00  0.00    +0.130 C 
ATOM     26  C   LIG    1       25.615 -24.961  13.500  0.00  0.00    +0.060 C 
ENDBRANCH  20  25
ENDBRANCH  19  20
ENDBRANCH  18  19
ENDBRANCH  17  18
ENDBRANCH   2  17
BRANCH   1  27
ATOM     27  O   LIG    1       26.125 -26.948   6.550  0.00  0.00    -0.483 OA
BRANCH  27  28
ATOM     28  C   LIG    1       26.321 -25.569   6.731  0.00  0.00    +0.280 C 
BRANCH  28  29
ATOM     29  C   LIG    1       25.333 -24.346   5.932  0.00  0.00    +0.175 C 
BRANCH  29  30
ATOM     30  N   LIG    1       25.075 -22.469   6.410  0.00  0.00    +0.245 N 
BRANCH  30  31
ATOM     31  C   LIG    1       23.489 -22.378   7.229  0.00  0.00    +0.130 C 
ATOM     32  C   LIG    1       22.559 -23.468   6.691  0.00  0.00    +0.060 C 
ENDBRANCH  30  31
BRANCH  30  33
ATOM     33  C   LIG    1       25.127 -20.939   5.108  0.00  0.00    +0.130 C 
ATOM     34  C   LIG    1       23.652 -20.101   4.200  0.00  0.00    +0.060 C 
ENDBRANCH  30  33
BRANCH  30  36
ATOM     35  C   LIG    1       26.303 -20.778   8.345  0.00  0.00    +0.060 C 
ATOM     36  C   LIG    1       25.890 -22.102   7.865  0.00  0.00    +0.130 C 
ENDBRANCH  30  36
ENDBRANCH  29  30
ENDBRANCH  28  29
ENDBRANCH  27  28
ENDBRANCH   1  27
TORSDOF 21
ENDMDL
