MODEL 1
REMARK VINA RESULT:      -6.3      0.000      0.000
REMARK  Name = *****
REMARK                            x       y       z     vdW  Elec       q    Type
REMARK                         _______ _______ _______ _____ _____    ______ ____
ROOT
ATOM      1  C   LIG    1       27.102 -17.150   3.838  0.00  0.00    +0.394 C 
ATOM      2  N   LIG    1       27.280 -15.876   3.909  0.00  0.00    -0.073 NA
ENDROOT
BRANCH   2   3
ATOM      3  C   LIG    1       26.375 -14.885   3.499  0.00  0.00    +0.142 A 
ATOM      4  C   LIG    1       26.867 -13.923   2.606  0.00  0.00    +0.047 A 
ATOM      5  C   LIG    1       26.077 -12.853   2.178  0.00  0.00    +0.023 A 
ATOM      6  C   LIG    1       24.767 -12.745   2.634  0.00  0.00    +0.041 A 
ATOM      7 CL   LIG    1       23.777 -11.447   2.098  0.00  0.00    -0.084 Cl
ATOM      8  C   LIG    1       24.265 -13.675   3.541  0.00  0.00    +0.023 A 
ATOM      9  C   LIG    1       25.080 -14.719   3.998  0.00  0.00    +0.047 A 
ENDBRANCH   2   3
BRANCH   1  10
ATOM     10  N   LIG    1       28.143 -17.890   4.338  0.00  0.00    -0.288 N 
ATOM     11  H   LIG    1       27.890 -18.874   4.260  0.00  0.00    +0.255 HD
ATOM     12  H   LIG    1       28.981 -17.740   3.780  0.00  0.00    +0.255 HD
ENDBRANCH   1  10
BRANCH   1  13
ATOM     13  N   LIG    1       26.056 -17.897   3.355  0.00  0.00    -0.186 N 
ATOM     14  H   LIG    1       25.650 -17.531   2.507  0.00  0.00    +0.271 HD
BRANCH  13  15
ATOM     15  C   LIG    1       25.417 -19.055   3.681  0.00  0.00    +0.388 C 
ATOM     16  N   LIG    1       26.108 -20.080   4.047  0.00  0.00    -0.129 NA
ATOM     17  H   LIG    1       25.471 -20.860   4.221  0.00  0.00    +0.306 HD
BRANCH  15  18
ATOM     18  N   LIG    1       24.064 -19.011   3.579  0.00  0.00    -0.273 N 
ATOM     19  H   LIG    1       23.810 -18.276   2.916  0.00  0.00    +0.258 HD
BRANCH  18  21
ATOM     20  C   LIG    1       21.953 -18.101   4.397  0.00  0.00    +0.047 C 
ATOM     21  C   LIG    1       23.112 -19.054   4.676  0.00  0.00    +0.139 C 
ATOM     22  C   LIG    1       22.602 -20.493   4.773  0.00  0.00    +0.047 C 
ENDBRANCH  18  21
ENDBRANCH  15  18
ENDBRANCH  13  15
ENDBRANCH   1  13
TORSDOF 6
ENDMDL
MODEL 2
REMARK VINA RESULT:      -5.9      0.520      1.457
REMARK  Name = *****
REMARK                            x       y       z     vdW  Elec       q    Type
REMARK                         _______ _______ _______ _____ _____    ______ ____
ROOT
ATOM      1  C   LIG    1       27.203 -17.037   3.848  0.00  0.00    +0.394 C 
ATOM      2  N   LIG    1       27.457 -15.783   4.000  0.00  0.00    -0.073 NA
ENDROOT
BRANCH   2   3
ATOM      3  C   LIG    1       26.631 -14.714   3.619  0.00  0.00    +0.142 A 
ATOM      4  C   LIG    1       25.525 -14.458   4.442  0.00  0.00    +0.047 A 
ATOM      5  C   LIG    1       24.599 -13.460   4.128  0.00  0.00    +0.023 A 
ATOM      6  C   LIG    1       24.782 -12.692   2.983  0.00  0.00    +0.041 A 
ATOM      7 CL   LIG    1       23.662 -11.447   2.598  0.00  0.00    -0.084 Cl
ATOM      8  C   LIG    1       25.859 -12.945   2.138  0.00  0.00    +0.023 A 
ATOM      9  C   LIG    1       26.758 -13.977   2.438  0.00  0.00    +0.047 A 
ENDBRANCH   2   3
BRANCH   1  10
ATOM     10  N   LIG    1       28.177 -17.869   4.338  0.00  0.00    -0.288 N 
ATOM     11  H   LIG    1       28.139 -17.825   5.355  0.00  0.00    +0.255 HD
ATOM     12  H   LIG    1       27.989 -18.831   4.061  0.00  0.00    +0.255 HD
ENDBRANCH   1  10
BRANCH   1  13
ATOM     13  N   LIG    1       26.132 -17.686   3.286  0.00  0.00    -0.186 N 
ATOM     14  H   LIG    1       25.865 -17.328   2.381  0.00  0.00    +0.271 HD
BRANCH  13  15
ATOM     15  C   LIG    1       25.327 -18.740   3.593  0.00  0.00    +0.388 C 
ATOM     16  N   LIG    1       25.779 -19.942   3.470  0.00  0.00    -0.129 NA
ATOM     17  H   LIG    1       25.035 -20.599   3.712  0.00  0.00    +0.306 HD
BRANCH  15  18
ATOM     18  N   LIG    1       24.077 -18.406   4.008  0.00  0.00    -0.273 N 
ATOM     19  H   LIG    1       24.157 -17.766   4.800  0.00  0.00    +0.258 HD
BRANCH  18  21
ATOM     20  C   LIG    1       23.039 -19.952   5.583  0.00  0.00    +0.047 C 
ATOM     21  C   LIG    1       22.959 -19.313   4.199  0.00  0.00    +0.139 C 
ATOM     22  C   LIG    1       21.679 -18.483   4.074  0.00  0.00    +0.047 C 
ENDBRANCH  18  21
ENDBRANCH  15  18
ENDBRANCH  13  15
ENDBRANCH   1  13
TORSDOF 6
ENDMDL
MODEL 3
REMARK VINA RESULT:      -5.2      3.010      5.952
REMARK  Name = *****
REMARK                            x       y       z     vdW  Elec       q    Type
REMARK                         _______ _______ _______ _____ _____    ______ ____
ROOT
ATOM      1  C   LIG    1       27.810 -18.312   4.538  0.00  0.00    +0.394 C 
ATOM      2  N   LIG    1       27.302 -19.361   5.088  0.00  0.00    -0.073 NA
ENDROOT
BRANCH   2   3
ATOM      3  C   LIG    1       25.972 -19.794   4.982  0.00  0.00    +0.142 A 
ATOM      4  C   LIG    1       25.428 -20.418   6.114  0.00  0.00    +0.047 A 
ATOM      5  C   LIG    1       24.135 -20.947   6.105  0.00  0.00    +0.023 A 
ATOM      6  C   LIG    1       23.361 -20.841   4.954  0.00  0.00    +0.041 A 
ATOM      7 CL   LIG    1       21.760 -21.466   4.937  0.00  0.00    -0.084 Cl
ATOM      8  C   LIG    1       23.888 -20.248   3.810  0.00  0.00    +0.023 A 
ATOM      9  C   LIG    1       25.202 -19.760   3.816  0.00  0.00    +0.047 A 
ENDBRANCH   2   3
BRANCH   1  10
ATOM     10  N   LIG    1       29.148 -18.141   4.786  0.00  0.00    -0.288 N 
ATOM     11  H   LIG    1       29.525 -17.545   4.052  0.00  0.00    +0.255 HD
ATOM     12  H   LIG    1       29.282 -17.663   5.675  0.00  0.00    +0.255 HD
ENDBRANCH   1  10
BRANCH   1  13
ATOM     13  N   LIG    1       27.251 -17.338   3.747  0.00  0.00    -0.186 N 
ATOM     14  H   LIG    1       26.769 -17.697   2.937  0.00  0.00    +0.271 HD
BRANCH  13  15
ATOM     15  C   LIG    1       27.120 -15.983   3.770  0.00  0.00    +0.388 C 
ATOM     16  N   LIG    1       28.116 -15.255   4.145  0.00  0.00    -0.129 NA
ATOM     17  H   LIG    1       27.830 -14.274   4.129  0.00  0.00    +0.306 HD
BRANCH  15  18
ATOM     18  N   LIG    1       25.903 -15.518   3.385  0.00  0.00    -0.273 N 
ATOM     19  H   LIG    1       25.778 -15.715   2.391  0.00  0.00    +0.258 HD
BRANCH  18  21
ATOM     20  C   LIG    1       25.403 -13.292   2.521  0.00  0.00    +0.047 C 
ATOM     21  C   LIG    1       25.325 -14.229   3.723  0.00  0.00    +0.139 C 
ATOM     22  C   LIG    1       23.864 -14.477   4.106  0.00  0.00    +0.047 C 
ENDBRANCH  18  21
ENDBRANCH  15  18
ENDBRANCH  13  15
ENDBRANCH   1  13
TORSDOF 6
ENDMDL
MODEL 4
REMARK VINA RESULT:      -5.1      3.252      6.318
REMARK  Name = *****
REMARK                            x       y       z     vdW  Elec       q    Type
REMARK                         _______ _______ _______ _____ _____    ______ ____
ROOT
ATOM      1  C   LIG    1       28.167 -18.448   4.826  0.00  0.00    +0.394 C 
ATOM      2  N   LIG    1       27.558 -19.379   5.474  0.00  0.00    -0.073 NA
ENDROOT
BRANCH   2   3
ATOM      3  C   LIG    1       26.232 -19.797   5.282  0.00  0.00    +0.142 A 
ATOM      4  C   LIG    1       25.583 -20.343   6.398  0.00  0.00    +0.047 A 
ATOM      5  C   LIG    1       24.284 -20.850   6.310  0.00  0.00    +0.023 A 
ATOM      6  C   LIG    1       23.611 -20.801   5.094  0.00  0.00    +0.041 A 
ATOM      7 CL   LIG    1       22.005 -21.401   4.977  0.00  0.00    -0.084 Cl
ATOM      8  C   LIG    1       24.245 -20.287   3.966  0.00  0.00    +0.023 A 
ATOM      9  C   LIG    1       25.564 -19.821   4.054  0.00  0.00    +0.047 A 
ENDBRANCH   2   3
BRANCH   1  10
ATOM     10  N   LIG    1       29.474 -18.265   5.202  0.00  0.00    -0.288 N 
ATOM     11  H   LIG    1       30.000 -17.995   4.373  0.00  0.00    +0.255 HD
ATOM     12  H   LIG    1       29.543 -17.504   5.875  0.00  0.00    +0.255 HD
ENDBRANCH   1  10
BRANCH   1  13
ATOM     13  N   LIG    1       27.743 -17.609   3.825  0.00  0.00    -0.186 N 
ATOM     14  H   LIG    1       27.929 -17.954   2.896  0.00  0.00    +0.271 HD
BRANCH  13  15
ATOM     15  C   LIG    1       27.080 -16.423   3.727  0.00  0.00    +0.388 C 
ATOM     16  N   LIG    1       25.874 -16.405   3.273  0.00  0.00    -0.129 NA
ATOM     17  H   LIG    1       25.549 -15.437   3.241  0.00  0.00    +0.306 HD
BRANCH  15  18
ATOM     18  N   LIG    1       27.789 -15.335   4.127  0.00  0.00    -0.273 N 
ATOM     19  H   LIG    1       28.162 -15.515   5.061  0.00  0.00    +0.258 HD
BRANCH  18  21
ATOM     20  C   LIG    1       26.654 -13.500   5.266  0.00  0.00    +0.047 C 
ATOM     21  C   LIG    1       27.384 -13.946   4.001  0.00  0.00    +0.139 C 
ATOM     22  C   LIG    1       28.658 -13.120   3.808  0.00  0.00    +0.047 C 
ENDBRANCH  18  21
ENDBRANCH  15  18
ENDBRANCH  13  15
ENDBRANCH   1  13
TORSDOF 6
ENDMDL
MODEL 5
REMARK VINA RESULT:      -4.6      2.460      4.073
REMARK  Name = *****
REMARK                            x       y       z     vdW  Elec       q    Type
REMARK                         _______ _______ _______ _____ _____    ______ ____
ROOT
ATOM      1  C   LIG    1       24.861 -18.588   3.611  0.00  0.00    +0.394 C 
ATOM      2  N   LIG    1       24.621 -17.334   3.439  0.00  0.00    -0.073 NA
ENDROOT
BRANCH   2   3
ATOM      3  C   LIG    1       25.525 -16.279   3.638  0.00  0.00    +0.142 A 
ATOM      4  C   LIG    1       24.970 -14.997   3.757  0.00  0.00    +0.047 A 
ATOM      5  C   LIG    1       25.775 -13.863   3.896  0.00  0.00    +0.023 A 
ATOM      6  C   LIG    1       27.158 -14.007   3.931  0.00  0.00    +0.041 A 
ATOM      7 CL   LIG    1       28.159 -12.623   4.123  0.00  0.00    -0.084 Cl
ATOM      8  C   LIG    1       27.733 -15.267   3.788  0.00  0.00    +0.023 A 
ATOM      9  C   LIG    1       26.918 -16.392   3.606  0.00  0.00    +0.047 A 
ENDBRANCH   2   3
BRANCH   1  10
ATOM     10  N   LIG    1       23.801 -19.406   3.314  0.00  0.00    -0.288 N 
ATOM     11  H   LIG    1       23.287 -19.573   4.177  0.00  0.00    +0.255 HD
ATOM     12  H   LIG    1       23.171 -18.944   2.662  0.00  0.00    +0.255 HD
ENDBRANCH   1  10
BRANCH   1  13
ATOM     13  N   LIG    1       25.987 -19.249   4.035  0.00  0.00    -0.186 N 
ATOM     14  H   LIG    1       26.813 -19.038   3.494  0.00  0.00    +0.271 HD
BRANCH  13  15
ATOM     15  C   LIG    1       26.328 -20.104   5.038  0.00  0.00    +0.388 C 
ATOM     16  N   LIG    1       25.402 -20.703   5.705  0.00  0.00    -0.129 NA
ATOM     17  H   LIG    1       25.837 -21.275   6.431  0.00  0.00    +0.306 HD
BRANCH  15  18
ATOM     18  N   LIG    1       27.664 -20.239   5.247  0.00  0.00    -0.273 N 
ATOM     19  H   LIG    1       27.926 -21.209   5.063  0.00  0.00    +0.258 HD
BRANCH  18  21
ATOM     20  C   LIG    1       29.178 -20.844   7.061  0.00  0.00    +0.047 C 
ATOM     21  C   LIG    1       28.420 -19.714   6.371  0.00  0.00    +0.139 C 
ATOM     22  C   LIG    1       29.403 -18.683   5.811  0.00  0.00    +0.047 C 
ENDBRANCH  18  21
ENDBRANCH  15  18
ENDBRANCH  13  15
ENDBRANCH   1  13
TORSDOF 6
ENDMDL
MODEL 6
REMARK VINA RESULT:      -4.4      2.195      3.559
REMARK  Name = *****
REMARK                            x       y       z     vdW  Elec       q    Type
REMARK                         _______ _______ _______ _____ _____    ______ ____
ROOT
ATOM      1  C   LIG    1       23.152 -18.370   4.111  0.00  0.00    +0.394 C 
ATOM      2  N   LIG    1       23.106 -17.087   4.211  0.00  0.00    -0.073 NA
ENDROOT
BRANCH   2   3
ATOM      3  C   LIG    1       24.169 -16.196   3.997  0.00  0.00    +0.142 A 
ATOM      4  C   LIG    1       23.901 -14.839   4.224  0.00  0.00    +0.047 A 
ATOM      5  C   LIG    1       24.863 -13.855   3.985  0.00  0.00    +0.023 A 
ATOM      6  C   LIG    1       26.122 -14.228   3.524  0.00  0.00    +0.041 A 
ATOM      7 CL   LIG    1       27.323 -13.029   3.247  0.00  0.00    -0.084 Cl
ATOM      8  C   LIG    1       26.403 -15.567   3.267  0.00  0.00    +0.023 A 
ATOM      9  C   LIG    1       25.417 -16.541   3.469  0.00  0.00    +0.047 A 
ENDBRANCH   2   3
BRANCH   1  10
ATOM     10  N   LIG    1       21.954 -18.994   4.347  0.00  0.00    -0.288 N 
ATOM     11  H   LIG    1       22.131 -19.779   4.972  0.00  0.00    +0.255 HD
ATOM     12  H   LIG    1       21.314 -18.359   4.820  0.00  0.00    +0.255 HD
ENDBRANCH   1  10
BRANCH   1  13
ATOM     13  N   LIG    1       24.185 -19.222   3.807  0.00  0.00    -0.186 N 
ATOM     14  H   LIG    1       24.885 -18.818   3.204  0.00  0.00    +0.271 HD
BRANCH  13  15
ATOM     15  C   LIG    1       24.569 -20.487   4.136  0.00  0.00    +0.388 C 
ATOM     16  N   LIG    1       23.885 -21.491   3.706  0.00  0.00    -0.129 NA
ATOM     17  H   LIG    1       24.296 -22.351   4.073  0.00  0.00    +0.306 HD
BRANCH  15  18
ATOM     18  N   LIG    1       25.676 -20.564   4.921  0.00  0.00    -0.273 N 
ATOM     19  H   LIG    1       26.456 -20.897   4.352  0.00  0.00    +0.258 HD
BRANCH  18  21
ATOM     20  C   LIG    1       26.926 -20.514   7.014  0.00  0.00    +0.047 C 
ATOM     21  C   LIG    1       25.748 -21.123   6.260  0.00  0.00    +0.139 C 
ATOM     22  C   LIG    1       24.434 -20.778   6.964  0.00  0.00    +0.047 C 
ENDBRANCH  18  21
ENDBRANCH  15  18
ENDBRANCH  13  15
ENDBRANCH   1  13
TORSDOF 6
ENDMDL
MODEL 7
REMARK VINA RESULT:      -4.3      3.573      5.558
REMARK  Name = *****
REMARK                            x       y       z     vdW  Elec       q    Type
REMARK                         _______ _______ _______ _____ _____    ______ ____
ROOT
ATOM      1  C   LIG    1       26.523 -17.147   3.601  0.00  0.00    +0.394 C 
ATOM      2  N   LIG    1       25.236 -17.151   3.564  0.00  0.00    -0.073 NA
ENDROOT
BRANCH   2   3
ATOM      3  C   LIG    1       24.400 -18.252   3.806  0.00  0.00    +0.142 A 
ATOM      4  C   LIG    1       23.118 -17.965   4.297  0.00  0.00    +0.047 A 
ATOM      5  C   LIG    1       22.221 -18.982   4.633  0.00  0.00    +0.023 A 
ATOM      6  C   LIG    1       22.599 -20.310   4.466  0.00  0.00    +0.041 A 
ATOM      7 CL   LIG    1       21.498 -21.571   4.855  0.00  0.00    -0.084 Cl
ATOM      8  C   LIG    1       23.876 -20.620   4.005  0.00  0.00    +0.023 A 
ATOM      9  C   LIG    1       24.783 -19.593   3.711  0.00  0.00    +0.047 A 
ENDBRANCH   2   3
BRANCH   1  10
ATOM     10  N   LIG    1       27.087 -15.922   3.351  0.00  0.00    -0.288 N 
ATOM     11  H   LIG    1       27.808 -16.051   2.643  0.00  0.00    +0.255 HD
ATOM     12  H   LIG    1       26.389 -15.285   2.971  0.00  0.00    +0.255 HD
ENDBRANCH   1  10
BRANCH   1  13
ATOM     13  N   LIG    1       27.429 -18.148   3.849  0.00  0.00    -0.186 N 
ATOM     14  H   LIG    1       27.539 -18.799   3.086  0.00  0.00    +0.271 HD
BRANCH  13  15
ATOM     15  C   LIG    1       28.284 -18.500   4.850  0.00  0.00    +0.388 C 
ATOM     16  N   LIG    1       29.175 -17.659   5.249  0.00  0.00    -0.129 NA
ATOM     17  H   LIG    1       29.741 -18.100   5.976  0.00  0.00    +0.306 HD
BRANCH  15  18
ATOM     18  N   LIG    1       28.106 -19.754   5.341  0.00  0.00    -0.273 N 
ATOM     19  H   LIG    1       27.467 -20.259   4.723  0.00  0.00    +0.258 HD
BRANCH  18  21
ATOM     20  C   LIG    1       26.402 -20.526   6.906  0.00  0.00    +0.047 C 
ATOM     21  C   LIG    1       27.860 -20.112   6.727  0.00  0.00    +0.139 C 
ATOM     22  C   LIG    1       28.786 -21.283   7.061  0.00  0.00    +0.047 C 
ENDBRANCH  18  21
ENDBRANCH  15  18
ENDBRANCH  13  15
ENDBRANCH   1  13
TORSDOF 6
ENDMDL
MODEL 8
REMARK VINA RESULT:      -4.1      3.422      6.492
REMARK  Name = *****
REMARK                            x       y       z     vdW  Elec       q    Type
REMARK                         _______ _______ _______ _____ _____    ______ ____
ROOT
ATOM      1  C   LIG    1       23.973 -14.573   4.012  0.00  0.00    +0.394 C 
ATOM      2  N   LIG    1       23.193 -15.522   4.400  0.00  0.00    -0.073 NA
ENDROOT
BRANCH   2   3
ATOM      3  C   LIG    1       23.390 -16.897   4.197  0.00  0.00    +0.142 A 
ATOM      4  C   LIG    1       22.359 -17.744   4.628  0.00  0.00    +0.047 A 
ATOM      5  C   LIG    1       22.470 -19.133   4.536  0.00  0.00    +0.023 A 
ATOM      6  C   LIG    1       23.621 -19.693   3.992  0.00  0.00    +0.041 A 
ATOM      7 CL   LIG    1       23.761 -21.400   3.852  0.00  0.00    -0.084 Cl
ATOM      8  C   LIG    1       24.668 -18.873   3.580  0.00  0.00    +0.023 A 
ATOM      9  C   LIG    1       24.565 -17.482   3.718  0.00  0.00    +0.047 A 
ENDBRANCH   2   3
BRANCH   1  10
ATOM     10  N   LIG    1       23.551 -13.319   4.370  0.00  0.00    -0.288 N 
ATOM     11  H   LIG    1       22.593 -13.398   4.706  0.00  0.00    +0.255 HD
ATOM     12  H   LIG    1       24.120 -12.961   5.135  0.00  0.00    +0.255 HD
ENDBRANCH   1  10
BRANCH   1  13
ATOM     13  N   LIG    1       25.152 -14.596   3.307  0.00  0.00    -0.186 N 
ATOM     14  H   LIG    1       25.528 -15.521   3.168  0.00  0.00    +0.271 HD
BRANCH  13  15
ATOM     15  C   LIG    1       25.962 -13.697   2.682  0.00  0.00    +0.388 C 
ATOM     16  N   LIG    1       25.440 -12.696   2.060  0.00  0.00    -0.129 NA
ATOM     17  H   LIG    1       26.188 -12.150   1.630  0.00  0.00    +0.306 HD
BRANCH  15  18
ATOM     18  N   LIG    1       27.291 -13.960   2.778  0.00  0.00    -0.273 N 
ATOM     19  H   LIG    1       27.481 -14.852   2.318  0.00  0.00    +0.258 HD
BRANCH  18  21
ATOM     20  C   LIG    1       29.134 -12.696   3.756  0.00  0.00    +0.047 C 
ATOM     21  C   LIG    1       28.117 -13.815   3.964  0.00  0.00    +0.139 C 
ATOM     22  C   LIG    1       27.182 -13.470   5.126  0.00  0.00    +0.047 C 
ENDBRANCH  18  21
ENDBRANCH  15  18
ENDBRANCH  13  15
ENDBRANCH   1  13
TORSDOF 6
ENDMDL
MODEL 9
REMARK VINA RESULT:      -3.6      2.285      3.207
REMARK  Name = *****
REMARK                            x       y       z     vdW  Elec       q    Type
REMARK                         _______ _______ _______ _____ _____    ______ ____
ROOT
ATOM      1  C   LIG    1       23.450 -16.055   4.286  0.00  0.00    +0.394 C 
ATOM      2  N   LIG    1       23.842 -14.842   4.099  0.00  0.00    -0.073 NA
ENDROOT
BRANCH   2   3
ATOM      3  C   LIG    1       25.168 -14.413   3.929  0.00  0.00    +0.142 A 
ATOM      4  C   LIG    1       25.795 -13.867   5.058  0.00  0.00    +0.047 A 
ATOM      5  C   LIG    1       27.091 -13.350   4.993  0.00  0.00    +0.023 A 
ATOM      6  C   LIG    1       27.783 -13.387   3.787  0.00  0.00    +0.041 A 
ATOM      7 CL   LIG    1       29.387 -12.774   3.699  0.00  0.00    -0.084 Cl
ATOM      8  C   LIG    1       27.171 -13.901   2.647  0.00  0.00    +0.023 A 
ATOM      9  C   LIG    1       25.855 -14.378   2.713  0.00  0.00    +0.047 A 
ENDBRANCH   2   3
BRANCH   1  10
ATOM     10  N   LIG    1       22.090 -16.194   4.393  0.00  0.00    -0.288 N 
ATOM     11  H   LIG    1       21.876 -17.188   4.351  0.00  0.00    +0.255 HD
ATOM     12  H   LIG    1       21.771 -15.845   5.295  0.00  0.00    +0.255 HD
ENDBRANCH   1  10
BRANCH   1  13
ATOM     13  N   LIG    1       24.151 -17.231   4.395  0.00  0.00    -0.186 N 
ATOM     14  H   LIG    1       24.300 -17.531   5.346  0.00  0.00    +0.271 HD
BRANCH  13  15
ATOM     15  C   LIG    1       24.681 -18.162   3.554  0.00  0.00    +0.388 C 
ATOM     16  N   LIG    1       25.838 -17.954   3.026  0.00  0.00    -0.129 NA
ATOM     17  H   LIG    1       26.061 -18.734   2.405  0.00  0.00    +0.306 HD
BRANCH  15  18
ATOM     18  N   LIG    1       23.903 -19.255   3.346  0.00  0.00    -0.273 N 
ATOM     19  H   LIG    1       22.977 -18.945   3.047  0.00  0.00    +0.258 HD
BRANCH  18  21
ATOM     20  C   LIG    1       25.057 -20.555   5.058  0.00  0.00    +0.047 C 
ATOM     21  C   LIG    1       23.794 -20.416   4.213  0.00  0.00    +0.139 C 
ATOM     22  C   LIG    1       22.577 -20.192   5.114  0.00  0.00    +0.047 C 
ENDBRANCH  18  21
ENDBRANCH  15  18
ENDBRANCH  13  15
ENDBRANCH   1  13
TORSDOF 6
ENDMDL
