MODEL 1
REMARK VINA RESULT:      -4.9      0.000      0.000
REMARK  Name = *****
REMARK                            x       y       z     vdW  Elec       q    Type
REMARK                         _______ _______ _______ _____ _____    ______ ____
ROOT
ATOM      1  C   LIG    1       25.449 -20.060   4.647  0.00  0.00    +0.120 A 
ATOM      2  C   LIG    1       24.936 -20.761   5.731  0.00  0.00    +0.090 A 
ATOM      3  C   LIG    1       23.570 -20.720   5.982  0.00  0.00    +0.120 A 
ATOM      4  C   LIG    1       22.714 -19.997   5.153  0.00  0.00    +0.045 A 
ATOM      5  C   LIG    1       23.239 -19.302   4.062  0.00  0.00    +0.007 A 
ATOM      6  C   LIG    1       24.611 -19.331   3.806  0.00  0.00    +0.045 A 
ENDROOT
BRANCH   1   7
ATOM      7  O   LIG    1       26.796 -20.107   4.437  0.00  0.00    -0.507 OA
ATOM      8  H   LIG    1       27.124 -19.200   4.324  0.00  0.00    +0.292 HD
ENDBRANCH   1   7
BRANCH   3   9
ATOM      9  O   LIG    1       23.098 -21.405   7.062  0.00  0.00    -0.507 OA
ATOM     10  H   LIG    1       22.235 -21.037   7.311  0.00  0.00    +0.292 HD
ENDBRANCH   3   9
TORSDOF 2
ENDMDL
MODEL 2
REMARK VINA RESULT:      -4.8      1.581      3.287
REMARK  Name = *****
REMARK                            x       y       z     vdW  Elec       q    Type
REMARK                         _______ _______ _______ _____ _____    ______ ____
ROOT
ATOM      1  C   LIG    1       22.922 -19.381   4.658  0.00  0.00    +0.120 A 
ATOM      2  C   LIG    1       24.173 -19.456   4.057  0.00  0.00    +0.090 A 
ATOM      3  C   LIG    1       25.184 -20.178   4.679  0.00  0.00    +0.120 A 
ATOM      4  C   LIG    1       24.953 -20.835   5.886  0.00  0.00    +0.045 A 
ATOM      5  C   LIG    1       23.690 -20.760   6.478  0.00  0.00    +0.007 A 
ATOM      6  C   LIG    1       22.670 -20.030   5.865  0.00  0.00    +0.045 A 
ENDROOT
BRANCH   1   7
ATOM      7  O   LIG    1       21.956 -18.652   4.030  0.00  0.00    -0.507 OA
ATOM      8  H   LIG    1       21.516 -18.089   4.688  0.00  0.00    +0.292 HD
ENDBRANCH   1   7
BRANCH   3   9
ATOM      9  O   LIG    1       26.405 -20.220   4.073  0.00  0.00    -0.507 OA
ATOM     10  H   LIG    1       26.875 -19.392   4.261  0.00  0.00    +0.292 HD
ENDBRANCH   3   9
TORSDOF 2
ENDMDL
MODEL 3
REMARK VINA RESULT:      -4.8      1.580      2.314
REMARK  Name = *****
REMARK                            x       y       z     vdW  Elec       q    Type
REMARK                         _______ _______ _______ _____ _____    ______ ____
ROOT
ATOM      1  C   LIG    1       25.174 -20.173   4.678  0.00  0.00    +0.120 A 
ATOM      2  C   LIG    1       24.161 -19.442   4.070  0.00  0.00    +0.090 A 
ATOM      3  C   LIG    1       22.910 -19.383   4.672  0.00  0.00    +0.120 A 
ATOM      4  C   LIG    1       22.668 -20.037   5.879  0.00  0.00    +0.045 A 
ATOM      5  C   LIG    1       23.695 -20.762   6.485  0.00  0.00    +0.007 A 
ATOM      6  C   LIG    1       24.953 -20.834   5.884  0.00  0.00    +0.045 A 
ENDROOT
BRANCH   1   7
ATOM      7  O   LIG    1       26.386 -20.224   4.054  0.00  0.00    -0.507 OA
ATOM      8  H   LIG    1       26.770 -19.331   4.048  0.00  0.00    +0.292 HD
ENDBRANCH   1   7
BRANCH   3   9
ATOM      9  O   LIG    1       21.932 -18.671   4.043  0.00  0.00    -0.507 OA
ATOM     10  H   LIG    1       21.215 -18.502   4.676  0.00  0.00    +0.292 HD
ENDBRANCH   3   9
TORSDOF 2
ENDMDL
MODEL 4
REMARK VINA RESULT:      -4.7      7.178      7.422
REMARK  Name = *****
REMARK                            x       y       z     vdW  Elec       q    Type
REMARK                         _______ _______ _______ _____ _____    ______ ____
ROOT
ATOM      1  C   LIG    1       26.637 -13.549   4.973  0.00  0.00    +0.120 A 
ATOM      2  C   LIG    1       25.334 -13.263   4.584  0.00  0.00    +0.090 A 
ATOM      3  C   LIG    1       24.985 -13.373   3.243  0.00  0.00    +0.120 A 
ATOM      4  C   LIG    1       25.921 -13.777   2.293  0.00  0.00    +0.045 A 
ATOM      5  C   LIG    1       27.226 -14.069   2.696  0.00  0.00    +0.007 A 
ATOM      6  C   LIG    1       27.588 -13.954   4.039  0.00  0.00    +0.045 A 
ENDROOT
BRANCH   1   7
ATOM      7  O   LIG    1       26.952 -13.416   6.293  0.00  0.00    -0.507 OA
ATOM      8  H   LIG    1       27.402 -14.224   6.588  0.00  0.00    +0.292 HD
ENDBRANCH   1   7
BRANCH   3   9
ATOM      9  O   LIG    1       23.703 -13.071   2.891  0.00  0.00    -0.507 OA
ATOM     10  H   LIG    1       23.601 -13.215   1.936  0.00  0.00    +0.292 HD
ENDBRANCH   3   9
TORSDOF 2
ENDMDL
MODEL 5
REMARK VINA RESULT:      -4.7      1.693      2.520
REMARK  Name = *****
REMARK                            x       y       z     vdW  Elec       q    Type
REMARK                         _______ _______ _______ _____ _____    ______ ____
ROOT
ATOM      1  C   LIG    1       25.553 -20.807   5.956  0.00  0.00    +0.120 A 
ATOM      2  C   LIG    1       25.166 -20.211   4.761  0.00  0.00    +0.090 A 
ATOM      3  C   LIG    1       23.839 -19.839   4.586  0.00  0.00    +0.120 A 
ATOM      4  C   LIG    1       22.901 -20.044   5.597  0.00  0.00    +0.045 A 
ATOM      5  C   LIG    1       23.302 -20.636   6.796  0.00  0.00    +0.007 A 
ATOM      6  C   LIG    1       24.631 -21.021   6.979  0.00  0.00    +0.045 A 
ENDROOT
BRANCH   1   7
ATOM      7  O   LIG    1       26.859 -21.175   6.090  0.00  0.00    -0.507 OA
ATOM      8  H   LIG    1       27.415 -20.382   6.012  0.00  0.00    +0.292 HD
ENDBRANCH   1   7
BRANCH   3   9
ATOM      9  O   LIG    1       23.486 -19.271   3.398  0.00  0.00    -0.507 OA
ATOM     10  H   LIG    1       24.210 -18.696   3.101  0.00  0.00    +0.292 HD
ENDBRANCH   3   9
TORSDOF 2
ENDMDL
MODEL 6
REMARK VINA RESULT:      -4.7      7.185      7.493
REMARK  Name = *****
REMARK                            x       y       z     vdW  Elec       q    Type
REMARK                         _______ _______ _______ _____ _____    ______ ____
ROOT
ATOM      1  C   LIG    1       24.993 -13.338   3.227  0.00  0.00    +0.120 A 
ATOM      2  C   LIG    1       25.339 -13.215   4.567  0.00  0.00    +0.090 A 
ATOM      3  C   LIG    1       26.626 -13.548   4.971  0.00  0.00    +0.120 A 
ATOM      4  C   LIG    1       27.571 -13.990   4.047  0.00  0.00    +0.045 A 
ATOM      5  C   LIG    1       27.216 -14.103   2.701  0.00  0.00    +0.007 A 
ATOM      6  C   LIG    1       25.923 -13.779   2.287  0.00  0.00    +0.045 A 
ENDROOT
BRANCH   1   7
ATOM      7  O   LIG    1       23.717 -13.019   2.866  0.00  0.00    -0.507 OA
ATOM      8  H   LIG    1       23.585 -13.273   1.938  0.00  0.00    +0.292 HD
ENDBRANCH   1   7
BRANCH   3   9
ATOM      9  O   LIG    1       26.931 -13.430   6.294  0.00  0.00    -0.507 OA
ATOM     10  H   LIG    1       26.709 -12.531   6.586  0.00  0.00    +0.292 HD
ENDBRANCH   3   9
TORSDOF 2
ENDMDL
MODEL 7
REMARK VINA RESULT:      -4.6      1.644      2.860
REMARK  Name = *****
REMARK                            x       y       z     vdW  Elec       q    Type
REMARK                         _______ _______ _______ _____ _____    ______ ____
ROOT
ATOM      1  C   LIG    1       23.827 -20.782   5.923  0.00  0.00    +0.120 A 
ATOM      2  C   LIG    1       22.725 -20.015   5.562  0.00  0.00    +0.090 A 
ATOM      3  C   LIG    1       22.809 -19.188   4.449  0.00  0.00    +0.120 A 
ATOM      4  C   LIG    1       23.975 -19.130   3.689  0.00  0.00    +0.045 A 
ATOM      5  C   LIG    1       25.073 -19.910   4.056  0.00  0.00    +0.007 A 
ATOM      6  C   LIG    1       25.003 -20.739   5.177  0.00  0.00    +0.045 A 
ENDROOT
BRANCH   1   7
ATOM      7  O   LIG    1       23.719 -21.572   7.030  0.00  0.00    -0.507 OA
ATOM      8  H   LIG    1       23.037 -21.198   7.612  0.00  0.00    +0.292 HD
ENDBRANCH   1   7
BRANCH   3   9
ATOM      9  O   LIG    1       21.717 -18.436   4.129  0.00  0.00    -0.507 OA
ATOM     10  H   LIG    1       21.743 -17.614   4.645  0.00  0.00    +0.292 HD
ENDBRANCH   3   9
TORSDOF 2
ENDMDL
MODEL 8
REMARK VINA RESULT:      -4.4      1.389      2.134
REMARK  Name = *****
REMARK                            x       y       z     vdW  Elec       q    Type
REMARK                         _______ _______ _______ _____ _____    ______ ____
ROOT
ATOM      1  C   LIG    1       25.159 -20.406   4.783  0.00  0.00    +0.120 A 
ATOM      2  C   LIG    1       23.869 -20.684   4.346  0.00  0.00    +0.090 A 
ATOM      3  C   LIG    1       22.900 -21.043   5.274  0.00  0.00    +0.120 A 
ATOM      4  C   LIG    1       23.204 -21.114   6.633  0.00  0.00    +0.045 A 
ATOM      5  C   LIG    1       24.500 -20.824   7.062  0.00  0.00    +0.007 A 
ATOM      6  C   LIG    1       25.484 -20.470   6.137  0.00  0.00    +0.045 A 
ENDROOT
BRANCH   1   7
ATOM      7  O   LIG    1       26.092 -20.072   3.846  0.00  0.00    -0.507 OA
ATOM      8  H   LIG    1       25.662 -19.537   3.157  0.00  0.00    +0.292 HD
ENDBRANCH   1   7
BRANCH   3   9
ATOM      9  O   LIG    1       21.648 -21.326   4.813  0.00  0.00    -0.507 OA
ATOM     10  H   LIG    1       21.037 -21.349   5.567  0.00  0.00    +0.292 HD
ENDBRANCH   3   9
TORSDOF 2
ENDMDL
MODEL 9
REMARK VINA RESULT:      -4.4      1.640      2.562
REMARK  Name = *****
REMARK                            x       y       z     vdW  Elec       q    Type
REMARK                         _______ _______ _______ _____ _____    ______ ____
ROOT
ATOM      1  C   LIG    1       22.808 -19.199   4.446  0.00  0.00    +0.120 A 
ATOM      2  C   LIG    1       22.738 -19.999   5.580  0.00  0.00    +0.090 A 
ATOM      3  C   LIG    1       23.848 -20.746   5.954  0.00  0.00    +0.120 A 
ATOM      4  C   LIG    1       25.028 -20.690   5.214  0.00  0.00    +0.045 A 
ATOM      5  C   LIG    1       25.090 -19.877   4.081  0.00  0.00    +0.007 A 
ATOM      6  C   LIG    1       23.977 -19.128   3.692  0.00  0.00    +0.045 A 
ENDROOT
BRANCH   1   7
ATOM      7  O   LIG    1       21.696 -18.490   4.097  0.00  0.00    -0.507 OA
ATOM      8  H   LIG    1       20.914 -18.946   4.450  0.00  0.00    +0.292 HD
ENDBRANCH   1   7
BRANCH   3   9
ATOM      9  O   LIG    1       23.744 -21.534   7.062  0.00  0.00    -0.507 OA
ATOM     10  H   LIG    1       23.301 -22.362   6.815  0.00  0.00    +0.292 HD
ENDBRANCH   3   9
TORSDOF 2
ENDMDL
