MODEL 1
REMARK VINA RESULT:      -7.4      0.000      0.000
REMARK  Name = *****
REMARK                            x       y       z     vdW  Elec       q    Type
REMARK                         _______ _______ _______ _____ _____    ______ ____
ROOT
ATOM      1  C   LIG    1       28.435 -20.139   6.138  0.00  0.00    +0.113 C 
ENDROOT
BRANCH   1   2
ATOM      2  C   LIG    1       29.565 -19.194   6.563  0.00  0.00    +0.233 C 
BRANCH   2   3
ATOM      3  N   LIG    1       30.730 -19.896   7.113  0.00  0.00    -0.233 N 
ATOM      4  H   LIG    1       31.481 -20.067   6.448  0.00  0.00    +0.291 HD
BRANCH   3   5
ATOM      5  C   LIG    1       31.218 -19.668   8.396  0.00  0.00    +0.326 C 
ATOM      6  C   LIG    1       31.146 -18.417   8.873  0.00  0.00    +0.474 C 
BRANCH   5   8
ATOM      7  C   LIG    1       31.161 -22.091   9.192  0.00  0.00    +0.273 C 
ATOM      8  N   LIG    1       31.683 -20.746   9.132  0.00  0.00    -0.236 N 
ATOM      9  H   LIG    1       32.701 -20.720   9.264  0.00  0.00    +0.291 HD
ENDBRANCH   5   8
BRANCH   6  10
ATOM     10  N   LIG    1       31.528 -18.033  10.212  0.00  0.00    +0.080 N 
ATOM     11  O   LIG    1       30.769 -18.373  11.107  0.00  0.00    -0.576 OA
ATOM     12  O   LIG    1       32.587 -17.382  10.387  0.00  0.00    +0.041 OA
ENDBRANCH   6  10
ENDBRANCH   3   5
ENDBRANCH   2   3
ENDBRANCH   1   2
BRANCH   1  13
ATOM     13  S   LIG    1       27.850 -21.235   7.483  0.00  0.00    -0.149 S 
BRANCH  13  14
ATOM     14  C   LIG    1       26.250 -20.449   7.887  0.00  0.00    +0.143 C 
BRANCH  14  15
ATOM     15  C   LIG    1       25.055 -21.211   7.443  0.00  0.00    +0.115 A 
ATOM     16  O   LIG    1       25.248 -22.540   7.172  0.00  0.00    -0.462 OA
ATOM     17  C   LIG    1       24.017 -23.089   6.937  0.00  0.00    +0.119 A 
ATOM     18  C   LIG    1       23.042 -22.121   7.070  0.00  0.00    +0.046 A 
ATOM     19  C   LIG    1       23.717 -20.903   7.317  0.00  0.00    +0.046 A 
BRANCH  17  20
ATOM     20  C   LIG    1       23.975 -24.532   6.538  0.00  0.00    +0.158 C 
BRANCH  20  21
ATOM     21  N   LIG    1       25.277 -24.980   5.995  0.00  0.00    -0.301 NA
ATOM     22  C   LIG    1       25.142 -25.454   4.616  0.00  0.00    +0.105 C 
ATOM     23  C   LIG    1       25.839 -26.050   6.826  0.00  0.00    +0.105 C 
ENDBRANCH  20  21
ENDBRANCH  17  20
ENDBRANCH  14  15
ENDBRANCH  13  14
ENDBRANCH   1  13
TORSDOF 10
ENDMDL
MODEL 2
REMARK VINA RESULT:      -7.4      1.179      1.671
REMARK  Name = *****
REMARK                            x       y       z     vdW  Elec       q    Type
REMARK                         _______ _______ _______ _____ _____    ______ ____
ROOT
ATOM      1  C   LIG    1       27.966 -21.279   7.530  0.00  0.00    +0.113 C 
ENDROOT
BRANCH   1   2
ATOM      2  C   LIG    1       28.642 -20.241   6.624  0.00  0.00    +0.233 C 
BRANCH   2   3
ATOM      3  N   LIG    1       30.102 -20.218   6.761  0.00  0.00    -0.233 N 
ATOM      4  H   LIG    1       30.603 -19.845   5.957  0.00  0.00    +0.291 HD
BRANCH   3   5
ATOM      5  C   LIG    1       30.748 -19.917   7.957  0.00  0.00    +0.326 C 
ATOM      6  C   LIG    1       30.418 -18.770   8.568  0.00  0.00    +0.474 C 
BRANCH   5   8
ATOM      7  C   LIG    1       31.351 -22.104   9.123  0.00  0.00    +0.273 C 
ATOM      8  N   LIG    1       31.636 -20.841   8.484  0.00  0.00    -0.236 N 
ATOM      9  H   LIG    1       32.530 -20.856   7.981  0.00  0.00    +0.291 HD
ENDBRANCH   5   8
BRANCH   6  10
ATOM     10  N   LIG    1       30.930 -18.355   9.852  0.00  0.00    +0.080 N 
ATOM     11  O   LIG    1       32.146 -18.353   9.972  0.00  0.00    -0.576 OA
ATOM     12  O   LIG    1       30.125 -18.032  10.760  0.00  0.00    +0.041 OA
ENDBRANCH   6  10
ENDBRANCH   3   5
ENDBRANCH   2   3
ENDBRANCH   1   2
BRANCH   1  13
ATOM     13  S   LIG    1       26.332 -20.748   8.163  0.00  0.00    -0.149 S 
BRANCH  13  14
ATOM     14  C   LIG    1       25.324 -20.875   6.644  0.00  0.00    +0.143 C 
BRANCH  14  15
ATOM     15  C   LIG    1       24.553 -22.138   6.516  0.00  0.00    +0.115 A 
ATOM     16  O   LIG    1       25.180 -23.169   5.868  0.00  0.00    -0.462 OA
ATOM     17  C   LIG    1       24.381 -24.273   5.994  0.00  0.00    +0.119 A 
ATOM     18  C   LIG    1       23.258 -23.953   6.729  0.00  0.00    +0.046 A 
ATOM     19  C   LIG    1       23.333 -22.567   6.995  0.00  0.00    +0.046 A 
BRANCH  17  20
ATOM     20  C   LIG    1       24.821 -25.522   5.293  0.00  0.00    +0.158 C 
BRANCH  20  21
ATOM     21  N   LIG    1       24.755 -26.696   6.192  0.00  0.00    -0.301 NA
ATOM     22  C   LIG    1       25.981 -26.831   6.981  0.00  0.00    +0.105 C 
ATOM     23  C   LIG    1       24.535 -27.923   5.418  0.00  0.00    +0.105 C 
ENDBRANCH  20  21
ENDBRANCH  17  20
ENDBRANCH  14  15
ENDBRANCH  13  14
ENDBRANCH   1  13
TORSDOF 10
ENDMDL
MODEL 3
REMARK VINA RESULT:      -7.1      1.920      2.640
REMARK  Name = *****
REMARK                            x       y       z     vdW  Elec       q    Type
REMARK                         _______ _______ _______ _____ _____    ______ ____
ROOT
ATOM      1  C   LIG    1       26.999 -20.356   6.486  0.00  0.00    +0.113 C 
ENDROOT
BRANCH   1   2
ATOM      2  C   LIG    1       28.503 -20.290   6.192  0.00  0.00    +0.233 C 
BRANCH   2   3
ATOM      3  N   LIG    1       29.216 -19.331   7.044  0.00  0.00    -0.233 N 
ATOM      4  H   LIG    1       28.674 -18.515   7.319  0.00  0.00    +0.291 HD
BRANCH   3   5
ATOM      5  C   LIG    1       30.110 -19.717   8.038  0.00  0.00    +0.326 C 
ATOM      6  C   LIG    1       30.186 -21.024   8.329  0.00  0.00    +0.474 C 
BRANCH   5   8
ATOM      7  C   LIG    1       30.699 -18.007   9.837  0.00  0.00    +0.273 C 
ATOM      8  N   LIG    1       30.917 -18.752   8.619  0.00  0.00    -0.236 N 
ATOM      9  H   LIG    1       31.914 -18.914   8.439  0.00  0.00    +0.291 HD
ENDBRANCH   5   8
BRANCH   6  10
ATOM     10  N   LIG    1       31.121 -21.595   9.270  0.00  0.00    +0.080 N 
ATOM     11  O   LIG    1       30.698 -22.509   9.963  0.00  0.00    -0.576 OA
ATOM     12  O   LIG    1       32.287 -21.134   9.335  0.00  0.00    +0.041 OA
ENDBRANCH   6  10
ENDBRANCH   3   5
ENDBRANCH   2   3
ENDBRANCH   1   2
BRANCH   1  13
ATOM     13  S   LIG    1       25.955 -20.345   4.982  0.00  0.00    -0.149 S 
BRANCH  13  14
ATOM     14  C   LIG    1       24.308 -20.653   5.712  0.00  0.00    +0.143 C 
BRANCH  14  15
ATOM     15  C   LIG    1       23.995 -22.085   5.952  0.00  0.00    +0.115 A 
ATOM     16  O   LIG    1       24.837 -22.997   5.373  0.00  0.00    -0.462 OA
ATOM     17  C   LIG    1       24.479 -24.233   5.838  0.00  0.00    +0.119 A 
ATOM     18  C   LIG    1       23.423 -24.111   6.718  0.00  0.00    +0.046 A 
ATOM     19  C   LIG    1       23.065 -22.743   6.729  0.00  0.00    +0.046 A 
BRANCH  17  20
ATOM     20  C   LIG    1       25.214 -25.414   5.282  0.00  0.00    +0.158 C 
BRANCH  20  21
ATOM     21  N   LIG    1       24.977 -26.628   6.095  0.00  0.00    -0.301 NA
ATOM     22  C   LIG    1       26.080 -26.866   7.028  0.00  0.00    +0.105 C 
ATOM     23  C   LIG    1       24.808 -27.801   5.229  0.00  0.00    +0.105 C 
ENDBRANCH  20  21
ENDBRANCH  17  20
ENDBRANCH  14  15
ENDBRANCH  13  14
ENDBRANCH   1  13
TORSDOF 10
ENDMDL
MODEL 4
REMARK VINA RESULT:      -7.1      1.782      2.707
REMARK  Name = *****
REMARK                            x       y       z     vdW  Elec       q    Type
REMARK                         _______ _______ _______ _____ _____    ______ ____
ROOT
ATOM      1  C   LIG    1       28.966 -20.151   6.182  0.00  0.00    +0.113 C 
ENDROOT
BRANCH   1   2
ATOM      2  C   LIG    1       30.060 -19.110   6.451  0.00  0.00    +0.233 C 
BRANCH   2   3
ATOM      3  N   LIG    1       31.248 -19.675   7.102  0.00  0.00    -0.233 N 
ATOM      4  H   LIG    1       32.099 -19.640   6.546  0.00  0.00    +0.291 HD
BRANCH   3   5
ATOM      5  C   LIG    1       31.512 -19.528   8.461  0.00  0.00    +0.326 C 
ATOM      6  C   LIG    1       31.453 -18.290   8.972  0.00  0.00    +0.474 C 
BRANCH   5   8
ATOM      7  C   LIG    1       31.046 -21.924   9.201  0.00  0.00    +0.273 C 
ATOM      8  N   LIG    1       31.749 -20.663   9.219  0.00  0.00    -0.236 N 
ATOM      9  H   LIG    1       32.742 -20.777   9.453  0.00  0.00    +0.291 HD
ENDBRANCH   5   8
BRANCH   6  10
ATOM     10  N   LIG    1       31.615 -17.980  10.373  0.00  0.00    +0.080 N 
ATOM     11  O   LIG    1       30.735 -18.382  11.120  0.00  0.00    -0.576 OA
ATOM     12  O   LIG    1       32.620 -17.327  10.746  0.00  0.00    +0.041 OA
ENDBRANCH   6  10
ENDBRANCH   3   5
ENDBRANCH   2   3
ENDBRANCH   1   2
BRANCH   1  13
ATOM     13  S   LIG    1       27.690 -20.232   7.493  0.00  0.00    -0.149 S 
BRANCH  13  14
ATOM     14  C   LIG    1       27.477 -22.041   7.646  0.00  0.00    +0.143 C 
BRANCH  14  15
ATOM     15  C   LIG    1       26.137 -22.542   7.246  0.00  0.00    +0.115 A 
ATOM     16  O   LIG    1       25.289 -21.628   6.682  0.00  0.00    -0.462 OA
ATOM     17  C   LIG    1       24.187 -22.311   6.246  0.00  0.00    +0.119 A 
ATOM     18  C   LIG    1       24.335 -23.656   6.518  0.00  0.00    +0.046 A 
ATOM     19  C   LIG    1       25.550 -23.791   7.229  0.00  0.00    +0.046 A 
BRANCH  17  20
ATOM     20  C   LIG    1       23.070 -21.506   5.654  0.00  0.00    +0.158 C 
BRANCH  20  21
ATOM     21  N   LIG    1       23.569 -20.245   5.062  0.00  0.00    -0.301 NA
ATOM     22  C   LIG    1       22.508 -19.238   4.985  0.00  0.00    +0.105 C 
ATOM     23  C   LIG    1       24.111 -20.486   3.721  0.00  0.00    +0.105 C 
ENDBRANCH  20  21
ENDBRANCH  17  20
ENDBRANCH  14  15
ENDBRANCH  13  14
ENDBRANCH   1  13
TORSDOF 10
ENDMDL
MODEL 5
REMARK VINA RESULT:      -6.9      1.998      2.591
REMARK  Name = *****
REMARK                            x       y       z     vdW  Elec       q    Type
REMARK                         _______ _______ _______ _____ _____    ______ ____
ROOT
ATOM      1  C   LIG    1       26.550 -20.469   5.756  0.00  0.00    +0.113 C 
ENDROOT
BRANCH   1   2
ATOM      2  C   LIG    1       27.910 -19.814   6.029  0.00  0.00    +0.233 C 
BRANCH   2   3
ATOM      3  N   LIG    1       28.920 -20.761   6.514  0.00  0.00    -0.233 N 
ATOM      4  H   LIG    1       29.498 -21.180   5.789  0.00  0.00    +0.291 HD
BRANCH   3   5
ATOM      5  C   LIG    1       29.629 -20.575   7.698  0.00  0.00    +0.326 C 
ATOM      6  C   LIG    1       30.299 -21.627   8.189  0.00  0.00    +0.474 C 
BRANCH   5   8
ATOM      7  C   LIG    1       30.615 -18.248   8.042  0.00  0.00    +0.273 C 
ATOM      8  N   LIG    1       29.662 -19.310   8.262  0.00  0.00    -0.236 N 
ATOM      9  H   LIG    1       28.724 -18.951   8.472  0.00  0.00    +0.291 HD
ENDBRANCH   5   8
BRANCH   6  10
ATOM     10  N   LIG    1       31.149 -21.578   9.355  0.00  0.00    +0.080 N 
ATOM     11  O   LIG    1       30.759 -22.197  10.333  0.00  0.00    -0.576 OA
ATOM     12  O   LIG    1       32.215 -20.915   9.311  0.00  0.00    +0.041 OA
ENDBRANCH   6  10
ENDBRANCH   3   5
ENDBRANCH   2   3
ENDBRANCH   1   2
BRANCH   1  13
ATOM     13  S   LIG    1       25.768 -19.918   4.195  0.00  0.00    -0.149 S 
BRANCH  13  14
ATOM     14  C   LIG    1       24.009 -19.884   4.691  0.00  0.00    +0.143 C 
BRANCH  14  15
ATOM     15  C   LIG    1       23.662 -20.807   5.803  0.00  0.00    +0.115 A 
ATOM     16  O   LIG    1       23.709 -22.145   5.519  0.00  0.00    -0.462 OA
ATOM     17  C   LIG    1       23.516 -22.817   6.695  0.00  0.00    +0.119 A 
ATOM     18  C   LIG    1       23.359 -21.914   7.726  0.00  0.00    +0.046 A 
ATOM     19  C   LIG    1       23.375 -20.628   7.140  0.00  0.00    +0.046 A 
BRANCH  17  20
ATOM     20  C   LIG    1       23.447 -24.313   6.627  0.00  0.00    +0.158 C 
BRANCH  20  21
ATOM     21  N   LIG    1       24.598 -24.873   5.884  0.00  0.00    -0.301 NA
ATOM     22  C   LIG    1       24.371 -26.276   5.534  0.00  0.00    +0.105 C 
ATOM     23  C   LIG    1       25.826 -24.759   6.679  0.00  0.00    +0.105 C 
ENDBRANCH  20  21
ENDBRANCH  17  20
ENDBRANCH  14  15
ENDBRANCH  13  14
ENDBRANCH   1  13
TORSDOF 10
ENDMDL
MODEL 6
REMARK VINA RESULT:      -6.6      3.079      4.367
REMARK  Name = *****
REMARK                            x       y       z     vdW  Elec       q    Type
REMARK                         _______ _______ _______ _____ _____    ______ ____
ROOT
ATOM      1  C   LIG    1       23.916 -21.307   5.219  0.00  0.00    +0.113 C 
ENDROOT
BRANCH   1   2
ATOM      2  C   LIG    1       25.177 -20.434   5.208  0.00  0.00    +0.233 C 
BRANCH   2   3
ATOM      3  N   LIG    1       26.349 -21.105   5.781  0.00  0.00    -0.233 N 
ATOM      4  H   LIG    1       26.736 -21.854   5.211  0.00  0.00    +0.291 HD
BRANCH   3   5
ATOM      5  C   LIG    1       27.339 -20.431   6.490  0.00  0.00    +0.326 C 
ATOM      6  C   LIG    1       28.410 -20.005   5.804  0.00  0.00    +0.474 C 
BRANCH   5   8
ATOM      7  C   LIG    1       26.108 -20.692   8.708  0.00  0.00    +0.273 C 
ATOM      8  N   LIG    1       27.137 -20.177   7.837  0.00  0.00    -0.236 N 
ATOM      9  H   LIG    1       28.016 -20.002   8.338  0.00  0.00    +0.291 HD
ENDBRANCH   5   8
BRANCH   6  10
ATOM     10  N   LIG    1       29.480 -19.219   6.373  0.00  0.00    +0.080 N 
ATOM     11  O   LIG    1       30.052 -19.705   7.337  0.00  0.00    -0.576 OA
ATOM     12  O   LIG    1       29.759 -18.104   5.868  0.00  0.00    +0.041 OA
ENDBRANCH   6  10
ENDBRANCH   3   5
ENDBRANCH   2   3
ENDBRANCH   1   2
BRANCH   1  13
ATOM     13  S   LIG    1       23.281 -21.660   6.899  0.00  0.00    -0.149 S 
BRANCH  13  14
ATOM     14  C   LIG    1       22.804 -23.415   6.718  0.00  0.00    +0.143 C 
BRANCH  14  15
ATOM     15  C   LIG    1       23.946 -24.362   6.646  0.00  0.00    +0.115 A 
ATOM     16  O   LIG    1       23.677 -25.601   6.127  0.00  0.00    -0.462 OA
ATOM     17  C   LIG    1       24.871 -26.256   6.002  0.00  0.00    +0.119 A 
ATOM     18  C   LIG    1       25.899 -25.438   6.425  0.00  0.00    +0.046 A 
ATOM     19  C   LIG    1       25.296 -24.255   6.910  0.00  0.00    +0.046 A 
BRANCH  17  20
ATOM     20  C   LIG    1       24.828 -27.675   5.522  0.00  0.00    +0.158 C 
BRANCH  20  21
ATOM     21  N   LIG    1       24.356 -28.590   6.585  0.00  0.00    -0.301 NA
ATOM     22  C   LIG    1       25.355 -28.730   7.647  0.00  0.00    +0.105 C 
ATOM     23  C   LIG    1       24.048 -29.911   6.027  0.00  0.00    +0.105 C 
ENDBRANCH  20  21
ENDBRANCH  17  20
ENDBRANCH  14  15
ENDBRANCH  13  14
ENDBRANCH   1  13
TORSDOF 10
ENDMDL
MODEL 7
REMARK VINA RESULT:      -6.5      2.513      3.808
REMARK  Name = *****
REMARK                            x       y       z     vdW  Elec       q    Type
REMARK                         _______ _______ _______ _____ _____    ______ ____
ROOT
ATOM      1  C   LIG    1       25.728 -20.906   6.772  0.00  0.00    +0.113 C 
ENDROOT
BRANCH   1   2
ATOM      2  C   LIG    1       27.012 -21.575   7.280  0.00  0.00    +0.233 C 
BRANCH   2   3
ATOM      3  N   LIG    1       28.215 -21.133   6.567  0.00  0.00    -0.233 N 
ATOM      4  H   LIG    1       28.039 -20.615   5.709  0.00  0.00    +0.291 HD
BRANCH   3   5
ATOM      5  C   LIG    1       29.362 -20.684   7.216  0.00  0.00    +0.326 C 
ATOM      6  C   LIG    1       29.798 -21.397   8.265  0.00  0.00    +0.474 C 
BRANCH   5   8
ATOM      7  C   LIG    1       29.514 -18.536   5.850  0.00  0.00    +0.273 C 
ATOM      8  N   LIG    1       30.025 -19.579   6.709  0.00  0.00    -0.236 N 
ATOM      9  H   LIG    1       30.755 -19.235   7.342  0.00  0.00    +0.291 HD
ENDBRANCH   5   8
BRANCH   6  10
ATOM     10  N   LIG    1       31.014 -21.116   8.990  0.00  0.00    +0.080 N 
ATOM     11  O   LIG    1       31.862 -21.996   8.984  0.00  0.00    -0.576 OA
ATOM     12  O   LIG    1       31.138 -20.014   9.580  0.00  0.00    +0.041 OA
ENDBRANCH   6  10
ENDBRANCH   3   5
ENDBRANCH   2   3
ENDBRANCH   1   2
BRANCH   1  13
ATOM     13  S   LIG    1       24.832 -21.892   5.517  0.00  0.00    -0.149 S 
BRANCH  13  14
ATOM     14  C   LIG    1       24.071 -23.173   6.576  0.00  0.00    +0.143 C 
BRANCH  14  15
ATOM     15  C   LIG    1       24.752 -24.493   6.536  0.00  0.00    +0.115 A 
ATOM     16  O   LIG    1       23.951 -25.585   6.336  0.00  0.00    -0.462 OA
ATOM     17  C   LIG    1       24.772 -26.668   6.175  0.00  0.00    +0.119 A 
ATOM     18  C   LIG    1       26.090 -26.268   6.259  0.00  0.00    +0.046 A 
ATOM     19  C   LIG    1       26.073 -24.889   6.568  0.00  0.00    +0.046 A 
BRANCH  17  20
ATOM     20  C   LIG    1       24.119 -28.007   6.017  0.00  0.00    +0.158 C 
BRANCH  20  21
ATOM     21  N   LIG    1       24.995 -29.095   6.506  0.00  0.00    -0.301 NA
ATOM     22  C   LIG    1       25.318 -30.039   5.433  0.00  0.00    +0.105 C 
ATOM     23  C   LIG    1       24.354 -29.813   7.612  0.00  0.00    +0.105 C 
ENDBRANCH  20  21
ENDBRANCH  17  20
ENDBRANCH  14  15
ENDBRANCH  13  14
ENDBRANCH   1  13
TORSDOF 10
ENDMDL
MODEL 8
REMARK VINA RESULT:      -6.5      2.219      8.269
REMARK  Name = *****
REMARK                            x       y       z     vdW  Elec       q    Type
REMARK                         _______ _______ _______ _____ _____    ______ ____
ROOT
ATOM      1  C   LIG    1       24.845 -20.623   7.365  0.00  0.00    +0.113 C 
ENDROOT
BRANCH   1   2
ATOM      2  C   LIG    1       23.564 -21.419   7.643  0.00  0.00    +0.233 C 
BRANCH   2   3
ATOM      3  N   LIG    1       23.217 -22.351   6.564  0.00  0.00    -0.233 N 
ATOM      4  H   LIG    1       22.412 -22.078   6.004  0.00  0.00    +0.291 HD
BRANCH   3   5
ATOM      5  C   LIG    1       24.169 -23.024   5.806  0.00  0.00    +0.326 C 
ATOM      6  C   LIG    1       24.526 -24.252   6.209  0.00  0.00    +0.474 C 
BRANCH   5   8
ATOM      7  C   LIG    1       24.092 -21.308   3.920  0.00  0.00    +0.273 C 
ATOM      8  N   LIG    1       24.642 -22.427   4.648  0.00  0.00    -0.236 N 
ATOM      9  H   LIG    1       25.665 -22.470   4.575  0.00  0.00    +0.291 HD
ENDBRANCH   5   8
BRANCH   6  10
ATOM     10  N   LIG    1       25.433 -25.114   5.488  0.00  0.00    +0.080 N 
ATOM     11  O   LIG    1       25.117 -25.391   4.341  0.00  0.00    -0.576 OA
ATOM     12  O   LIG    1       26.472 -25.529   6.059  0.00  0.00    +0.041 OA
ENDBRANCH   6  10
ENDBRANCH   3   5
ENDBRANCH   2   3
ENDBRANCH   1   2
BRANCH   1  13
ATOM     13  S   LIG    1       26.123 -20.810   8.664  0.00  0.00    -0.149 S 
BRANCH  13  14
ATOM     14  C   LIG    1       27.540 -21.384   7.663  0.00  0.00    +0.143 C 
BRANCH  14  15
ATOM     15  C   LIG    1       28.550 -20.336   7.362  0.00  0.00    +0.115 A 
ATOM     16  O   LIG    1       29.457 -20.064   8.352  0.00  0.00    -0.462 OA
ATOM     17  C   LIG    1       30.382 -19.202   7.830  0.00  0.00    +0.119 A 
ATOM     18  C   LIG    1       30.076 -18.935   6.511  0.00  0.00    +0.046 A 
ATOM     19  C   LIG    1       28.859 -19.601   6.237  0.00  0.00    +0.046 A 
BRANCH  17  20
ATOM     20  C   LIG    1       31.444 -18.692   8.755  0.00  0.00    +0.158 C 
BRANCH  20  21
ATOM     21  N   LIG    1       31.149 -17.314   9.208  0.00  0.00    -0.301 NA
ATOM     22  C   LIG    1       32.379 -16.548   9.414  0.00  0.00    +0.105 C 
ATOM     23  C   LIG    1       30.374 -17.338  10.454  0.00  0.00    +0.105 C 
ENDBRANCH  20  21
ENDBRANCH  17  20
ENDBRANCH  14  15
ENDBRANCH  13  14
ENDBRANCH   1  13
TORSDOF 10
ENDMDL
MODEL 9
REMARK VINA RESULT:      -6.5      3.086      8.310
REMARK  Name = *****
REMARK                            x       y       z     vdW  Elec       q    Type
REMARK                         _______ _______ _______ _____ _____    ______ ____
ROOT
ATOM      1  C   LIG    1       25.245 -22.458   7.678  0.00  0.00    +0.113 C 
ENDROOT
BRANCH   1   2
ATOM      2  C   LIG    1       23.766 -22.205   7.362  0.00  0.00    +0.233 C 
BRANCH   2   3
ATOM      3  N   LIG    1       23.470 -22.225   5.924  0.00  0.00    -0.233 N 
ATOM      4  H   LIG    1       22.652 -22.770   5.663  0.00  0.00    +0.291 HD
BRANCH   3   5
ATOM      5  C   LIG    1       23.641 -21.119   5.098  0.00  0.00    +0.326 C 
ATOM      6  C   LIG    1       22.659 -20.207   5.074  0.00  0.00    +0.474 C 
BRANCH   5   8
ATOM      7  C   LIG    1       25.967 -20.145   4.713  0.00  0.00    +0.273 C 
ATOM      8  N   LIG    1       24.833 -20.984   4.404  0.00  0.00    -0.236 N 
ATOM      9  H   LIG    1       25.112 -21.851   3.932  0.00  0.00    +0.291 HD
ENDBRANCH   5   8
BRANCH   6  10
ATOM     10  N   LIG    1       22.719 -18.965   4.338  0.00  0.00    +0.080 N 
ATOM     11  O   LIG    1       22.151 -18.010   4.846  0.00  0.00    -0.576 OA
ATOM     12  O   LIG    1       23.330 -18.930   3.241  0.00  0.00    +0.041 OA
ENDBRANCH   6  10
ENDBRANCH   3   5
ENDBRANCH   2   3
ENDBRANCH   1   2
BRANCH   1  13
ATOM     13  S   LIG    1       26.139 -20.968   8.253  0.00  0.00    -0.149 S 
BRANCH  13  14
ATOM     14  C   LIG    1       27.867 -21.459   7.914  0.00  0.00    +0.143 C 
BRANCH  14  15
ATOM     15  C   LIG    1       28.775 -20.334   7.572  0.00  0.00    +0.115 A 
ATOM     16  O   LIG    1       29.690 -19.978   8.527  0.00  0.00    -0.462 OA
ATOM     17  C   LIG    1       30.520 -19.047   7.967  0.00  0.00    +0.119 A 
ATOM     18  C   LIG    1       30.147 -18.818   6.658  0.00  0.00    +0.046 A 
ATOM     19  C   LIG    1       28.982 -19.585   6.432  0.00  0.00    +0.046 A 
BRANCH  17  20
ATOM     20  C   LIG    1       31.568 -18.442   8.851  0.00  0.00    +0.158 C 
BRANCH  20  21
ATOM     21  N   LIG    1       31.157 -17.107   9.340  0.00  0.00    -0.301 NA
ATOM     22  C   LIG    1       32.310 -16.219   9.493  0.00  0.00    +0.105 C 
ATOM     23  C   LIG    1       30.457 -17.224  10.624  0.00  0.00    +0.105 C 
ENDBRANCH  20  21
ENDBRANCH  17  20
ENDBRANCH  14  15
ENDBRANCH  13  14
ENDBRANCH   1  13
TORSDOF 10
ENDMDL
