MODEL 1
REMARK VINA RESULT:      45.8      0.000      0.000
REMARK  Name = *****
REMARK                            x       y       z     vdW  Elec       q    Type
REMARK                         _______ _______ _______ _____ _____    ______ ____
ROOT
ATOM      1  C   LIG    1       27.312 -17.039   4.218  0.00  0.00    +0.073 A 
ATOM      2  C   LIG    1       28.089 -16.019   4.828  0.00  0.00    +0.058 A 
ATOM      3 CL   LIG    1       29.475 -16.391   5.815  0.00  0.00    -0.082 Cl
ATOM      4  C   LIG    1       27.798 -14.648   4.607  0.00  0.00    -0.022 A 
ATOM      5  C   LIG    1       28.529 -13.542   5.363  0.00  0.00    +0.056 C 
ATOM      6  C   LIG    1       28.117 -12.118   4.959  0.00  0.00    +0.113 C 
ATOM      7  N   LIG    1       26.695 -12.048   4.651  0.00  0.00    -0.293 N 
ATOM      8  C   LIG    1       26.342 -12.865   3.503  0.00  0.00    +0.143 C 
ATOM      9  C   LIG    1       25.816 -11.740   5.696  0.00  0.00    +0.247 C 
ATOM     10  O   LIG    1       26.217 -11.534   6.843  0.00  0.00    -0.270 OA
ATOM     11  C   LIG    1       26.741 -14.303   3.742  0.00  0.00    -0.024 A 
ATOM     12  C   LIG    1       26.037 -15.305   3.077  0.00  0.00    +0.026 A 
ATOM     13  C   LIG    1       26.301 -16.651   3.322  0.00  0.00    +0.055 A 
ATOM     14 CL   LIG    1       25.271 -17.735   2.454  0.00  0.00    -0.083 Cl
ENDROOT
BRANCH   9  15
ATOM     15  C   LIG    1       24.350 -11.620   5.455  0.00  0.00    +0.040 A 
ATOM     16  C   LIG    1       23.430 -11.684   6.511  0.00  0.00    +0.059 A 
ATOM     17  C   LIG    1       22.081 -11.599   6.172  0.00  0.00    +0.136 A 
ATOM     18  C   LIG    1       21.600 -11.518   4.871  0.00  0.00    +0.020 A 
ATOM     19  C   LIG    1       20.185 -11.486   4.986  0.00  0.00    +0.049 A 
ATOM     20  C   LIG    1       19.904 -11.521   6.333  0.00  0.00    +0.196 A 
ATOM     21  C   LIG    1       22.527 -11.507   3.815  0.00  0.00    +0.012 A 
ATOM     22  O   LIG    1       21.050 -11.596   7.060  0.00  0.00    -0.463 OA
ATOM     23  C   LIG    1       23.897 -11.553   4.125  0.00  0.00    +0.014 A 
ENDBRANCH   9  15
BRANCH   1  26
ATOM     24  N   LIG    1       26.733 -19.061   5.497  0.00  0.00    -0.298 N 
ATOM     25  H   LIG    1       26.182 -18.456   6.096  0.00  0.00    +0.150 HD
ATOM     26  C   LIG    1       27.560 -18.481   4.552  0.00  0.00    +0.248 C 
ATOM     27  O   LIG    1       28.423 -19.142   3.994  0.00  0.00    -0.270 OA
BRANCH  24  28
ATOM     28  CA  LIG    1       26.915 -20.456   5.952  0.00  0.00    +0.186 C 
BRANCH  28  29
ATOM     29  C   LIG    1       28.420 -20.774   5.975  0.00  0.00    +0.326 C 
ATOM     30  O   LIG    1       29.163 -20.529   6.915  0.00  0.00    -0.249 OA
BRANCH  29  31
ATOM     31  OXT LIG    1       28.858 -21.433   4.871  0.00  0.00    -0.479 OA
ATOM     32  HXT LIG    1       28.294 -22.222   4.733  0.00  0.00    +0.295 HD
ENDBRANCH  29  31
ENDBRANCH  28  29
BRANCH  28  33
ATOM     33  C   LIG    1       26.235 -21.463   4.998  0.00  0.00    +0.069 C 
BRANCH  33  36
ATOM     34  C   LIG    1       23.158 -19.444   3.956  0.00  0.00    +0.088 A 
ATOM     35  C   LIG    1       24.217 -19.945   4.721  0.00  0.00    +0.030 A 
ATOM     36  C   LIG    1       25.077 -20.924   4.182  0.00  0.00    -0.043 A 
ATOM     37  C   LIG    1       24.847 -21.366   2.876  0.00  0.00    +0.004 A 
ATOM     38  C   LIG    1       23.793 -20.854   2.118  0.00  0.00    +0.002 A 
ATOM     39  C   LIG    1       22.934 -19.898   2.655  0.00  0.00    +0.027 A 
BRANCH  34  41
ATOM     40  C   LIG    1       20.436 -18.754   3.979  0.00  0.00    +0.200 C 
ATOM     41  S   LIG    1       21.997 -18.306   4.689  0.00  0.00    -0.006 S 
ATOM     42  O   LIG    1       21.944 -18.595   6.110  0.00  0.00    -0.170 OA
ATOM     43  O   LIG    1       22.340 -16.979   4.213  0.00  0.00    -0.170 OA
ENDBRANCH  34  41
ENDBRANCH  33  36
ENDBRANCH  28  33
ENDBRANCH  24  28
ENDBRANCH   1  26
TORSDOF 8
ENDMDL
