MODEL 1
REMARK VINA RESULT:      -5.8      0.000      0.000
REMARK  Name = *****
REMARK                            x       y       z     vdW  Elec       q    Type
REMARK                         _______ _______ _______ _____ _____    ______ ____
ROOT
ATOM      1  C   LIG    1       24.293 -29.603   6.453  0.00  0.00    +0.256 C 
ATOM      2  C   LIG    1       24.940 -28.515   7.349  0.00  0.00    +0.048 C 
ATOM      3  C   LIG    1       25.746 -27.514   6.514  0.00  0.00    +0.013 C 
ATOM      4  C   LIG    1       25.777 -29.209   8.449  0.00  0.00    +0.037 C 
ATOM      5  C   LIG    1       24.887 -30.175   9.287  0.00  0.00    +0.161 C 
ATOM      6  C   LIG    1       24.639 -29.655  10.733  0.00  0.00    +0.032 C 
ATOM      7  C   LIG    1       25.968 -29.393  11.501  0.00  0.00    -0.008 C 
ATOM      8  C   LIG    1       25.756 -28.375  12.633  0.00  0.00    +0.008 C 
ATOM      9  C   LIG    1       27.097 -28.900  10.577  0.00  0.00    +0.004 C 
ATOM     10  C   LIG    1       23.697 -30.574  11.551  0.00  0.00    +0.012 C 
ATOM     11  C   LIG    1       23.795 -32.081  11.265  0.00  0.00    +0.068 C 
ATOM     12  C   LIG    1       23.622 -32.451   9.774  0.00  0.00    +0.203 C 
ATOM     13  C   LIG    1       22.968 -33.825   9.643  0.00  0.00    +0.077 C 
ATOM     14  O   LIG    1       24.876 -32.538   9.090  0.00  0.00    -0.199 OA
ATOM     15  O   LIG    1       22.766 -31.505   9.137  0.00  0.00    -0.314 OA
ATOM     16  C   LIG    1       23.526 -30.436   8.566  0.00  0.00    +0.292 C 
ATOM     17  O   LIG    1       25.678 -31.379   9.458  0.00  0.00    -0.220 OA
ATOM     18  C   LIG    1       26.556 -28.215   9.328  0.00  0.00    +0.007 C 
ATOM     19  O   LIG    1       23.688 -30.671   7.174  0.00  0.00    -0.319 OA
ENDROOT
BRANCH   1  20
ATOM     20  O   LIG    1       25.307 -30.125   5.590  0.00  0.00    -0.351 OA
BRANCH  20  22
ATOM     21  C   LIG    1       26.569 -32.099   6.014  0.00  0.00    +0.034 C 
ATOM     22  C   LIG    1       25.260 -31.545   5.485  0.00  0.00    +0.159 C 
ENDBRANCH  20  22
ENDBRANCH   1  20
TORSDOF 2
ENDMDL
MODEL 2
REMARK VINA RESULT:      -5.3      1.479      4.444
REMARK  Name = *****
REMARK                            x       y       z     vdW  Elec       q    Type
REMARK                         _______ _______ _______ _____ _____    ______ ____
ROOT
ATOM      1  C   LIG    1       26.218 -30.925  10.721  0.00  0.00    +0.256 C 
ATOM      2  C   LIG    1       26.743 -29.751   9.854  0.00  0.00    +0.048 C 
ATOM      3  C   LIG    1       27.354 -28.647  10.723  0.00  0.00    +0.013 C 
ATOM      4  C   LIG    1       25.596 -29.251   8.945  0.00  0.00    +0.037 C 
ATOM      5  C   LIG    1       25.054 -30.412   8.058  0.00  0.00    +0.161 C 
ATOM      6  C   LIG    1       25.428 -30.241   6.557  0.00  0.00    +0.032 C 
ATOM      7  C   LIG    1       24.930 -28.883   5.978  0.00  0.00    -0.008 C 
ATOM      8  C   LIG    1       25.765 -28.470   4.754  0.00  0.00    +0.008 C 
ATOM      9  C   LIG    1       24.959 -27.750   7.020  0.00  0.00    +0.004 C 
ATOM     10  C   LIG    1       24.954 -31.426   5.677  0.00  0.00    +0.012 C 
ATOM     11  C   LIG    1       23.631 -32.093   6.086  0.00  0.00    +0.068 C 
ATOM     12  C   LIG    1       23.592 -32.563   7.558  0.00  0.00    +0.203 C 
ATOM     13  C   LIG    1       22.716 -33.807   7.692  0.00  0.00    +0.077 C 
ATOM     14  O   LIG    1       23.023 -31.579   8.425  0.00  0.00    -0.199 OA
ATOM     15  O   LIG    1       24.905 -32.915   7.988  0.00  0.00    -0.314 OA
ATOM     16  C   LIG    1       25.561 -31.792   8.586  0.00  0.00    +0.292 C 
ATOM     17  O   LIG    1       23.610 -30.286   8.096  0.00  0.00    -0.220 OA
ATOM     18  C   LIG    1       25.980 -28.010   8.120  0.00  0.00    +0.007 C 
ATOM     19  O   LIG    1       25.470 -31.898   9.999  0.00  0.00    -0.319 OA
ENDROOT
BRANCH   1  20
ATOM     20  O   LIG    1       25.406 -30.375  11.762  0.00  0.00    -0.351 OA
BRANCH  20  22
ATOM     21  C   LIG    1       23.123 -29.739  12.001  0.00  0.00    +0.034 C 
ATOM     22  C   LIG    1       24.077 -30.891  11.752  0.00  0.00    +0.159 C 
ENDBRANCH  20  22
ENDBRANCH   1  20
TORSDOF 2
ENDMDL
MODEL 3
REMARK VINA RESULT:      -5.2      1.633      5.269
REMARK  Name = *****
REMARK                            x       y       z     vdW  Elec       q    Type
REMARK                         _______ _______ _______ _____ _____    ______ ____
ROOT
ATOM      1  C   LIG    1       23.143 -31.680   9.865  0.00  0.00    +0.256 C 
ATOM      2  C   LIG    1       24.048 -32.909   9.592  0.00  0.00    +0.048 C 
ATOM      3  C   LIG    1       24.131 -33.824  10.818  0.00  0.00    +0.013 C 
ATOM      4  C   LIG    1       25.430 -32.411   9.105  0.00  0.00    +0.037 C 
ATOM      5  C   LIG    1       25.276 -31.527   7.830  0.00  0.00    +0.161 C 
ATOM      6  C   LIG    1       25.816 -32.227   6.550  0.00  0.00    +0.032 C 
ATOM      7  C   LIG    1       27.307 -32.653   6.696  0.00  0.00    -0.008 C 
ATOM      8  C   LIG    1       27.644 -33.805   5.735  0.00  0.00    +0.008 C 
ATOM      9  C   LIG    1       27.664 -33.069   8.135  0.00  0.00    +0.004 C 
ATOM     10  C   LIG    1       25.603 -31.384   5.266  0.00  0.00    +0.012 C 
ATOM     11  C   LIG    1       25.699 -29.859   5.427  0.00  0.00    +0.068 C 
ATOM     12  C   LIG    1       24.769 -29.282   6.520  0.00  0.00    +0.203 C 
ATOM     13  C   LIG    1       24.317 -27.874   6.139  0.00  0.00    +0.077 C 
ATOM     14  O   LIG    1       25.430 -29.162   7.783  0.00  0.00    -0.199 OA
ATOM     15  O   LIG    1       23.602 -30.090   6.638  0.00  0.00    -0.314 OA
ATOM     16  C   LIG    1       23.785 -31.107   7.628  0.00  0.00    +0.292 C 
ATOM     17  O   LIG    1       26.161 -30.397   8.036  0.00  0.00    -0.220 OA
ATOM     18  C   LIG    1       26.445 -33.551   8.910  0.00  0.00    +0.007 C 
ATOM     19  O   LIG    1       23.170 -30.692   8.840  0.00  0.00    -0.319 OA
ENDROOT
BRANCH   1  20
ATOM     20  O   LIG    1       23.557 -31.094  11.103  0.00  0.00    -0.351 OA
BRANCH  20  22
ATOM     21  C   LIG    1       25.113 -29.336  11.504  0.00  0.00    +0.034 C 
ATOM     22  C   LIG    1       23.721 -29.681  11.013  0.00  0.00    +0.159 C 
ENDBRANCH  20  22
ENDBRANCH   1  20
TORSDOF 2
ENDMDL
MODEL 4
REMARK VINA RESULT:      -5.2      7.230     10.045
REMARK  Name = *****
REMARK                            x       y       z     vdW  Elec       q    Type
REMARK                         _______ _______ _______ _____ _____    ______ ____
ROOT
ATOM      1  C   LIG    1       26.815 -20.336   7.774  0.00  0.00    +0.256 C 
ATOM      2  C   LIG    1       26.941 -21.869   7.971  0.00  0.00    +0.048 C 
ATOM      3  C   LIG    1       28.377 -22.268   8.326  0.00  0.00    +0.013 C 
ATOM      4  C   LIG    1       26.404 -22.579   6.706  0.00  0.00    +0.037 C 
ATOM      5  C   LIG    1       24.927 -22.164   6.431  0.00  0.00    +0.161 C 
ATOM      6  C   LIG    1       23.922 -23.321   6.700  0.00  0.00    +0.032 C 
ATOM      7  C   LIG    1       24.255 -24.597   5.870  0.00  0.00    -0.008 C 
ATOM      8  C   LIG    1       23.673 -25.853   6.537  0.00  0.00    +0.008 C 
ATOM      9  C   LIG    1       25.769 -24.786   5.660  0.00  0.00    +0.004 C 
ATOM     10  C   LIG    1       22.445 -22.897   6.497  0.00  0.00    +0.012 C 
ATOM     11  C   LIG    1       22.177 -21.867   5.389  0.00  0.00    +0.068 C 
ATOM     12  C   LIG    1       23.017 -20.574   5.515  0.00  0.00    +0.203 C 
ATOM     13  C   LIG    1       22.235 -19.381   4.970  0.00  0.00    +0.077 C 
ATOM     14  O   LIG    1       24.227 -20.640   4.755  0.00  0.00    -0.199 OA
ATOM     15  O   LIG    1       23.298 -20.313   6.887  0.00  0.00    -0.314 OA
ATOM     16  C   LIG    1       24.542 -20.907   7.274  0.00  0.00    +0.292 C 
ATOM     17  O   LIG    1       24.851 -21.934   5.001  0.00  0.00    -0.220 OA
ATOM     18  C   LIG    1       26.587 -24.106   6.751  0.00  0.00    +0.007 C 
ATOM     19  O   LIG    1       25.557 -19.913   7.259  0.00  0.00    -0.319 OA
ENDROOT
BRANCH   1  20
ATOM     20  O   LIG    1       27.858 -19.917   6.890  0.00  0.00    -0.351 OA
BRANCH  20  22
ATOM     21  C   LIG    1       30.125 -19.236   6.631  0.00  0.00    +0.034 C 
ATOM     22  C   LIG    1       28.941 -19.295   7.576  0.00  0.00    +0.159 C 
ENDBRANCH  20  22
ENDBRANCH   1  20
TORSDOF 2
ENDMDL
MODEL 5
REMARK VINA RESULT:      -5.2      1.676      4.551
REMARK  Name = *****
REMARK                            x       y       z     vdW  Elec       q    Type
REMARK                         _______ _______ _______ _____ _____    ______ ____
ROOT
ATOM      1  C   LIG    1       25.279 -30.026  11.683  0.00  0.00    +0.256 C 
ATOM      2  C   LIG    1       26.045 -29.506  10.438  0.00  0.00    +0.048 C 
ATOM      3  C   LIG    1       26.762 -28.185  10.738  0.00  0.00    +0.013 C 
ATOM      4  C   LIG    1       25.059 -29.412   9.250  0.00  0.00    +0.037 C 
ATOM      5  C   LIG    1       24.402 -30.798   8.972  0.00  0.00    +0.161 C 
ATOM      6  C   LIG    1       24.903 -31.440   7.646  0.00  0.00    +0.032 C 
ATOM      7  C   LIG    1       24.670 -30.511   6.417  0.00  0.00    -0.008 C 
ATOM      8  C   LIG    1       25.644 -30.854   5.278  0.00  0.00    +0.008 C 
ATOM      9  C   LIG    1       24.806 -29.018   6.771  0.00  0.00    +0.004 C 
ATOM     10  C   LIG    1       24.309 -32.849   7.396  0.00  0.00    +0.012 C 
ATOM     11  C   LIG    1       22.871 -33.081   7.887  0.00  0.00    +0.068 C 
ATOM     12  C   LIG    1       22.654 -32.745   9.380  0.00  0.00    +0.203 C 
ATOM     13  C   LIG    1       21.584 -33.656   9.977  0.00  0.00    +0.077 C 
ATOM     14  O   LIG    1       22.190 -31.406   9.571  0.00  0.00    -0.199 OA
ATOM     15  O   LIG    1       23.861 -32.968  10.106  0.00  0.00    -0.314 OA
ATOM     16  C   LIG    1       24.644 -31.772  10.169  0.00  0.00    +0.292 C 
ATOM     17  O   LIG    1       22.998 -30.520   8.742  0.00  0.00    -0.220 OA
ATOM     18  C   LIG    1       25.693 -28.798   7.990  0.00  0.00    +0.007 C 
ATOM     19  O   LIG    1       24.438 -31.146  11.427  0.00  0.00    -0.319 OA
ENDROOT
BRANCH   1  20
ATOM     20  O   LIG    1       24.495 -28.948  12.200  0.00  0.00    -0.351 OA
BRANCH  20  22
ATOM     21  C   LIG    1       22.370 -28.088  12.847  0.00  0.00    +0.034 C 
ATOM     22  C   LIG    1       23.153 -29.335  12.487  0.00  0.00    +0.159 C 
ENDBRANCH  20  22
ENDBRANCH   1  20
TORSDOF 2
ENDMDL
MODEL 6
REMARK VINA RESULT:      -5.2      7.971     10.788
REMARK  Name = *****
REMARK                            x       y       z     vdW  Elec       q    Type
REMARK                         _______ _______ _______ _____ _____    ______ ____
ROOT
ATOM      1  C   LIG    1       23.333 -19.374   4.478  0.00  0.00    +0.256 C 
ATOM      2  C   LIG    1       22.612 -20.746   4.405  0.00  0.00    +0.048 C 
ATOM      3  C   LIG    1       21.148 -20.584   3.986  0.00  0.00    +0.013 C 
ATOM      4  C   LIG    1       22.785 -21.471   5.761  0.00  0.00    +0.037 C 
ATOM      5  C   LIG    1       24.295 -21.643   6.103  0.00  0.00    +0.161 C 
ATOM      6  C   LIG    1       24.765 -23.123   6.004  0.00  0.00    +0.032 C 
ATOM      7  C   LIG    1       23.926 -24.068   6.916  0.00  0.00    -0.008 C 
ATOM      8  C   LIG    1       23.980 -25.516   6.402  0.00  0.00    +0.008 C 
ATOM      9  C   LIG    1       22.457 -23.624   7.035  0.00  0.00    +0.004 C 
ATOM     10  C   LIG    1       26.281 -23.294   6.274  0.00  0.00    +0.012 C 
ATOM     11  C   LIG    1       26.904 -22.340   7.305  0.00  0.00    +0.068 C 
ATOM     12  C   LIG    1       26.652 -20.843   7.010  0.00  0.00    +0.203 C 
ATOM     13  C   LIG    1       27.827 -20.002   7.503  0.00  0.00    +0.077 C 
ATOM     14  O   LIG    1       25.493 -20.347   7.686  0.00  0.00    -0.199 OA
ATOM     15  O   LIG    1       26.539 -20.640   5.603  0.00  0.00    -0.314 OA
ATOM     16  C   LIG    1       25.175 -20.735   5.183  0.00  0.00    +0.292 C 
ATOM     17  O   LIG    1       24.413 -21.309   7.509  0.00  0.00    -0.220 OA
ATOM     18  C   LIG    1       22.010 -22.798   5.835  0.00  0.00    +0.007 C 
ATOM     19  O   LIG    1       24.639 -19.428   5.042  0.00  0.00    -0.319 OA
ENDROOT
BRANCH   1  20
ATOM     20  O   LIG    1       22.516 -18.488   5.248  0.00  0.00    -0.351 OA
BRANCH  20  22
ATOM     21  C   LIG    1       22.468 -16.120   4.993  0.00  0.00    +0.034 C 
ATOM     22  C   LIG    1       21.950 -17.442   4.461  0.00  0.00    +0.159 C 
ENDBRANCH  20  22
ENDBRANCH   1  20
TORSDOF 2
ENDMDL
MODEL 7
REMARK VINA RESULT:      -5.0      8.396     11.227
REMARK  Name = *****
REMARK                            x       y       z     vdW  Elec       q    Type
REMARK                         _______ _______ _______ _____ _____    ______ ____
ROOT
ATOM      1  C   LIG    1       25.921 -19.109   3.726  0.00  0.00    +0.256 C 
ATOM      2  C   LIG    1       24.696 -20.056   3.642  0.00  0.00    +0.048 C 
ATOM      3  C   LIG    1       23.613 -19.485   2.722  0.00  0.00    +0.013 C 
ATOM      4  C   LIG    1       24.192 -20.346   5.076  0.00  0.00    +0.037 C 
ATOM      5  C   LIG    1       25.329 -20.966   5.942  0.00  0.00    +0.161 C 
ATOM      6  C   LIG    1       25.082 -22.468   6.264  0.00  0.00    +0.032 C 
ATOM      7  C   LIG    1       23.716 -22.701   6.976  0.00  0.00    -0.008 C 
ATOM      8  C   LIG    1       23.225 -24.142   6.765  0.00  0.00    +0.008 C 
ATOM      9  C   LIG    1       22.628 -21.718   6.503  0.00  0.00    +0.004 C 
ATOM     10  C   LIG    1       26.241 -23.113   7.066  0.00  0.00    +0.012 C 
ATOM     11  C   LIG    1       26.965 -22.203   8.071  0.00  0.00    +0.068 C 
ATOM     12  C   LIG    1       27.500 -20.888   7.458  0.00  0.00    +0.203 C 
ATOM     13  C   LIG    1       28.774 -20.450   8.177  0.00  0.00    +0.077 C 
ATOM     14  O   LIG    1       26.571 -19.810   7.598  0.00  0.00    -0.199 OA
ATOM     15  O   LIG    1       27.830 -21.093   6.087  0.00  0.00    -0.314 OA
ATOM     16  C   LIG    1       26.715 -20.785   5.244  0.00  0.00    +0.292 C 
ATOM     17  O   LIG    1       25.248 -20.294   7.225  0.00  0.00    -0.220 OA
ATOM     18  C   LIG    1       22.906 -21.190   5.102  0.00  0.00    +0.007 C 
ATOM     19  O   LIG    1       26.884 -19.481   4.707  0.00  0.00    -0.319 OA
ENDROOT
BRANCH   1  20
ATOM     20  O   LIG    1       25.441 -17.791   4.005  0.00  0.00    -0.351 OA
BRANCH  20  22
ATOM     21  C   LIG    1       25.481 -15.458   3.527  0.00  0.00    +0.034 C 
ATOM     22  C   LIG    1       26.199 -16.780   3.344  0.00  0.00    +0.159 C 
ENDBRANCH  20  22
ENDBRANCH   1  20
TORSDOF 2
ENDMDL
MODEL 8
REMARK VINA RESULT:      -5.0      7.267     10.355
REMARK  Name = *****
REMARK                            x       y       z     vdW  Elec       q    Type
REMARK                         _______ _______ _______ _____ _____    ______ ____
ROOT
ATOM      1  C   LIG    1       24.139 -24.017   5.608  0.00  0.00    +0.256 C 
ATOM      2  C   LIG    1       25.594 -23.864   6.125  0.00  0.00    +0.048 C 
ATOM      3  C   LIG    1       25.972 -25.010   7.069  0.00  0.00    +0.013 C 
ATOM      4  C   LIG    1       25.750 -22.466   6.766  0.00  0.00    +0.037 C 
ATOM      5  C   LIG    1       25.394 -21.349   5.739  0.00  0.00    +0.161 C 
ATOM      6  C   LIG    1       26.644 -20.545   5.275  0.00  0.00    +0.032 C 
ATOM      7  C   LIG    1       27.413 -19.910   6.471  0.00  0.00    -0.008 C 
ATOM      8  C   LIG    1       28.881 -19.646   6.101  0.00  0.00    +0.008 C 
ATOM      9  C   LIG    1       27.357 -20.781   7.740  0.00  0.00    +0.004 C 
ATOM     10  C   LIG    1       26.311 -19.479   4.201  0.00  0.00    +0.012 C 
ATOM     11  C   LIG    1       24.938 -18.798   4.317  0.00  0.00    +0.068 C 
ATOM     12  C   LIG    1       23.749 -19.785   4.375  0.00  0.00    +0.203 C 
ATOM     13  C   LIG    1       22.514 -19.162   3.726  0.00  0.00    +0.077 C 
ATOM     14  O   LIG    1       23.377 -20.104   5.719  0.00  0.00    -0.199 OA
ATOM     15  O   LIG    1       24.067 -20.968   3.646  0.00  0.00    -0.314 OA
ATOM     16  C   LIG    1       24.651 -21.952   4.504  0.00  0.00    +0.292 C 
ATOM     17  O   LIG    1       24.590 -20.391   6.473  0.00  0.00    -0.220 OA
ATOM     18  C   LIG    1       27.129 -22.252   7.414  0.00  0.00    +0.007 C 
ATOM     19  O   LIG    1       23.656 -22.893   4.879  0.00  0.00    -0.319 OA
ENDROOT
BRANCH   1  20
ATOM     20  O   LIG    1       23.293 -24.254   6.736  0.00  0.00    -0.351 OA
BRANCH  20  22
ATOM     21  C   LIG    1       22.539 -22.294   7.859  0.00  0.00    +0.034 C 
ATOM     22  C   LIG    1       22.206 -23.334   6.808  0.00  0.00    +0.159 C 
ENDBRANCH  20  22
ENDBRANCH   1  20
TORSDOF 2
ENDMDL
MODEL 9
REMARK VINA RESULT:      -5.0      1.775      4.303
REMARK  Name = *****
REMARK                            x       y       z     vdW  Elec       q    Type
REMARK                         _______ _______ _______ _____ _____    ______ ____
ROOT
ATOM      1  C   LIG    1       25.322 -27.365   6.757  0.00  0.00    +0.256 C 
ATOM      2  C   LIG    1       25.926 -28.400   5.771  0.00  0.00    +0.048 C 
ATOM      3  C   LIG    1       25.997 -27.836   4.348  0.00  0.00    +0.013 C 
ATOM      4  C   LIG    1       25.114 -29.713   5.869  0.00  0.00    +0.037 C 
ATOM      5  C   LIG    1       25.121 -30.253   7.331  0.00  0.00    +0.161 C 
ATOM      6  C   LIG    1       25.974 -31.546   7.485  0.00  0.00    +0.032 C 
ATOM      7  C   LIG    1       25.503 -32.680   6.526  0.00  0.00    -0.008 C 
ATOM      8  C   LIG    1       26.640 -33.678   6.257  0.00  0.00    +0.008 C 
ATOM      9  C   LIG    1       24.972 -32.137   5.186  0.00  0.00    +0.004 C 
ATOM     10  C   LIG    1       26.044 -32.051   8.949  0.00  0.00    +0.012 C 
ATOM     11  C   LIG    1       24.790 -31.831   9.809  0.00  0.00    +0.068 C 
ATOM     12  C   LIG    1       24.304 -30.363   9.848  0.00  0.00    +0.203 C 
ATOM     13  C   LIG    1       23.653 -30.059  11.195  0.00  0.00    +0.077 C 
ATOM     14  O   LIG    1       23.311 -30.096   8.854  0.00  0.00    -0.199 OA
ATOM     15  O   LIG    1       25.415 -29.482   9.699  0.00  0.00    -0.314 OA
ATOM     16  C   LIG    1       25.623 -29.155   8.322  0.00  0.00    +0.292 C 
ATOM     17  O   LIG    1       23.759 -30.675   7.594  0.00  0.00    -0.220 OA
ATOM     18  C   LIG    1       25.561 -30.773   4.848  0.00  0.00    +0.007 C 
ATOM     19  O   LIG    1       25.050 -27.882   8.055  0.00  0.00    -0.319 OA
ENDROOT
BRANCH   1  20
ATOM     20  O   LIG    1       24.114 -26.860   6.181  0.00  0.00    -0.351 OA
BRANCH  20  22
ATOM     21  C   LIG    1       25.415 -24.901   6.558  0.00  0.00    +0.034 C 
ATOM     22  C   LIG    1       24.035 -25.438   6.234  0.00  0.00    +0.159 C 
ENDBRANCH  20  22
ENDBRANCH   1  20
TORSDOF 2
ENDMDL
