MODEL 1
REMARK VINA RESULT:      -6.0      0.000      0.000
REMARK  Name = *****
REMARK                            x       y       z     vdW  Elec       q    Type
REMARK                         _______ _______ _______ _____ _____    ______ ____
ROOT
ATOM      1  O   LIG    1       25.020 -16.116   3.371  0.00  0.00    -0.458 OA
ENDROOT
BRANCH   1   3
ATOM      2  C   LIG    1       27.050 -14.796   3.591  0.00  0.00    +0.032 C 
ATOM      3  C   LIG    1       25.703 -15.189   4.253  0.00  0.00    +0.180 C 
ATOM      4  C   LIG    1       24.825 -13.957   4.510  0.00  0.00    +0.048 C 
ATOM      5  C   LIG    1       24.595 -13.042   3.293  0.00  0.00    -0.011 C 
ATOM      6  C   LIG    1       23.389 -13.478   2.457  0.00  0.00    +0.007 C 
ATOM      7  C   LIG    1       25.842 -12.840   2.419  0.00  0.00    +0.004 C 
ATOM      8  C   LIG    1       26.747 -14.063   2.266  0.00  0.00    +0.007 C 
BRANCH   2  10
ATOM      9  C   LIG    1       28.788 -12.890   3.789  0.00  0.00    +0.007 C 
ATOM     10  C   LIG    1       28.018 -13.996   4.529  0.00  0.00    -0.011 C 
ATOM     11  C   LIG    1       27.275 -13.337   5.702  0.00  0.00    +0.007 C 
ENDBRANCH   2  10
ENDBRANCH   1   3
BRANCH   1  12
ATOM     12  C   LIG    1       25.488 -17.399   3.349  0.00  0.00    +0.343 C 
ATOM     13  O   LIG    1       26.590 -17.741   2.971  0.00  0.00    -0.245 OA
BRANCH  12  14
ATOM     14  C   LIG    1       24.423 -18.314   3.862  0.00  0.00    +0.100 A 
ATOM     15  C   LIG    1       24.701 -19.650   4.179  0.00  0.00    +0.131 A 
ATOM     16  C   LIG    1       23.690 -20.494   4.655  0.00  0.00    +0.046 A 
ATOM     17  C   LIG    1       22.394 -20.005   4.825  0.00  0.00    +0.004 A 
ATOM     18  C   LIG    1       22.107 -18.677   4.527  0.00  0.00    +0.001 A 
ATOM     19  C   LIG    1       23.116 -17.838   4.048  0.00  0.00    +0.019 A 
BRANCH  15  20
ATOM     20  O   LIG    1       25.954 -20.167   3.999  0.00  0.00    -0.506 OA
ATOM     21  H   LIG    1       26.504 -19.533   3.511  0.00  0.00    +0.292 HD
ENDBRANCH  15  20
ENDBRANCH  12  14
ENDBRANCH   1  12
TORSDOF 5
ENDMDL
MODEL 2
REMARK VINA RESULT:      -5.9      0.881      2.665
REMARK  Name = *****
REMARK                            x       y       z     vdW  Elec       q    Type
REMARK                         _______ _______ _______ _____ _____    ______ ____
ROOT
ATOM      1  O   LIG    1       25.007 -16.167   4.039  0.00  0.00    -0.458 OA
ENDROOT
BRANCH   1   3
ATOM      2  C   LIG    1       24.710 -13.755   4.092  0.00  0.00    +0.032 C 
ATOM      3  C   LIG    1       25.193 -14.964   3.250  0.00  0.00    +0.180 C 
ATOM      4  C   LIG    1       26.667 -14.816   2.850  0.00  0.00    +0.048 C 
ATOM      5  C   LIG    1       27.640 -14.525   4.007  0.00  0.00    -0.011 C 
ATOM      6  C   LIG    1       28.157 -15.805   4.669  0.00  0.00    +0.007 C 
ATOM      7  C   LIG    1       27.096 -13.535   5.048  0.00  0.00    +0.004 C 
ATOM      8  C   LIG    1       25.601 -13.647   5.349  0.00  0.00    +0.007 C 
BRANCH   2  10
ATOM      9  C   LIG    1       24.234 -12.621   1.816  0.00  0.00    +0.007 C 
ATOM     10  C   LIG    1       24.612 -12.411   3.290  0.00  0.00    -0.011 C 
ATOM     11  C   LIG    1       23.581 -11.448   3.900  0.00  0.00    +0.007 C 
ENDBRANCH   2  10
ENDBRANCH   1   3
BRANCH   1  12
ATOM     12  C   LIG    1       25.230 -17.356   3.405  0.00  0.00    +0.343 C 
ATOM     13  O   LIG    1       26.082 -17.557   2.564  0.00  0.00    -0.245 OA
BRANCH  12  14
ATOM     14  C   LIG    1       24.253 -18.369   3.910  0.00  0.00    +0.100 A 
ATOM     15  C   LIG    1       24.651 -19.676   4.218  0.00  0.00    +0.131 A 
ATOM     16  C   LIG    1       23.720 -20.611   4.687  0.00  0.00    +0.046 A 
ATOM     17  C   LIG    1       22.385 -20.244   4.859  0.00  0.00    +0.004 A 
ATOM     18  C   LIG    1       21.979 -18.945   4.570  0.00  0.00    +0.001 A 
ATOM     19  C   LIG    1       22.907 -18.014   4.098  0.00  0.00    +0.019 A 
BRANCH  15  20
ATOM     20  O   LIG    1       25.945 -20.075   4.035  0.00  0.00    -0.506 OA
ATOM     21  H   LIG    1       25.993 -20.707   3.299  0.00  0.00    +0.292 HD
ENDBRANCH  15  20
ENDBRANCH  12  14
ENDBRANCH   1  12
TORSDOF 5
ENDMDL
MODEL 3
REMARK VINA RESULT:      -4.9      0.833      1.541
REMARK  Name = *****
REMARK                            x       y       z     vdW  Elec       q    Type
REMARK                         _______ _______ _______ _____ _____    ______ ____
ROOT
ATOM      1  O   LIG    1       24.752 -15.745   3.570  0.00  0.00    -0.458 OA
ENDROOT
BRANCH   1   3
ATOM      2  C   LIG    1       26.940 -14.707   3.786  0.00  0.00    +0.032 C 
ATOM      3  C   LIG    1       25.503 -14.790   4.363  0.00  0.00    +0.180 C 
ATOM      4  C   LIG    1       24.810 -13.420   4.338  0.00  0.00    +0.048 C 
ATOM      5  C   LIG    1       24.818 -12.699   2.979  0.00  0.00    -0.011 C 
ATOM      6  C   LIG    1       23.626 -13.093   2.103  0.00  0.00    +0.007 C 
ATOM      7  C   LIG    1       26.144 -12.824   2.212  0.00  0.00    +0.004 C 
ATOM      8  C   LIG    1       26.857 -14.171   2.340  0.00  0.00    +0.007 C 
BRANCH   2  10
ATOM      9  C   LIG    1       28.761 -12.872   3.887  0.00  0.00    +0.007 C 
ATOM     10  C   LIG    1       27.948 -13.907   4.681  0.00  0.00    -0.011 C 
ATOM     11  C   LIG    1       27.241 -13.162   5.825  0.00  0.00    +0.007 C 
ENDBRANCH   2  10
ENDBRANCH   1   3
BRANCH   1  12
ATOM     12  C   LIG    1       23.608 -16.239   4.129  0.00  0.00    +0.343 C 
ATOM     13  O   LIG    1       22.696 -15.572   4.575  0.00  0.00    -0.245 OA
BRANCH  12  14
ATOM     14  C   LIG    1       23.661 -17.733   4.107  0.00  0.00    +0.100 A 
ATOM     15  C   LIG    1       24.770 -18.415   3.590  0.00  0.00    +0.131 A 
ATOM     16  C   LIG    1       24.800 -19.816   3.575  0.00  0.00    +0.046 A 
ATOM     17  C   LIG    1       23.725 -20.543   4.087  0.00  0.00    +0.004 A 
ATOM     18  C   LIG    1       22.624 -19.878   4.616  0.00  0.00    +0.001 A 
ATOM     19  C   LIG    1       22.593 -18.482   4.626  0.00  0.00    +0.019 A 
BRANCH  15  20
ATOM     20  O   LIG    1       25.826 -17.732   3.057  0.00  0.00    -0.506 OA
ATOM     21  H   LIG    1       25.537 -16.851   2.770  0.00  0.00    +0.292 HD
ENDBRANCH  15  20
ENDBRANCH  12  14
ENDBRANCH   1  12
TORSDOF 5
ENDMDL
MODEL 4
REMARK VINA RESULT:      -4.6      0.661      1.544
REMARK  Name = *****
REMARK                            x       y       z     vdW  Elec       q    Type
REMARK                         _______ _______ _______ _____ _____    ______ ____
ROOT
ATOM      1  O   LIG    1       24.929 -15.969   3.472  0.00  0.00    -0.458 OA
ENDROOT
BRANCH   1   3
ATOM      2  C   LIG    1       27.036 -14.764   3.616  0.00  0.00    +0.032 C 
ATOM      3  C   LIG    1       25.676 -15.047   4.306  0.00  0.00    +0.180 C 
ATOM      4  C   LIG    1       24.876 -13.754   4.517  0.00  0.00    +0.048 C 
ATOM      5  C   LIG    1       24.687 -12.881   3.263  0.00  0.00    -0.011 C 
ATOM      6  C   LIG    1       23.448 -13.280   2.458  0.00  0.00    +0.007 C 
ATOM      7  C   LIG    1       25.934 -12.792   2.369  0.00  0.00    +0.004 C 
ATOM      8  C   LIG    1       26.762 -14.073   2.262  0.00  0.00    +0.007 C 
BRANCH   2  10
ATOM      9  C   LIG    1       28.819 -12.894   3.734  0.00  0.00    +0.007 C 
ATOM     10  C   LIG    1       28.061 -13.984   4.508  0.00  0.00    -0.011 C 
ATOM     11  C   LIG    1       27.385 -13.310   5.713  0.00  0.00    +0.007 C 
ENDBRANCH   2  10
ENDBRANCH   1   3
BRANCH   1  12
ATOM     12  C   LIG    1       25.409 -17.244   3.387  0.00  0.00    +0.343 C 
ATOM     13  O   LIG    1       26.515 -17.557   2.996  0.00  0.00    -0.245 OA
BRANCH  12  14
ATOM     14  C   LIG    1       24.351 -18.195   3.847  0.00  0.00    +0.100 A 
ATOM     15  C   LIG    1       23.080 -17.742   4.228  0.00  0.00    +0.131 A 
ATOM     16  C   LIG    1       22.103 -18.647   4.660  0.00  0.00    +0.046 A 
ATOM     17  C   LIG    1       22.386 -20.013   4.707  0.00  0.00    +0.004 A 
ATOM     18  C   LIG    1       23.638 -20.477   4.318  0.00  0.00    +0.001 A 
ATOM     19  C   LIG    1       24.614 -19.573   3.892  0.00  0.00    +0.019 A 
BRANCH  15  20
ATOM     20  O   LIG    1       22.780 -16.409   4.220  0.00  0.00    -0.506 OA
ATOM     21  H   LIG    1       23.594 -15.888   4.317  0.00  0.00    +0.292 HD
ENDBRANCH  15  20
ENDBRANCH  12  14
ENDBRANCH   1  12
TORSDOF 5
ENDMDL
MODEL 5
REMARK VINA RESULT:      -3.8      1.689      5.979
REMARK  Name = *****
REMARK                            x       y       z     vdW  Elec       q    Type
REMARK                         _______ _______ _______ _____ _____    ______ ____
ROOT
ATOM      1  O   LIG    1       24.596 -17.971   3.679  0.00  0.00    -0.458 OA
ENDROOT
BRANCH   1   3
ATOM      2  C   LIG    1       25.210 -19.568   5.406  0.00  0.00    +0.032 C 
ATOM      3  C   LIG    1       24.966 -19.358   3.889  0.00  0.00    +0.180 C 
ATOM      4  C   LIG    1       23.862 -20.286   3.366  0.00  0.00    +0.048 C 
ATOM      5  C   LIG    1       22.537 -20.244   4.148  0.00  0.00    -0.011 C 
ATOM      6  C   LIG    1       21.590 -19.158   3.633  0.00  0.00    +0.007 C 
ATOM      7  C   LIG    1       22.713 -20.160   5.673  0.00  0.00    +0.004 C 
ATOM      8  C   LIG    1       23.885 -19.305   6.156  0.00  0.00    +0.007 C 
BRANCH   2  10
ATOM      9  C   LIG    1       27.373 -20.852   6.012  0.00  0.00    +0.007 C 
ATOM     10  C   LIG    1       25.858 -20.948   5.769  0.00  0.00    -0.011 C 
ATOM     11  C   LIG    1       25.226 -21.572   7.025  0.00  0.00    +0.007 C 
ENDBRANCH   2  10
ENDBRANCH   1   3
BRANCH   1  12
ATOM     12  C   LIG    1       25.606 -17.110   3.354  0.00  0.00    +0.343 C 
ATOM     13  O   LIG    1       26.702 -17.433   2.941  0.00  0.00    -0.245 OA
BRANCH  12  14
ATOM     14  C   LIG    1       25.147 -15.708   3.594  0.00  0.00    +0.100 A 
ATOM     15  C   LIG    1       25.934 -14.610   3.221  0.00  0.00    +0.131 A 
ATOM     16  C   LIG    1       25.488 -13.303   3.457  0.00  0.00    +0.046 A 
ATOM     17  C   LIG    1       24.249 -13.085   4.059  0.00  0.00    +0.004 A 
ATOM     18  C   LIG    1       23.452 -14.166   4.422  0.00  0.00    +0.001 A 
ATOM     19  C   LIG    1       23.899 -15.468   4.191  0.00  0.00    +0.019 A 
BRANCH  15  20
ATOM     20  O   LIG    1       27.164 -14.790   2.654  0.00  0.00    -0.506 OA
ATOM     21  H   LIG    1       27.177 -15.622   2.153  0.00  0.00    +0.292 HD
ENDBRANCH  15  20
ENDBRANCH  12  14
ENDBRANCH   1  12
TORSDOF 5
ENDMDL
MODEL 6
REMARK VINA RESULT:      -3.0      1.552      3.251
REMARK  Name = *****
REMARK                            x       y       z     vdW  Elec       q    Type
REMARK                         _______ _______ _______ _____ _____    ______ ____
ROOT
ATOM      1  O   LIG    1       24.622 -16.354   4.249  0.00  0.00    -0.458 OA
ENDROOT
BRANCH   1   3
ATOM      2  C   LIG    1       24.325 -13.946   4.095  0.00  0.00    +0.032 C 
ATOM      3  C   LIG    1       24.669 -15.242   3.317  0.00  0.00    +0.180 C 
ATOM      4  C   LIG    1       26.057 -15.154   2.668  0.00  0.00    +0.048 C 
ATOM      5  C   LIG    1       27.205 -14.756   3.613  0.00  0.00    -0.011 C 
ATOM      6  C   LIG    1       27.831 -15.966   4.311  0.00  0.00    +0.007 C 
ATOM      7  C   LIG    1       26.835 -13.656   4.619  0.00  0.00    +0.004 C 
ATOM      8  C   LIG    1       25.410 -13.717   5.170  0.00  0.00    +0.007 C 
BRANCH   2  10
ATOM      9  C   LIG    1       23.661 -11.448   3.978  0.00  0.00    +0.007 C 
ATOM     10  C   LIG    1       24.089 -12.692   3.184  0.00  0.00    -0.011 C 
ATOM     11  C   LIG    1       25.345 -12.318   2.379  0.00  0.00    +0.007 C 
ENDBRANCH   2  10
ENDBRANCH   1   3
BRANCH   1  12
ATOM     12  C   LIG    1       23.489 -17.117   4.234  0.00  0.00    +0.343 C 
ATOM     13  O   LIG    1       22.352 -16.692   4.267  0.00  0.00    -0.245 OA
BRANCH  12  14
ATOM     14  C   LIG    1       23.875 -18.560   4.175  0.00  0.00    +0.100 A 
ATOM     15  C   LIG    1       23.167 -19.534   4.892  0.00  0.00    +0.131 A 
ATOM     16  C   LIG    1       23.546 -20.881   4.828  0.00  0.00    +0.046 A 
ATOM     17  C   LIG    1       24.630 -21.265   4.039  0.00  0.00    +0.004 A 
ATOM     18  C   LIG    1       25.333 -20.310   3.311  0.00  0.00    +0.001 A 
ATOM     19  C   LIG    1       24.958 -18.967   3.379  0.00  0.00    +0.019 A 
BRANCH  15  20
ATOM     20  O   LIG    1       22.117 -19.187   5.696  0.00  0.00    -0.506 OA
ATOM     21  H   LIG    1       21.389 -19.818   5.577  0.00  0.00    +0.292 HD
ENDBRANCH  15  20
ENDBRANCH  12  14
ENDBRANCH   1  12
TORSDOF 5
ENDMDL
