MODEL 1
REMARK VINA RESULT:      -2.0      0.000      0.000
REMARK  Name = *****
REMARK                            x       y       z     vdW  Elec       q    Type
REMARK                         _______ _______ _______ _____ _____    ______ ____
ROOT
ATOM      1  C   LIG    1       26.057 -19.350   4.335  0.00  0.00    +0.190 C 
ENDROOT
BRANCH   1   2
ATOM      2  C   LIG    1       24.591 -19.671   4.662  0.00  0.00    -0.005 A 
ATOM      3  C   LIG    1       23.523 -18.880   4.193  0.00  0.00    +0.007 A 
ATOM      4  C   LIG    1       22.184 -19.185   4.494  0.00  0.00    +0.000 A 
ATOM      5  C   LIG    1       21.864 -20.310   5.246  0.00  0.00    +0.000 A 
ATOM      6  C   LIG    1       22.882 -21.128   5.696  0.00  0.00    +0.000 A 
ATOM      7  C   LIG    1       24.211 -20.811   5.404  0.00  0.00    +0.007 A 
ENDBRANCH   1   2
BRANCH   1   8
ATOM      8  C   LIG    1       26.997 -18.989   5.547  0.00  0.00    +0.036 C 
ATOM      9  C   LIG    1       27.073 -20.100   6.620  0.00  0.00    +0.007 C 
ATOM     10  C   LIG    1       28.505 -20.279   7.062  0.00  0.00    +0.000 C 
ATOM     11  C   LIG    1       29.320 -19.813   5.882  0.00  0.00    +0.000 C 
ATOM     12  C   LIG    1       28.484 -18.739   5.195  0.00  0.00    +0.007 C 
ENDBRANCH   1   8
BRANCH   1  13
ATOM     13  C   LIG    1       26.118 -18.102   3.315  0.00  0.00    +0.344 C 
ATOM     14  O   LIG    1       26.065 -18.140   2.116  0.00  0.00    -0.247 OA
BRANCH  13  15
ATOM     15  O   LIG    1       26.327 -16.932   4.042  0.00  0.00    -0.454 OA
BRANCH  15  19
ATOM     16  C   LIG    1       24.881 -12.757   3.401  0.00  0.00    +0.192 C 
ATOM     17  N   LIG    1       25.196 -14.178   3.840  0.00  0.00    +0.242 N 
ATOM     18  C   LIG    1       25.815 -14.996   2.670  0.00  0.00    +0.178 C 
ATOM     19  C   LIG    1       26.926 -15.827   3.324  0.00  0.00    +0.226 C 
ATOM     20  C   LIG    1       27.505 -14.824   4.307  0.00  0.00    +0.101 C 
ATOM     21  C   LIG    1       26.278 -14.185   4.940  0.00  0.00    +0.136 C 
ATOM     22  C   LIG    1       23.910 -14.847   4.332  0.00  0.00    +0.192 C 
ENDBRANCH  15  19
ENDBRANCH  13  15
ENDBRANCH   1  13
BRANCH   1  23
ATOM     23  O   LIG    1       26.630 -20.496   3.676  0.00  0.00    -0.373 OA
ATOM     24  H   LIG    1       26.099 -20.644   2.874  0.00  0.00    +0.211 HD
ENDBRANCH   1  23
TORSDOF 6
ENDMDL
MODEL 2
REMARK VINA RESULT:      -1.4      1.246      2.118
REMARK  Name = *****
REMARK                            x       y       z     vdW  Elec       q    Type
REMARK                         _______ _______ _______ _____ _____    ______ ____
ROOT
ATOM      1  C   LIG    1       25.821 -18.628   3.525  0.00  0.00    +0.190 C 
ENDROOT
BRANCH   1   2
ATOM      2  C   LIG    1       24.359 -18.303   3.865  0.00  0.00    -0.005 A 
ATOM      3  C   LIG    1       23.354 -19.291   3.896  0.00  0.00    +0.007 A 
ATOM      4  C   LIG    1       22.020 -18.984   4.214  0.00  0.00    +0.000 A 
ATOM      5  C   LIG    1       21.649 -17.686   4.545  0.00  0.00    +0.000 A 
ATOM      6  C   LIG    1       22.612 -16.696   4.557  0.00  0.00    +0.000 A 
ATOM      7  C   LIG    1       23.934 -17.006   4.228  0.00  0.00    +0.007 A 
ENDBRANCH   1   2
BRANCH   1   8
ATOM      8  C   LIG    1       26.486 -19.828   4.301  0.00  0.00    +0.036 C 
ATOM      9  C   LIG    1       27.581 -19.384   5.299  0.00  0.00    +0.007 C 
ATOM     10  C   LIG    1       27.427 -20.150   6.590  0.00  0.00    +0.000 C 
ATOM     11  C   LIG    1       25.966 -20.518   6.633  0.00  0.00    +0.000 C 
ATOM     12  C   LIG    1       25.531 -20.673   5.179  0.00  0.00    +0.007 C 
ENDBRANCH   1   8
BRANCH   1  13
ATOM     13  C   LIG    1       26.738 -17.331   3.807  0.00  0.00    +0.344 C 
ATOM     14  O   LIG    1       27.784 -17.296   4.396  0.00  0.00    -0.247 OA
BRANCH  13  15
ATOM     15  O   LIG    1       26.086 -16.200   3.322  0.00  0.00    -0.454 OA
BRANCH  15  19
ATOM     16  C   LIG    1       25.078 -11.861   3.028  0.00  0.00    +0.192 C 
ATOM     17  N   LIG    1       25.185 -13.356   3.284  0.00  0.00    +0.242 N 
ATOM     18  C   LIG    1       26.097 -14.035   2.223  0.00  0.00    +0.178 C 
ATOM     19  C   LIG    1       26.921 -15.057   3.018  0.00  0.00    +0.226 C 
ATOM     20  C   LIG    1       27.213 -14.277   4.288  0.00  0.00    +0.101 C 
ATOM     21  C   LIG    1       25.879 -13.633   4.634  0.00  0.00    +0.136 C 
ATOM     22  C   LIG    1       23.784 -13.971   3.250  0.00  0.00    +0.192 C 
ENDBRANCH  15  19
ENDBRANCH  13  15
ENDBRANCH   1  13
BRANCH   1  23
ATOM     23  O   LIG    1       25.897 -18.934   2.119  0.00  0.00    -0.373 OA
ATOM     24  H   LIG    1       25.599 -19.855   2.023  0.00  0.00    +0.211 HD
ENDBRANCH   1  23
TORSDOF 6
ENDMDL
MODEL 3
REMARK VINA RESULT:      -1.2      2.335      6.692
REMARK  Name = *****
REMARK                            x       y       z     vdW  Elec       q    Type
REMARK                         _______ _______ _______ _____ _____    ______ ____
ROOT
ATOM      1  C   LIG    1       26.286 -14.943   3.236  0.00  0.00    +0.190 C 
ENDROOT
BRANCH   1   2
ATOM      2  C   LIG    1       27.272 -13.980   3.914  0.00  0.00    -0.005 A 
ATOM      3  C   LIG    1       28.284 -13.309   3.199  0.00  0.00    +0.007 A 
ATOM      4  C   LIG    1       29.177 -12.425   3.828  0.00  0.00    +0.000 A 
ATOM      5  C   LIG    1       29.070 -12.155   5.188  0.00  0.00    +0.000 A 
ATOM      6  C   LIG    1       28.070 -12.769   5.917  0.00  0.00    +0.000 A 
ATOM      7  C   LIG    1       27.194 -13.656   5.287  0.00  0.00    +0.007 A 
ENDBRANCH   1   2
BRANCH   1   8
ATOM      8  C   LIG    1       24.752 -14.704   3.509  0.00  0.00    +0.036 C 
ATOM      9  C   LIG    1       24.441 -14.304   4.970  0.00  0.00    +0.007 C 
ATOM     10  C   LIG    1       23.433 -13.181   4.982  0.00  0.00    +0.000 C 
ATOM     11  C   LIG    1       23.628 -12.491   3.657  0.00  0.00    +0.000 C 
ATOM     12  C   LIG    1       24.090 -13.573   2.686  0.00  0.00    +0.007 C 
ENDBRANCH   1   8
BRANCH   1  13
ATOM     13  C   LIG    1       26.608 -16.454   3.700  0.00  0.00    +0.344 C 
ATOM     14  O   LIG    1       27.627 -16.863   4.187  0.00  0.00    -0.247 OA
BRANCH  13  15
ATOM     15  O   LIG    1       25.526 -17.269   3.374  0.00  0.00    -0.454 OA
BRANCH  15  19
ATOM     16  C   LIG    1       22.507 -20.181   4.902  0.00  0.00    +0.192 C 
ATOM     17  N   LIG    1       23.310 -19.042   4.292  0.00  0.00    +0.242 N 
ATOM     18  C   LIG    1       24.741 -18.987   4.898  0.00  0.00    +0.178 C 
ATOM     19  C   LIG    1       25.655 -18.672   3.707  0.00  0.00    +0.226 C 
ATOM     20  C   LIG    1       25.023 -19.522   2.618  0.00  0.00    +0.101 C 
ATOM     21  C   LIG    1       23.531 -19.274   2.782  0.00  0.00    +0.136 C 
ATOM     22  C   LIG    1       22.576 -17.722   4.542  0.00  0.00    +0.192 C 
ENDBRANCH  15  19
ENDBRANCH  13  15
ENDBRANCH   1  13
BRANCH   1  23
ATOM     23  O   LIG    1       26.485 -14.859   1.812  0.00  0.00    -0.373 OA
ATOM     24  H   LIG    1       27.443 -14.937   1.665  0.00  0.00    +0.211 HD
ENDBRANCH   1  23
TORSDOF 6
ENDMDL
MODEL 4
REMARK VINA RESULT:       0.4      2.196      6.278
REMARK  Name = *****
REMARK                            x       y       z     vdW  Elec       q    Type
REMARK                         _______ _______ _______ _____ _____    ______ ____
ROOT
ATOM      1  C   LIG    1       25.912 -14.765   4.350  0.00  0.00    +0.190 C 
ENDROOT
BRANCH   1   2
ATOM      2  C   LIG    1       25.123 -13.598   3.737  0.00  0.00    -0.005 A 
ATOM      3  C   LIG    1       25.189 -13.281   2.365  0.00  0.00    +0.007 A 
ATOM      4  C   LIG    1       24.459 -12.214   1.813  0.00  0.00    +0.000 A 
ATOM      5  C   LIG    1       23.613 -11.448   2.606  0.00  0.00    +0.000 A 
ATOM      6  C   LIG    1       23.497 -11.748   3.949  0.00  0.00    +0.000 A 
ATOM      7  C   LIG    1       24.235 -12.802   4.493  0.00  0.00    +0.007 A 
ENDBRANCH   1   2
BRANCH   1   8
ATOM      8  C   LIG    1       27.439 -14.516   4.649  0.00  0.00    +0.036 C 
ATOM      9  C   LIG    1       28.226 -13.980   3.430  0.00  0.00    +0.007 C 
ATOM     10  C   LIG    1       29.149 -12.871   3.873  0.00  0.00    +0.000 C 
ATOM     11  C   LIG    1       28.491 -12.309   5.108  0.00  0.00    +0.000 C 
ATOM     12  C   LIG    1       27.748 -13.475   5.752  0.00  0.00    +0.007 C 
ENDBRANCH   1   8
BRANCH   1  13
ATOM     13  C   LIG    1       25.836 -16.039   3.364  0.00  0.00    +0.344 C 
ATOM     14  O   LIG    1       26.180 -16.089   2.214  0.00  0.00    -0.247 OA
BRANCH  13  15
ATOM     15  O   LIG    1       25.221 -17.095   4.033  0.00  0.00    -0.454 OA
BRANCH  15  19
ATOM     16  C   LIG    1       24.532 -21.502   4.214  0.00  0.00    +0.192 C 
ATOM     17  N   LIG    1       24.857 -20.031   4.420  0.00  0.00    +0.242 N 
ATOM     18  C   LIG    1       25.046 -19.310   3.054  0.00  0.00    +0.178 C 
ATOM     19  C   LIG    1       24.363 -17.948   3.238  0.00  0.00    +0.226 C 
ATOM     20  C   LIG    1       23.135 -18.340   4.041  0.00  0.00    +0.101 C 
ATOM     21  C   LIG    1       23.677 -19.297   5.092  0.00  0.00    +0.136 C 
ATOM     22  C   LIG    1       26.129 -19.912   5.263  0.00  0.00    +0.192 C 
ENDBRANCH  15  19
ENDBRANCH  13  15
ENDBRANCH   1  13
BRANCH   1  23
ATOM     23  O   LIG    1       25.285 -15.124   5.596  0.00  0.00    -0.373 OA
ATOM     24  H   LIG    1       24.397 -14.728   5.579  0.00  0.00    +0.211 HD
ENDBRANCH   1  23
TORSDOF 6
ENDMDL
MODEL 5
REMARK VINA RESULT:       0.6      1.919      5.663
REMARK  Name = *****
REMARK                            x       y       z     vdW  Elec       q    Type
REMARK                         _______ _______ _______ _____ _____    ______ ____
ROOT
ATOM      1  C   LIG    1       26.747 -16.936   3.507  0.00  0.00    +0.190 C 
ENDROOT
BRANCH   1   2
ATOM      2  C   LIG    1       27.504 -17.886   4.446  0.00  0.00    -0.005 A 
ATOM      3  C   LIG    1       27.020 -19.169   4.773  0.00  0.00    +0.007 A 
ATOM      4  C   LIG    1       27.723 -20.034   5.629  0.00  0.00    +0.000 A 
ATOM      5  C   LIG    1       28.952 -19.659   6.162  0.00  0.00    +0.000 A 
ATOM      6  C   LIG    1       29.475 -18.422   5.840  0.00  0.00    +0.000 A 
ATOM      7  C   LIG    1       28.764 -17.564   4.998  0.00  0.00    +0.007 A 
ENDBRANCH   1   2
BRANCH   1   8
ATOM      8  C   LIG    1       27.215 -15.430   3.484  0.00  0.00    +0.036 C 
ATOM      9  C   LIG    1       26.426 -14.556   2.481  0.00  0.00    +0.007 C 
ATOM     10  C   LIG    1       26.086 -13.233   3.123  0.00  0.00    +0.000 C 
ATOM     11  C   LIG    1       26.058 -13.532   4.601  0.00  0.00    +0.000 C 
ATOM     12  C   LIG    1       27.063 -14.658   4.818  0.00  0.00    +0.007 C 
ENDBRANCH   1   8
BRANCH   1  13
ATOM     13  C   LIG    1       25.182 -16.927   3.900  0.00  0.00    +0.344 C 
ATOM     14  O   LIG    1       24.458 -15.973   3.977  0.00  0.00    -0.247 OA
BRANCH  13  15
ATOM     15  O   LIG    1       24.790 -18.224   4.227  0.00  0.00    -0.454 OA
BRANCH  15  19
ATOM     16  C   LIG    1       21.998 -21.572   5.189  0.00  0.00    +0.192 C 
ATOM     17  N   LIG    1       22.995 -20.424   5.141  0.00  0.00    +0.242 N 
ATOM     18  C   LIG    1       23.605 -20.280   3.717  0.00  0.00    +0.178 C 
ATOM     19  C   LIG    1       23.676 -18.766   3.478  0.00  0.00    +0.226 C 
ATOM     20  C   LIG    1       22.366 -18.308   4.096  0.00  0.00    +0.101 C 
ATOM     21  C   LIG    1       22.293 -19.076   5.407  0.00  0.00    +0.136 C 
ATOM     22  C   LIG    1       24.101 -20.679   6.168  0.00  0.00    +0.192 C 
ENDBRANCH  15  19
ENDBRANCH  13  15
ENDBRANCH   1  13
BRANCH   1  23
ATOM     23  O   LIG    1       26.869 -17.441   2.164  0.00  0.00    -0.373 OA
ATOM     24  H   LIG    1       26.080 -17.988   2.004  0.00  0.00    +0.211 HD
ENDBRANCH   1  23
TORSDOF 6
ENDMDL
