MODEL 1
REMARK VINA RESULT:      -8.7      0.000      0.000
REMARK  Name = *****
REMARK                            x       y       z     vdW  Elec       q    Type
REMARK                         _______ _______ _______ _____ _____    ______ ____
ROOT
ATOM      1  C   LIG    1       24.854 -20.115   4.692  0.00  0.00    +0.039 A 
ATOM      2  C   LIG    1       23.986 -20.444   5.762  0.00  0.00    +0.043 A 
ATOM      3  C   LIG    1       22.676 -19.945   5.728  0.00  0.00    +0.013 A 
ATOM      4  C   LIG    1       22.278 -19.021   4.761  0.00  0.00    +0.001 A 
ATOM      5  C   LIG    1       23.187 -18.579   3.808  0.00  0.00    +0.006 A 
ATOM      6  C   LIG    1       24.494 -19.085   3.790  0.00  0.00    -0.015 A 
ENDROOT
BRANCH   1   7
ATOM      7  N   LIG    1       26.193 -20.598   4.641  0.00  0.00    -0.357 N 
ATOM      8  H   LIG    1       26.533 -20.546   3.663  0.00  0.00    +0.142 HD
ATOM      9  H   LIG    1       26.820 -20.020   5.207  0.00  0.00    +0.142 HD
ENDBRANCH   1   7
BRANCH   2  10
ATOM     10  C   LIG    1       24.477 -21.327   6.883  0.00  0.00    +0.195 C 
ATOM     11  O   LIG    1       24.763 -20.783   7.954  0.00  0.00    -0.287 OA
BRANCH  10  12
ATOM     12  C   LIG    1       24.595 -22.827   6.792  0.00  0.00    +0.022 A 
ATOM     13  C   LIG    1       23.492 -23.668   6.607  0.00  0.00    +0.013 A 
ATOM     14  C   LIG    1       23.643 -25.046   6.435  0.00  0.00    +0.016 A 
ATOM     15  C   LIG    1       24.904 -25.619   6.518  0.00  0.00    +0.018 A 
ATOM     16 BR   LIG    1       25.084 -27.488   6.311  0.00  0.00    -0.050 Br
ATOM     17  C   LIG    1       26.014 -24.822   6.783  0.00  0.00    +0.016 A 
ATOM     18  C   LIG    1       25.860 -23.432   6.923  0.00  0.00    +0.013 A 
ENDBRANCH  10  12
ENDBRANCH   2  10
BRANCH   6  19
ATOM     19  C   LIG    1       25.503 -18.450   2.846  0.00  0.00    +0.157 C 
BRANCH  19  20
ATOM     20  C   LIG    1       26.372 -17.359   3.444  0.00  0.00    +0.309 C 
ATOM     21  O   LIG    1       26.124 -16.160   3.265  0.00  0.00    -0.251 OA
BRANCH  20  22
ATOM     22  O   LIG    1       27.479 -17.730   4.111  0.00  0.00    -0.480 OA
ATOM     23  H   LIG    1       27.585 -17.269   4.981  0.00  0.00    +0.295 HD
ENDBRANCH  20  22
ENDBRANCH  19  20
ENDBRANCH   6  19
TORSDOF 6
ENDMDL
MODEL 2
REMARK VINA RESULT:      -8.3      3.219      3.995
REMARK  Name = *****
REMARK                            x       y       z     vdW  Elec       q    Type
REMARK                         _______ _______ _______ _____ _____    ______ ____
ROOT
ATOM      1  C   LIG    1       27.477 -20.826   7.319  0.00  0.00    +0.039 A 
ATOM      2  C   LIG    1       26.267 -21.029   6.610  0.00  0.00    +0.043 A 
ATOM      3  C   LIG    1       26.135 -20.441   5.344  0.00  0.00    +0.013 A 
ATOM      4  C   LIG    1       27.092 -19.549   4.857  0.00  0.00    +0.001 A 
ATOM      5  C   LIG    1       28.201 -19.230   5.631  0.00  0.00    +0.006 A 
ATOM      6  C   LIG    1       28.383 -19.828   6.886  0.00  0.00    -0.015 A 
ENDROOT
BRANCH   1   7
ATOM      7  N   LIG    1       27.698 -21.406   8.601  0.00  0.00    -0.357 N 
ATOM      8  H   LIG    1       28.705 -21.334   8.833  0.00  0.00    +0.142 HD
ATOM      9  H   LIG    1       27.184 -20.903   9.330  0.00  0.00    +0.142 HD
ENDBRANCH   1   7
BRANCH   2  10
ATOM     10  C   LIG    1       25.175 -21.877   7.215  0.00  0.00    +0.195 C 
ATOM     11  O   LIG    1       24.382 -21.324   7.983  0.00  0.00    -0.287 OA
BRANCH  10  12
ATOM     12  C   LIG    1       24.966 -23.338   6.906  0.00  0.00    +0.022 A 
ATOM     13  C   LIG    1       23.705 -23.892   6.663  0.00  0.00    +0.013 A 
ATOM     14  C   LIG    1       23.552 -25.230   6.290  0.00  0.00    +0.016 A 
ATOM     15  C   LIG    1       24.662 -26.060   6.222  0.00  0.00    +0.018 A 
ATOM     16 BR   LIG    1       24.432 -27.872   5.743  0.00  0.00    -0.050 Br
ATOM     17  C   LIG    1       25.923 -25.561   6.537  0.00  0.00    +0.016 A 
ATOM     18  C   LIG    1       26.074 -24.207   6.880  0.00  0.00    +0.013 A 
ENDBRANCH  10  12
ENDBRANCH   2  10
BRANCH   6  19
ATOM     19  C   LIG    1       29.510 -19.324   7.772  0.00  0.00    +0.157 C 
BRANCH  19  20
ATOM     20  C   LIG    1       30.820 -20.082   7.670  0.00  0.00    +0.309 C 
ATOM     21  O   LIG    1       31.801 -19.610   7.080  0.00  0.00    -0.251 OA
BRANCH  20  22
ATOM     22  O   LIG    1       30.867 -21.331   8.168  0.00  0.00    -0.480 OA
ATOM     23  H   LIG    1       30.038 -21.848   8.008  0.00  0.00    +0.295 HD
ENDBRANCH  20  22
ENDBRANCH  19  20
ENDBRANCH   6  19
TORSDOF 6
ENDMDL
MODEL 3
REMARK VINA RESULT:      -8.1      5.965      7.514
REMARK  Name = *****
REMARK                            x       y       z     vdW  Elec       q    Type
REMARK                         _______ _______ _______ _____ _____    ______ ____
ROOT
ATOM      1  C   LIG    1       28.033 -19.836   5.937  0.00  0.00    +0.039 A 
ATOM      2  C   LIG    1       28.956 -19.945   7.006  0.00  0.00    +0.043 A 
ATOM      3  C   LIG    1       28.741 -20.941   7.967  0.00  0.00    +0.013 A 
ATOM      4  C   LIG    1       27.569 -21.701   7.972  0.00  0.00    +0.001 A 
ATOM      5  C   LIG    1       26.592 -21.476   7.011  0.00  0.00    +0.006 A 
ATOM      6  C   LIG    1       26.791 -20.513   6.012  0.00  0.00    -0.015 A 
ENDROOT
BRANCH   1   7
ATOM      7  N   LIG    1       28.193 -18.864   4.908  0.00  0.00    -0.357 N 
ATOM      8  H   LIG    1       29.164 -18.911   4.548  0.00  0.00    +0.142 HD
ATOM      9  H   LIG    1       27.570 -19.054   4.117  0.00  0.00    +0.142 HD
ENDBRANCH   1   7
BRANCH   2  10
ATOM     10  C   LIG    1       30.143 -19.015   7.070  0.00  0.00    +0.195 C 
ATOM     11  O   LIG    1       30.761 -18.804   6.023  0.00  0.00    -0.287 OA
BRANCH  10  12
ATOM     12  C   LIG    1       30.590 -18.296   8.318  0.00  0.00    +0.022 A 
ATOM     13  C   LIG    1       29.726 -17.997   9.376  0.00  0.00    +0.013 A 
ATOM     14  C   LIG    1       30.188 -17.412  10.557  0.00  0.00    +0.016 A 
ATOM     15  C   LIG    1       31.522 -17.047  10.671  0.00  0.00    +0.018 A 
ATOM     16 BR   LIG    1       32.123 -16.230  12.265  0.00  0.00    -0.050 Br
ATOM     17  C   LIG    1       32.394 -17.254   9.606  0.00  0.00    +0.016 A 
ATOM     18  C   LIG    1       31.929 -17.873   8.433  0.00  0.00    +0.013 A 
ENDBRANCH  10  12
ENDBRANCH   2  10
BRANCH   6  19
ATOM     19  C   LIG    1       25.632 -20.175   5.089  0.00  0.00    +0.157 C 
BRANCH  19  20
ATOM     20  C   LIG    1       24.473 -21.154   5.099  0.00  0.00    +0.309 C 
ATOM     21  O   LIG    1       23.433 -20.924   5.731  0.00  0.00    -0.251 OA
BRANCH  20  22
ATOM     22  O   LIG    1       24.635 -22.330   4.467  0.00  0.00    -0.480 OA
ATOM     23  H   LIG    1       24.178 -23.084   4.918  0.00  0.00    +0.295 HD
ENDBRANCH  20  22
ENDBRANCH  19  20
ENDBRANCH   6  19
TORSDOF 6
ENDMDL
MODEL 4
REMARK VINA RESULT:      -8.0      5.248      6.787
REMARK  Name = *****
REMARK                            x       y       z     vdW  Elec       q    Type
REMARK                         _______ _______ _______ _____ _____    ______ ____
ROOT
ATOM      1  C   LIG    1       26.366 -20.475   6.092  0.00  0.00    +0.039 A 
ATOM      2  C   LIG    1       27.470 -20.644   6.964  0.00  0.00    +0.043 A 
ATOM      3  C   LIG    1       27.255 -21.296   8.186  0.00  0.00    +0.013 A 
ATOM      4  C   LIG    1       25.968 -21.628   8.612  0.00  0.00    +0.001 A 
ATOM      5  C   LIG    1       24.872 -21.312   7.820  0.00  0.00    +0.006 A 
ATOM      6  C   LIG    1       25.053 -20.694   6.575  0.00  0.00    -0.015 A 
ENDROOT
BRANCH   1   7
ATOM      7  N   LIG    1       26.505 -19.843   4.823  0.00  0.00    -0.357 N 
ATOM      8  H   LIG    1       26.939 -20.511   4.160  0.00  0.00    +0.142 HD
ATOM      9  H   LIG    1       25.594 -19.584   4.435  0.00  0.00    +0.142 HD
ENDBRANCH   1   7
BRANCH   2  10
ATOM     10  C   LIG    1       28.834 -20.145   6.553  0.00  0.00    +0.195 C 
ATOM     11  O   LIG    1       29.197 -20.365   5.394  0.00  0.00    -0.287 OA
BRANCH  10  12
ATOM     12  C   LIG    1       29.755 -19.358   7.450  0.00  0.00    +0.022 A 
ATOM     13  C   LIG    1       31.139 -19.296   7.256  0.00  0.00    +0.013 A 
ATOM     14  C   LIG    1       31.955 -18.485   8.048  0.00  0.00    +0.016 A 
ATOM     15  C   LIG    1       31.404 -17.772   9.103  0.00  0.00    +0.018 A 
ATOM     16 BR   LIG    1       32.528 -16.704  10.182  0.00  0.00    -0.050 Br
ATOM     17  C   LIG    1       30.043 -17.874   9.377  0.00  0.00    +0.016 A 
ATOM     18  C   LIG    1       29.222 -18.666   8.555  0.00  0.00    +0.013 A 
ENDBRANCH  10  12
ENDBRANCH   2  10
BRANCH   6  19
ATOM     19  C   LIG    1       23.825 -20.209   5.821  0.00  0.00    +0.157 C 
BRANCH  19  20
ATOM     20  C   LIG    1       23.305 -21.138   4.740  0.00  0.00    +0.309 C 
ATOM     21  O   LIG    1       23.987 -21.428   3.749  0.00  0.00    -0.251 OA
BRANCH  20  22
ATOM     22  O   LIG    1       22.038 -21.578   4.843  0.00  0.00    -0.480 OA
ATOM     23  H   LIG    1       21.443 -20.950   5.323  0.00  0.00    +0.295 HD
ENDBRANCH  20  22
ENDBRANCH  19  20
ENDBRANCH   6  19
TORSDOF 6
ENDMDL
MODEL 5
REMARK VINA RESULT:      -7.9      5.332      7.057
REMARK  Name = *****
REMARK                            x       y       z     vdW  Elec       q    Type
REMARK                         _______ _______ _______ _____ _____    ______ ____
ROOT
ATOM      1  C   LIG    1       26.264 -20.705   7.463  0.00  0.00    +0.039 A 
ATOM      2  C   LIG    1       27.500 -20.420   6.830  0.00  0.00    +0.043 A 
ATOM      3  C   LIG    1       27.473 -19.925   5.519  0.00  0.00    +0.013 A 
ATOM      4  C   LIG    1       26.282 -19.863   4.793  0.00  0.00    +0.001 A 
ATOM      5  C   LIG    1       25.095 -20.298   5.368  0.00  0.00    +0.006 A 
ATOM      6  C   LIG    1       25.079 -20.765   6.690  0.00  0.00    -0.015 A 
ENDROOT
BRANCH   1   7
ATOM      7  N   LIG    1       26.205 -21.191   8.800  0.00  0.00    -0.357 N 
ATOM      8  H   LIG    1       25.569 -22.010   8.833  0.00  0.00    +0.142 HD
ATOM      9  H   LIG    1       27.123 -21.512   9.121  0.00  0.00    +0.142 HD
ENDBRANCH   1   7
BRANCH   2  10
ATOM     10  C   LIG    1       28.793 -20.633   7.579  0.00  0.00    +0.195 C 
ATOM     11  O   LIG    1       29.150 -21.797   7.782  0.00  0.00    -0.287 OA
BRANCH  10  12
ATOM     12  C   LIG    1       29.694 -19.519   8.049  0.00  0.00    +0.022 A 
ATOM     13  C   LIG    1       29.287 -18.548   8.969  0.00  0.00    +0.013 A 
ATOM     14  C   LIG    1       30.173 -17.583   9.455  0.00  0.00    +0.016 A 
ATOM     15  C   LIG    1       31.472 -17.529   8.970  0.00  0.00    +0.018 A 
ATOM     16 BR   LIG    1       32.646 -16.199   9.617  0.00  0.00    -0.050 Br
ATOM     17  C   LIG    1       31.886 -18.429   7.992  0.00  0.00    +0.016 A 
ATOM     18  C   LIG    1       31.000 -19.418   7.531  0.00  0.00    +0.013 A 
ENDBRANCH  10  12
ENDBRANCH   2  10
BRANCH   6  19
ATOM     19  C   LIG    1       23.801 -21.392   7.221  0.00  0.00    +0.157 C 
BRANCH  19  20
ATOM     20  C   LIG    1       23.562 -22.838   6.830  0.00  0.00    +0.309 C 
ATOM     21  O   LIG    1       24.423 -23.710   7.005  0.00  0.00    -0.251 OA
BRANCH  20  22
ATOM     22  O   LIG    1       22.410 -23.140   6.205  0.00  0.00    -0.480 OA
ATOM     23  H   LIG    1       22.047 -24.025   6.458  0.00  0.00    +0.295 HD
ENDBRANCH  20  22
ENDBRANCH  19  20
ENDBRANCH   6  19
TORSDOF 6
ENDMDL
MODEL 6
REMARK VINA RESULT:      -7.9      4.648      6.111
REMARK  Name = *****
REMARK                            x       y       z     vdW  Elec       q    Type
REMARK                         _______ _______ _______ _____ _____    ______ ____
ROOT
ATOM      1  C   LIG    1       28.959 -20.683   7.197  0.00  0.00    +0.039 A 
ATOM      2  C   LIG    1       27.925 -20.328   6.295  0.00  0.00    +0.043 A 
ATOM      3  C   LIG    1       28.168 -19.289   5.386  0.00  0.00    +0.013 A 
ATOM      4  C   LIG    1       29.327 -18.514   5.466  0.00  0.00    +0.001 A 
ATOM      5  C   LIG    1       30.264 -18.767   6.460  0.00  0.00    +0.006 A 
ATOM      6  C   LIG    1       30.070 -19.821   7.362  0.00  0.00    -0.015 A 
ENDROOT
BRANCH   1   7
ATOM      7  N   LIG    1       28.799 -21.741   8.137  0.00  0.00    -0.357 N 
ATOM      8  H   LIG    1       28.818 -21.346   9.095  0.00  0.00    +0.142 HD
ATOM      9  H   LIG    1       27.894 -22.207   8.023  0.00  0.00    +0.142 HD
ENDBRANCH   1   7
BRANCH   2  10
ATOM     10  C   LIG    1       26.617 -21.080   6.319  0.00  0.00    +0.195 C 
ATOM     11  O   LIG    1       26.597 -22.172   6.893  0.00  0.00    -0.287 OA
BRANCH  10  12
ATOM     12  C   LIG    1       25.330 -20.562   5.729  0.00  0.00    +0.022 A 
ATOM     13  C   LIG    1       24.105 -20.622   6.401  0.00  0.00    +0.013 A 
ATOM     14  C   LIG    1       22.947 -20.051   5.867  0.00  0.00    +0.016 A 
ATOM     15  C   LIG    1       22.981 -19.469   4.608  0.00  0.00    +0.018 A 
ATOM     16 BR   LIG    1       21.399 -18.728   3.890  0.00  0.00    -0.050 Br
ATOM     17  C   LIG    1       24.165 -19.464   3.875  0.00  0.00    +0.016 A 
ATOM     18  C   LIG    1       25.334 -20.011   4.432  0.00  0.00    +0.013 A 
ENDBRANCH  10  12
ENDBRANCH   2  10
BRANCH   6  19
ATOM     19  C   LIG    1       31.026 -19.955   8.537  0.00  0.00    +0.157 C 
BRANCH  19  20
ATOM     20  C   LIG    1       31.076 -18.772   9.486  0.00  0.00    +0.309 C 
ATOM     21  O   LIG    1       32.148 -18.334   9.922  0.00  0.00    -0.251 OA
BRANCH  20  22
ATOM     22  O   LIG    1       29.909 -18.258   9.914  0.00  0.00    -0.480 OA
ATOM     23  H   LIG    1       30.021 -17.509  10.551  0.00  0.00    +0.295 HD
ENDBRANCH  20  22
ENDBRANCH  19  20
ENDBRANCH   6  19
TORSDOF 6
ENDMDL
MODEL 7
REMARK VINA RESULT:      -7.8      3.078      4.832
REMARK  Name = *****
REMARK                            x       y       z     vdW  Elec       q    Type
REMARK                         _______ _______ _______ _____ _____    ______ ____
ROOT
ATOM      1  C   LIG    1       24.077 -23.243   6.715  0.00  0.00    +0.039 A 
ATOM      2  C   LIG    1       25.253 -24.001   6.491  0.00  0.00    +0.043 A 
ATOM      3  C   LIG    1       26.469 -23.492   6.969  0.00  0.00    +0.013 A 
ATOM      4  C   LIG    1       26.554 -22.205   7.504  0.00  0.00    +0.001 A 
ATOM      5  C   LIG    1       25.421 -21.405   7.572  0.00  0.00    +0.006 A 
ATOM      6  C   LIG    1       24.182 -21.895   7.137  0.00  0.00    -0.015 A 
ENDROOT
BRANCH   1   7
ATOM      7  N   LIG    1       22.800 -23.700   6.280  0.00  0.00    -0.357 N 
ATOM      8  H   LIG    1       22.646 -23.389   5.303  0.00  0.00    +0.142 HD
ATOM      9  H   LIG    1       22.751 -24.723   6.281  0.00  0.00    +0.142 HD
ENDBRANCH   1   7
BRANCH   2  10
ATOM     10  C   LIG    1       25.167 -25.327   5.775  0.00  0.00    +0.195 C 
ATOM     11  O   LIG    1       25.076 -25.306   4.545  0.00  0.00    -0.287 OA
BRANCH  10  12
ATOM     12  C   LIG    1       25.232 -26.667   6.462  0.00  0.00    +0.022 A 
ATOM     13  C   LIG    1       26.161 -26.965   7.464  0.00  0.00    +0.013 A 
ATOM     14  C   LIG    1       26.138 -28.185   8.146  0.00  0.00    +0.016 A 
ATOM     15  C   LIG    1       25.221 -29.162   7.783  0.00  0.00    +0.018 A 
ATOM     16 BR   LIG    1       25.224 -30.815   8.697  0.00  0.00    -0.050 Br
ATOM     17  C   LIG    1       24.336 -28.930   6.734  0.00  0.00    +0.016 A 
ATOM     18  C   LIG    1       24.343 -27.688   6.075  0.00  0.00    +0.013 A 
ENDBRANCH  10  12
ENDBRANCH   2  10
BRANCH   6  19
ATOM     19  C   LIG    1       23.007 -20.934   7.065  0.00  0.00    +0.157 C 
BRANCH  19  20
ATOM     20  C   LIG    1       22.607 -20.482   5.673  0.00  0.00    +0.309 C 
ATOM     21  O   LIG    1       22.761 -19.312   5.301  0.00  0.00    -0.251 OA
BRANCH  20  22
ATOM     22  O   LIG    1       21.997 -21.374   4.872  0.00  0.00    -0.480 OA
ATOM     23  H   LIG    1       22.290 -21.318   3.928  0.00  0.00    +0.295 HD
ENDBRANCH  20  22
ENDBRANCH  19  20
ENDBRANCH   6  19
TORSDOF 6
ENDMDL
MODEL 8
REMARK VINA RESULT:      -7.7      5.498      9.460
REMARK  Name = *****
REMARK                            x       y       z     vdW  Elec       q    Type
REMARK                         _______ _______ _______ _____ _____    ______ ____
ROOT
ATOM      1  C   LIG    1       25.547 -28.562   7.704  0.00  0.00    +0.039 A 
ATOM      2  C   LIG    1       25.258 -27.864   6.505  0.00  0.00    +0.043 A 
ATOM      3  C   LIG    1       24.317 -28.419   5.627  0.00  0.00    +0.013 A 
ATOM      4  C   LIG    1       23.795 -29.697   5.839  0.00  0.00    +0.001 A 
ATOM      5  C   LIG    1       24.208 -30.442   6.936  0.00  0.00    +0.006 A 
ATOM      6  C   LIG    1       25.120 -29.903   7.854  0.00  0.00    -0.015 A 
ENDROOT
BRANCH   1   7
ATOM      7  N   LIG    1       26.475 -28.054   8.658  0.00  0.00    -0.357 N 
ATOM      8  H   LIG    1       26.253 -28.452   9.588  0.00  0.00    +0.142 HD
ATOM      9  H   LIG    1       27.433 -28.338   8.432  0.00  0.00    +0.142 HD
ENDBRANCH   1   7
BRANCH   2  10
ATOM     10  C   LIG    1       25.943 -26.551   6.216  0.00  0.00    +0.195 C 
ATOM     11  O   LIG    1       27.053 -26.593   5.678  0.00  0.00    -0.287 OA
BRANCH  10  12
ATOM     12  C   LIG    1       25.340 -25.199   6.500  0.00  0.00    +0.022 A 
ATOM     13  C   LIG    1       26.103 -24.086   6.870  0.00  0.00    +0.013 A 
ATOM     14  C   LIG    1       25.526 -22.825   7.037  0.00  0.00    +0.016 A 
ATOM     15  C   LIG    1       24.153 -22.670   6.905  0.00  0.00    +0.018 A 
ATOM     16 BR   LIG    1       23.388 -20.962   7.163  0.00  0.00    -0.050 Br
ATOM     17  C   LIG    1       23.353 -23.772   6.619  0.00  0.00    +0.016 A 
ATOM     18  C   LIG    1       23.943 -25.032   6.420  0.00  0.00    +0.013 A 
ENDBRANCH  10  12
ENDBRANCH   2  10
BRANCH   6  19
ATOM     19  C   LIG    1       25.677 -30.810   8.939  0.00  0.00    +0.157 C 
BRANCH  19  20
ATOM     20  C   LIG    1       26.757 -31.781   8.498  0.00  0.00    +0.309 C 
ATOM     21  O   LIG    1       27.363 -32.492   9.311  0.00  0.00    -0.251 OA
BRANCH  20  22
ATOM     22  O   LIG    1       27.103 -31.792   7.199  0.00  0.00    -0.480 OA
ATOM     23  H   LIG    1       26.927 -30.934   6.739  0.00  0.00    +0.295 HD
ENDBRANCH  20  22
ENDBRANCH  19  20
ENDBRANCH   6  19
TORSDOF 6
ENDMDL
MODEL 9
REMARK VINA RESULT:      -7.7      2.726      3.343
REMARK  Name = *****
REMARK                            x       y       z     vdW  Elec       q    Type
REMARK                         _______ _______ _______ _____ _____    ______ ____
ROOT
ATOM      1  C   LIG    1       26.001 -20.914   6.226  0.00  0.00    +0.039 A 
ATOM      2  C   LIG    1       25.298 -21.658   7.206  0.00  0.00    +0.043 A 
ATOM      3  C   LIG    1       25.579 -21.406   8.555  0.00  0.00    +0.013 A 
ATOM      4  C   LIG    1       26.631 -20.569   8.932  0.00  0.00    +0.001 A 
ATOM      5  C   LIG    1       27.421 -19.967   7.961  0.00  0.00    +0.006 A 
ATOM      6  C   LIG    1       27.145 -20.168   6.601  0.00  0.00    -0.015 A 
ENDROOT
BRANCH   1   7
ATOM      7  N   LIG    1       25.759 -21.094   4.834  0.00  0.00    -0.357 N 
ATOM      8  H   LIG    1       25.303 -22.014   4.689  0.00  0.00    +0.142 HD
ATOM      9  H   LIG    1       25.119 -20.382   4.473  0.00  0.00    +0.142 HD
ENDBRANCH   1   7
BRANCH   2  10
ATOM     10  C   LIG    1       24.265 -22.672   6.780  0.00  0.00    +0.195 C 
ATOM     11  O   LIG    1       23.114 -22.268   6.589  0.00  0.00    -0.287 OA
BRANCH  10  12
ATOM     12  C   LIG    1       24.559 -24.129   6.528  0.00  0.00    +0.022 A 
ATOM     13  C   LIG    1       23.578 -25.050   6.148  0.00  0.00    +0.013 A 
ATOM     14  C   LIG    1       23.897 -26.373   5.834  0.00  0.00    +0.016 A 
ATOM     15  C   LIG    1       25.205 -26.818   5.965  0.00  0.00    +0.018 A 
ATOM     16 BR   LIG    1       25.612 -28.618   5.563  0.00  0.00    -0.050 Br
ATOM     17  C   LIG    1       26.193 -25.950   6.420  0.00  0.00    +0.016 A 
ATOM     18  C   LIG    1       25.871 -24.611   6.703  0.00  0.00    +0.013 A 
ENDBRANCH  10  12
ENDBRANCH   2  10
BRANCH   6  19
ATOM     19  C   LIG    1       28.133 -19.637   5.575  0.00  0.00    +0.157 C 
BRANCH  19  20
ATOM     20  C   LIG    1       29.482 -19.206   6.118  0.00  0.00    +0.309 C 
ATOM     21  O   LIG    1       29.884 -18.040   6.010  0.00  0.00    -0.251 OA
BRANCH  20  22
ATOM     22  O   LIG    1       30.277 -20.150   6.653  0.00  0.00    -0.480 OA
ATOM     23  H   LIG    1       29.979 -21.072   6.455  0.00  0.00    +0.295 HD
ENDBRANCH  20  22
ENDBRANCH  19  20
ENDBRANCH   6  19
TORSDOF 6
ENDMDL
