MODEL 1
REMARK VINA RESULT:      -4.9      0.000      0.000
REMARK  Name = *****
REMARK                            x       y       z     vdW  Elec       q    Type
REMARK                         _______ _______ _______ _____ _____    ______ ____
ROOT
ATOM      1  N   LIG    1       23.308 -20.630   5.352  0.00  0.00    +0.239 N 
ATOM      2  C   LIG    1       22.014 -21.366   4.936  0.00  0.00    +0.192 C 
ATOM      3  C   LIG    1       23.206 -20.435   6.854  0.00  0.00    +0.192 C 
ENDROOT
BRANCH   1   4
ATOM      4  C   LIG    1       23.448 -19.291   4.589  0.00  0.00    +0.132 C 
BRANCH   4   5
ATOM      5  C   LIG    1       22.130 -18.561   4.269  0.00  0.00    +0.051 C 
BRANCH   5   6
ATOM      6  C   LIG    1       22.169 -17.135   4.866  0.00  0.00    +0.005 C 
BRANCH   6   7
ATOM      7  C   LIG    1       23.129 -16.203   4.112  0.00  0.00    +0.000 C 
BRANCH   7   8
ATOM      8  C   LIG    1       23.230 -14.779   4.693  0.00  0.00    -0.000 C 
BRANCH   8   9
ATOM      9  C   LIG    1       23.897 -13.750   3.771  0.00  0.00    -0.000 C 
BRANCH   9  10
ATOM     10  C   LIG    1       24.919 -12.834   4.473  0.00  0.00    -0.000 C 
BRANCH  10  11
ATOM     11  C   LIG    1       26.194 -13.543   4.950  0.00  0.00    -0.000 C 
BRANCH  11  13
ATOM     12  C   LIG    1       28.419 -13.618   3.731  0.00  0.00    +0.004 C 
ATOM     13  C   LIG    1       26.988 -14.140   3.779  0.00  0.00    -0.003 C 
ENDBRANCH  11  13
ENDBRANCH  10  11
ENDBRANCH   9  10
ENDBRANCH   8   9
ENDBRANCH   7   8
ENDBRANCH   6   7
ENDBRANCH   5   6
ENDBRANCH   4   5
ENDBRANCH   1   4
BRANCH   1  14
ATOM     14  C   LIG    1       24.509 -21.560   4.979  0.00  0.00    +0.132 C 
BRANCH  14  15
ATOM     15  C   LIG    1       25.936 -21.006   5.227  0.00  0.00    +0.051 C 
BRANCH  15  16
ATOM     16  C   LIG    1       26.375 -20.654   6.660  0.00  0.00    +0.005 C 
BRANCH  16  17
ATOM     17  C   LIG    1       27.641 -21.423   7.057  0.00  0.00    +0.000 C 
BRANCH  17  18
ATOM     18  C   LIG    1       28.960 -20.823   6.545  0.00  0.00    -0.000 C 
BRANCH  18  19
ATOM     19  C   LIG    1       28.910 -19.302   6.751  0.00  0.00    -0.000 C 
BRANCH  19  20
ATOM     20  C   LIG    1       29.474 -18.501   5.581  0.00  0.00    -0.003 C 
ATOM     21  C   LIG    1       28.357 -17.806   4.815  0.00  0.00    +0.004 C 
ENDBRANCH  19  20
ENDBRANCH  18  19
ENDBRANCH  17  18
ENDBRANCH  16  17
ENDBRANCH  15  16
ENDBRANCH  14  15
ENDBRANCH   1  14
TORSDOF 16
ENDMDL
MODEL 2
REMARK VINA RESULT:      -4.5      2.404      6.601
REMARK  Name = *****
REMARK                            x       y       z     vdW  Elec       q    Type
REMARK                         _______ _______ _______ _____ _____    ______ ____
ROOT
ATOM      1  N   LIG    1       24.328 -12.916   4.174  0.00  0.00    +0.239 N 
ATOM      2  C   LIG    1       23.580 -11.604   4.507  0.00  0.00    +0.192 C 
ATOM      3  C   LIG    1       24.154 -13.121   2.680  0.00  0.00    +0.192 C 
ENDROOT
BRANCH   1   4
ATOM      4  C   LIG    1       23.766 -14.095   5.003  0.00  0.00    +0.132 C 
BRANCH   4   5
ATOM      5  C   LIG    1       23.217 -15.284   4.192  0.00  0.00    +0.051 C 
BRANCH   5   6
ATOM      6  C   LIG    1       22.157 -16.037   5.028  0.00  0.00    +0.005 C 
BRANCH   6   7
ATOM      7  C   LIG    1       21.817 -17.418   4.448  0.00  0.00    +0.000 C 
BRANCH   7   8
ATOM      8  C   LIG    1       22.670 -18.576   5.003  0.00  0.00    -0.000 C 
BRANCH   8   9
ATOM      9  C   LIG    1       22.191 -19.979   4.610  0.00  0.00    -0.000 C 
BRANCH   9  10
ATOM     10  C   LIG    1       22.511 -21.075   5.645  0.00  0.00    -0.000 C 
BRANCH  10  11
ATOM     11  C   LIG    1       23.326 -20.597   6.854  0.00  0.00    -0.000 C 
BRANCH  11  13
ATOM     12  C   LIG    1       25.855 -20.567   7.052  0.00  0.00    +0.004 C 
ATOM     13  C   LIG    1       24.600 -21.431   7.050  0.00  0.00    -0.003 C 
ENDBRANCH  11  13
ENDBRANCH  10  11
ENDBRANCH   9  10
ENDBRANCH   8   9
ENDBRANCH   7   8
ENDBRANCH   6   7
ENDBRANCH   5   6
ENDBRANCH   4   5
ENDBRANCH   1   4
BRANCH   1  14
ATOM     14  C   LIG    1       25.832 -12.698   4.548  0.00  0.00    +0.132 C 
BRANCH  14  15
ATOM     15  C   LIG    1       26.603 -13.919   5.112  0.00  0.00    +0.051 C 
BRANCH  15  16
ATOM     16  C   LIG    1       27.568 -14.696   4.198  0.00  0.00    +0.005 C 
BRANCH  16  17
ATOM     17  C   LIG    1       26.808 -15.654   3.273  0.00  0.00    +0.000 C 
BRANCH  17  18
ATOM     18  C   LIG    1       27.011 -17.149   3.568  0.00  0.00    -0.000 C 
BRANCH  18  19
ATOM     19  C   LIG    1       25.678 -17.873   3.330  0.00  0.00    -0.000 C 
BRANCH  19  20
ATOM     20  C   LIG    1       25.609 -19.263   3.955  0.00  0.00    -0.003 C 
ATOM     21  C   LIG    1       25.272 -20.311   2.902  0.00  0.00    +0.004 C 
ENDBRANCH  19  20
ENDBRANCH  18  19
ENDBRANCH  17  18
ENDBRANCH  16  17
ENDBRANCH  15  16
ENDBRANCH  14  15
ENDBRANCH   1  14
TORSDOF 16
ENDMDL
MODEL 3
REMARK VINA RESULT:      -4.4      2.116      6.312
REMARK  Name = *****
REMARK                            x       y       z     vdW  Elec       q    Type
REMARK                         _______ _______ _______ _____ _____    ______ ____
ROOT
ATOM      1  N   LIG    1       24.644 -13.030   3.249  0.00  0.00    +0.239 N 
ATOM      2  C   LIG    1       25.219 -12.572   4.609  0.00  0.00    +0.192 C 
ATOM      3  C   LIG    1       24.214 -11.761   2.536  0.00  0.00    +0.192 C 
ENDROOT
BRANCH   1   4
ATOM      4  C   LIG    1       23.474 -14.021   3.452  0.00  0.00    +0.132 C 
BRANCH   4   5
ATOM      5  C   LIG    1       23.641 -15.029   4.604  0.00  0.00    +0.051 C 
BRANCH   5   6
ATOM      6  C   LIG    1       22.428 -15.988   4.635  0.00  0.00    +0.005 C 
BRANCH   6   7
ATOM      7  C   LIG    1       22.838 -17.465   4.534  0.00  0.00    +0.000 C 
BRANCH   7   8
ATOM      8  C   LIG    1       21.715 -18.411   4.065  0.00  0.00    -0.000 C 
BRANCH   8   9
ATOM      9  C   LIG    1       21.790 -19.834   4.631  0.00  0.00    -0.000 C 
BRANCH   9  10
ATOM     10  C   LIG    1       22.817 -20.015   5.766  0.00  0.00    -0.000 C 
BRANCH  10  11
ATOM     11  C   LIG    1       23.466 -21.404   5.830  0.00  0.00    -0.000 C 
BRANCH  11  13
ATOM     12  C   LIG    1       25.036 -20.530   4.038  0.00  0.00    +0.004 C 
ATOM     13  C   LIG    1       24.903 -21.388   5.291  0.00  0.00    -0.003 C 
ENDBRANCH  11  13
ENDBRANCH  10  11
ENDBRANCH   9  10
ENDBRANCH   8   9
ENDBRANCH   7   8
ENDBRANCH   6   7
ENDBRANCH   5   6
ENDBRANCH   4   5
ENDBRANCH   1   4
BRANCH   1  14
ATOM     14  C   LIG    1       25.799 -13.752   2.479  0.00  0.00    +0.132 C 
BRANCH  14  15
ATOM     15  C   LIG    1       27.193 -13.776   3.158  0.00  0.00    +0.051 C 
BRANCH  15  16
ATOM     16  C   LIG    1       27.634 -15.024   3.943  0.00  0.00    +0.005 C 
BRANCH  16  17
ATOM     17  C   LIG    1       26.796 -16.249   3.558  0.00  0.00    +0.000 C 
BRANCH  17  18
ATOM     18  C   LIG    1       27.345 -17.599   4.044  0.00  0.00    -0.000 C 
BRANCH  18  19
ATOM     19  C   LIG    1       28.673 -17.345   4.773  0.00  0.00    -0.000 C 
BRANCH  19  20
ATOM     20  C   LIG    1       29.200 -18.555   5.538  0.00  0.00    -0.003 C 
ATOM     21  C   LIG    1       28.132 -19.637   5.637  0.00  0.00    +0.004 C 
ENDBRANCH  19  20
ENDBRANCH  18  19
ENDBRANCH  17  18
ENDBRANCH  16  17
ENDBRANCH  15  16
ENDBRANCH  14  15
ENDBRANCH   1  14
TORSDOF 16
ENDMDL
MODEL 4
REMARK VINA RESULT:      -4.4      1.260      2.868
REMARK  Name = *****
REMARK                            x       y       z     vdW  Elec       q    Type
REMARK                         _______ _______ _______ _____ _____    ______ ____
ROOT
ATOM      1  N   LIG    1       22.491 -18.232   4.327  0.00  0.00    +0.239 N 
ATOM      2  C   LIG    1       23.861 -18.520   3.671  0.00  0.00    +0.192 C 
ATOM      3  C   LIG    1       21.451 -18.573   3.276  0.00  0.00    +0.192 C 
ENDROOT
BRANCH   1   4
ATOM      4  C   LIG    1       22.403 -16.758   4.791  0.00  0.00    +0.132 C 
BRANCH   4   5
ATOM      5  C   LIG    1       23.414 -15.791   4.146  0.00  0.00    +0.051 C 
BRANCH   5   6
ATOM      6  C   LIG    1       23.535 -14.515   5.011  0.00  0.00    +0.005 C 
BRANCH   6   7
ATOM      7  C   LIG    1       23.938 -13.280   4.192  0.00  0.00    +0.000 C 
BRANCH   7   8
ATOM      8  C   LIG    1       24.313 -13.576   2.726  0.00  0.00    -0.000 C 
BRANCH   8   9
ATOM      9  C   LIG    1       25.819 -13.624   2.442  0.00  0.00    -0.000 C 
BRANCH   9  10
ATOM     10  C   LIG    1       26.529 -14.884   2.977  0.00  0.00    -0.000 C 
BRANCH  10  11
ATOM     11  C   LIG    1       27.768 -14.605   3.839  0.00  0.00    -0.000 C 
BRANCH  11  13
ATOM     12  C   LIG    1       28.671 -12.372   4.635  0.00  0.00    +0.004 C 
ATOM     13  C   LIG    1       27.557 -13.403   4.770  0.00  0.00    -0.003 C 
ENDBRANCH  11  13
ENDBRANCH  10  11
ENDBRANCH   9  10
ENDBRANCH   8   9
ENDBRANCH   7   8
ENDBRANCH   6   7
ENDBRANCH   5   6
ENDBRANCH   4   5
ENDBRANCH   1   4
BRANCH   1  14
ATOM     14  C   LIG    1       22.370 -19.169   5.574  0.00  0.00    +0.132 C 
BRANCH  14  15
ATOM     15  C   LIG    1       22.525 -20.692   5.331  0.00  0.00    +0.051 C 
BRANCH  15  16
ATOM     16  C   LIG    1       23.233 -21.561   6.386  0.00  0.00    +0.005 C 
BRANCH  16  17
ATOM     17  C   LIG    1       24.465 -20.849   6.958  0.00  0.00    +0.000 C 
BRANCH  17  18
ATOM     18  C   LIG    1       25.816 -21.331   6.406  0.00  0.00    -0.000 C 
BRANCH  18  19
ATOM     19  C   LIG    1       26.632 -20.100   5.985  0.00  0.00    -0.000 C 
BRANCH  19  20
ATOM     20  C   LIG    1       28.134 -20.246   6.213  0.00  0.00    -0.003 C 
ATOM     21  C   LIG    1       28.889 -19.075   5.598  0.00  0.00    +0.004 C 
ENDBRANCH  19  20
ENDBRANCH  18  19
ENDBRANCH  17  18
ENDBRANCH  16  17
ENDBRANCH  15  16
ENDBRANCH  14  15
ENDBRANCH   1  14
TORSDOF 16
ENDMDL
MODEL 5
REMARK VINA RESULT:      -4.1      2.037      7.462
REMARK  Name = *****
REMARK                            x       y       z     vdW  Elec       q    Type
REMARK                         _______ _______ _______ _____ _____    ______ ____
ROOT
ATOM      1  N   LIG    1       27.091 -13.750   3.876  0.00  0.00    +0.239 N 
ATOM      2  C   LIG    1       26.414 -13.286   2.565  0.00  0.00    +0.192 C 
ATOM      3  C   LIG    1       28.145 -12.704   4.187  0.00  0.00    +0.192 C 
ENDROOT
BRANCH   1   4
ATOM      4  C   LIG    1       27.692 -15.166   3.712  0.00  0.00    +0.132 C 
BRANCH   4   5
ATOM      5  C   LIG    1       26.685 -16.292   3.411  0.00  0.00    +0.051 C 
BRANCH   5   6
ATOM      6  C   LIG    1       27.211 -17.627   3.988  0.00  0.00    +0.005 C 
BRANCH   6   7
ATOM      7  C   LIG    1       28.457 -17.442   4.866  0.00  0.00    +0.000 C 
BRANCH   7   8
ATOM      8  C   LIG    1       29.196 -18.750   5.215  0.00  0.00    -0.000 C 
BRANCH   8   9
ATOM      9  C   LIG    1       29.141 -19.149   6.695  0.00  0.00    -0.000 C 
BRANCH   9  10
ATOM     10  C   LIG    1       29.172 -20.669   6.946  0.00  0.00    -0.000 C 
BRANCH  10  11
ATOM     11  C   LIG    1       27.792 -21.329   7.062  0.00  0.00    -0.000 C 
BRANCH  11  13
ATOM     12  C   LIG    1       25.317 -21.109   6.546  0.00  0.00    +0.004 C 
ATOM     13  C   LIG    1       26.679 -20.426   6.513  0.00  0.00    -0.003 C 
ENDBRANCH  11  13
ENDBRANCH  10  11
ENDBRANCH   9  10
ENDBRANCH   8   9
ENDBRANCH   7   8
ENDBRANCH   6   7
ENDBRANCH   5   6
ENDBRANCH   4   5
ENDBRANCH   1   4
BRANCH   1  14
ATOM     14  C   LIG    1       25.983 -13.789   4.980  0.00  0.00    +0.132 C 
BRANCH  14  15
ATOM     15  C   LIG    1       24.512 -13.653   4.509  0.00  0.00    +0.051 C 
BRANCH  15  16
ATOM     16  C   LIG    1       23.771 -14.887   3.964  0.00  0.00    +0.005 C 
BRANCH  16  17
ATOM     17  C   LIG    1       22.746 -15.412   4.975  0.00  0.00    +0.000 C 
BRANCH  17  18
ATOM     18  C   LIG    1       22.322 -16.877   4.779  0.00  0.00    -0.000 C 
BRANCH  18  19
ATOM     19  C   LIG    1       23.379 -17.572   3.909  0.00  0.00    -0.000 C 
BRANCH  19  20
ATOM     20  C   LIG    1       23.468 -19.078   4.129  0.00  0.00    -0.003 C 
ATOM     21  C   LIG    1       22.280 -19.576   4.942  0.00  0.00    +0.004 C 
ENDBRANCH  19  20
ENDBRANCH  18  19
ENDBRANCH  17  18
ENDBRANCH  16  17
ENDBRANCH  15  16
ENDBRANCH  14  15
ENDBRANCH   1  14
TORSDOF 16
ENDMDL
MODEL 6
REMARK VINA RESULT:      -4.0      1.118      6.190
REMARK  Name = *****
REMARK                            x       y       z     vdW  Elec       q    Type
REMARK                         _______ _______ _______ _____ _____    ______ ____
ROOT
ATOM      1  N   LIG    1       22.632 -18.255   4.441  0.00  0.00    +0.239 N 
ATOM      2  C   LIG    1       22.320 -19.429   5.398  0.00  0.00    +0.192 C 
ATOM      3  C   LIG    1       21.538 -18.280   3.389  0.00  0.00    +0.192 C 
ENDROOT
BRANCH   1   4
ATOM      4  C   LIG    1       24.045 -18.405   3.830  0.00  0.00    +0.132 C 
BRANCH   4   5
ATOM      5  C   LIG    1       24.455 -19.835   3.432  0.00  0.00    +0.051 C 
BRANCH   5   6
ATOM      6  C   LIG    1       25.553 -20.347   4.394  0.00  0.00    +0.005 C 
BRANCH   6   7
ATOM      7  C   LIG    1       25.028 -21.389   5.392  0.00  0.00    +0.000 C 
BRANCH   7   8
ATOM      8  C   LIG    1       25.447 -21.145   6.855  0.00  0.00    -0.000 C 
BRANCH   8   9
ATOM      9  C   LIG    1       26.814 -20.473   7.032  0.00  0.00    -0.000 C 
BRANCH   9  10
ATOM     10  C   LIG    1       28.005 -21.450   7.061  0.00  0.00    -0.000 C 
BRANCH  10  11
ATOM     11  C   LIG    1       29.372 -20.803   6.800  0.00  0.00    -0.000 C 
BRANCH  11  13
ATOM     12  C   LIG    1       28.917 -18.640   5.554  0.00  0.00    +0.004 C 
ATOM     13  C   LIG    1       29.305 -19.273   6.885  0.00  0.00    -0.003 C 
ENDBRANCH  11  13
ENDBRANCH  10  11
ENDBRANCH   9  10
ENDBRANCH   8   9
ENDBRANCH   7   8
ENDBRANCH   6   7
ENDBRANCH   5   6
ENDBRANCH   4   5
ENDBRANCH   1   4
BRANCH   1  14
ATOM     14  C   LIG    1       22.577 -16.941   5.289  0.00  0.00    +0.132 C 
BRANCH  14  15
ATOM     15  C   LIG    1       22.689 -15.600   4.520  0.00  0.00    +0.051 C 
BRANCH  15  16
ATOM     16  C   LIG    1       24.079 -15.011   4.218  0.00  0.00    +0.005 C 
BRANCH  16  17
ATOM     17  C   LIG    1       24.010 -13.491   4.026  0.00  0.00    +0.000 C 
BRANCH  17  18
ATOM     18  C   LIG    1       25.176 -12.699   4.639  0.00  0.00    -0.000 C 
BRANCH  18  19
ATOM     19  C   LIG    1       26.227 -13.700   5.140  0.00  0.00    -0.000 C 
BRANCH  19  20
ATOM     20  C   LIG    1       27.663 -13.310   4.801  0.00  0.00    -0.003 C 
ATOM     21  C   LIG    1       27.985 -13.646   3.350  0.00  0.00    +0.004 C 
ENDBRANCH  19  20
ENDBRANCH  18  19
ENDBRANCH  17  18
ENDBRANCH  16  17
ENDBRANCH  15  16
ENDBRANCH  14  15
ENDBRANCH   1  14
TORSDOF 16
ENDMDL
MODEL 7
REMARK VINA RESULT:      -3.5      1.851      3.471
REMARK  Name = *****
REMARK                            x       y       z     vdW  Elec       q    Type
REMARK                         _______ _______ _______ _____ _____    ______ ____
ROOT
ATOM      1  N   LIG    1       24.250 -20.201   4.707  0.00  0.00    +0.239 N 
ATOM      2  C   LIG    1       23.583 -21.568   4.428  0.00  0.00    +0.192 C 
ATOM      3  C   LIG    1       25.453 -20.500   5.583  0.00  0.00    +0.192 C 
ENDROOT
BRANCH   1   4
ATOM      4  C   LIG    1       23.252 -19.231   5.383  0.00  0.00    +0.132 C 
BRANCH   4   5
ATOM      5  C   LIG    1       21.978 -18.910   4.578  0.00  0.00    +0.051 C 
BRANCH   5   6
ATOM      6  C   LIG    1       22.130 -17.532   3.893  0.00  0.00    +0.005 C 
BRANCH   6   7
ATOM      7  C   LIG    1       22.618 -16.441   4.858  0.00  0.00    +0.000 C 
BRANCH   7   8
ATOM      8  C   LIG    1       23.079 -15.139   4.174  0.00  0.00    -0.000 C 
BRANCH   8   9
ATOM      9  C   LIG    1       24.199 -14.388   4.904  0.00  0.00    -0.000 C 
BRANCH   9  10
ATOM     10  C   LIG    1       24.313 -12.896   4.531  0.00  0.00    -0.000 C 
BRANCH  10  11
ATOM     11  C   LIG    1       23.612 -12.506   3.222  0.00  0.00    -0.000 C 
BRANCH  11  13
ATOM     12  C   LIG    1       25.665 -13.321   1.973  0.00  0.00    +0.004 C 
ATOM     13  C   LIG    1       24.617 -12.222   2.098  0.00  0.00    -0.003 C 
ENDBRANCH  11  13
ENDBRANCH  10  11
ENDBRANCH   9  10
ENDBRANCH   8   9
ENDBRANCH   7   8
ENDBRANCH   6   7
ENDBRANCH   5   6
ENDBRANCH   4   5
ENDBRANCH   1   4
BRANCH   1  14
ATOM     14  C   LIG    1       24.684 -19.608   3.326  0.00  0.00    +0.132 C 
BRANCH  14  15
ATOM     15  C   LIG    1       25.998 -18.785   3.292  0.00  0.00    +0.051 C 
BRANCH  15  16
ATOM     16  C   LIG    1       25.931 -17.248   3.306  0.00  0.00    +0.005 C 
BRANCH  16  17
ATOM     17  C   LIG    1       27.187 -16.642   3.946  0.00  0.00    +0.000 C 
BRANCH  17  18
ATOM     18  C   LIG    1       27.411 -15.148   3.664  0.00  0.00    -0.000 C 
BRANCH  18  19
ATOM     19  C   LIG    1       27.535 -14.417   5.009  0.00  0.00    -0.000 C 
BRANCH  19  20
ATOM     20  C   LIG    1       27.959 -12.957   4.883  0.00  0.00    -0.003 C 
ATOM     21  C   LIG    1       28.949 -12.781   3.739  0.00  0.00    +0.004 C 
ENDBRANCH  19  20
ENDBRANCH  18  19
ENDBRANCH  17  18
ENDBRANCH  16  17
ENDBRANCH  15  16
ENDBRANCH  14  15
ENDBRANCH   1  14
TORSDOF 16
ENDMDL
MODEL 8
REMARK VINA RESULT:      -3.2      1.546      4.168
REMARK  Name = *****
REMARK                            x       y       z     vdW  Elec       q    Type
REMARK                         _______ _______ _______ _____ _____    ______ ____
ROOT
ATOM      1  N   LIG    1       25.778 -20.705   5.838  0.00  0.00    +0.239 N 
ATOM      2  C   LIG    1       26.767 -21.557   6.666  0.00  0.00    +0.192 C 
ATOM      3  C   LIG    1       24.814 -20.101   6.843  0.00  0.00    +0.192 C 
ENDROOT
BRANCH   1   4
ATOM      4  C   LIG    1       25.061 -21.572   4.776  0.00  0.00    +0.132 C 
BRANCH   4   5
ATOM      5  C   LIG    1       23.830 -20.931   4.107  0.00  0.00    +0.051 C 
BRANCH   5   6
ATOM      6  C   LIG    1       22.820 -20.491   5.192  0.00  0.00    +0.005 C 
BRANCH   6   7
ATOM      7  C   LIG    1       21.816 -19.447   4.679  0.00  0.00    +0.000 C 
BRANCH   7   8
ATOM      8  C   LIG    1       22.458 -18.188   4.063  0.00  0.00    -0.000 C 
BRANCH   8   9
ATOM      9  C   LIG    1       22.309 -16.912   4.900  0.00  0.00    -0.000 C 
BRANCH   9  10
ATOM     10  C   LIG    1       22.588 -15.607   4.128  0.00  0.00    -0.000 C 
BRANCH  10  11
ATOM     11  C   LIG    1       23.474 -14.598   4.872  0.00  0.00    -0.000 C 
BRANCH  11  13
ATOM     12  C   LIG    1       23.983 -12.130   4.579  0.00  0.00    +0.004 C 
ATOM     13  C   LIG    1       24.011 -13.510   3.933  0.00  0.00    -0.003 C 
ENDBRANCH  11  13
ENDBRANCH  10  11
ENDBRANCH   9  10
ENDBRANCH   8   9
ENDBRANCH   7   8
ENDBRANCH   6   7
ENDBRANCH   5   6
ENDBRANCH   4   5
ENDBRANCH   1   4
BRANCH   1  14
ATOM     14  C   LIG    1       26.615 -19.598   5.115  0.00  0.00    +0.132 C 
BRANCH  14  15
ATOM     15  C   LIG    1       26.166 -19.192   3.688  0.00  0.00    +0.051 C 
BRANCH  15  16
ATOM     16  C   LIG    1       25.701 -17.750   3.419  0.00  0.00    +0.005 C 
BRANCH  16  17
ATOM     17  C   LIG    1       26.830 -16.744   3.675  0.00  0.00    +0.000 C 
BRANCH  17  18
ATOM     18  C   LIG    1       26.555 -15.312   3.191  0.00  0.00    -0.000 C 
BRANCH  18  19
ATOM     19  C   LIG    1       27.757 -14.435   3.572  0.00  0.00    -0.000 C 
BRANCH  19  20
ATOM     20  C   LIG    1       27.478 -13.467   4.718  0.00  0.00    -0.003 C 
ATOM     21  C   LIG    1       28.559 -12.397   4.795  0.00  0.00    +0.004 C 
ENDBRANCH  19  20
ENDBRANCH  18  19
ENDBRANCH  17  18
ENDBRANCH  16  17
ENDBRANCH  15  16
ENDBRANCH  14  15
ENDBRANCH   1  14
TORSDOF 16
ENDMDL
MODEL 9
REMARK VINA RESULT:      -3.1      1.815      6.789
REMARK  Name = *****
REMARK                            x       y       z     vdW  Elec       q    Type
REMARK                         _______ _______ _______ _____ _____    ______ ____
ROOT
ATOM      1  N   LIG    1       23.788 -14.955   4.188  0.00  0.00    +0.239 N 
ATOM      2  C   LIG    1       25.131 -15.601   3.774  0.00  0.00    +0.192 C 
ATOM      3  C   LIG    1       24.085 -14.161   5.446  0.00  0.00    +0.192 C 
ENDROOT
BRANCH   1   4
ATOM      4  C   LIG    1       22.704 -16.037   4.411  0.00  0.00    +0.132 C 
BRANCH   4   5
ATOM      5  C   LIG    1       23.143 -17.490   4.149  0.00  0.00    +0.051 C 
BRANCH   5   6
ATOM      6  C   LIG    1       22.008 -18.456   4.561  0.00  0.00    +0.005 C 
BRANCH   6   7
ATOM      7  C   LIG    1       22.509 -19.887   4.810  0.00  0.00    +0.000 C 
BRANCH   7   8
ATOM      8  C   LIG    1       22.985 -20.158   6.251  0.00  0.00    -0.000 C 
BRANCH   8   9
ATOM      9  C   LIG    1       24.058 -21.246   6.383  0.00  0.00    -0.000 C 
BRANCH   9  10
ATOM     10  C   LIG    1       25.375 -20.767   7.026  0.00  0.00    -0.000 C 
BRANCH  10  11
ATOM     11  C   LIG    1       26.490 -20.428   6.028  0.00  0.00    -0.000 C 
BRANCH  11  13
ATOM     12  C   LIG    1       28.860 -19.533   6.169  0.00  0.00    +0.004 C 
ATOM     13  C   LIG    1       27.883 -20.599   6.649  0.00  0.00    -0.003 C 
ENDBRANCH  11  13
ENDBRANCH  10  11
ENDBRANCH   9  10
ENDBRANCH   8   9
ENDBRANCH   7   8
ENDBRANCH   6   7
ENDBRANCH   5   6
ENDBRANCH   4   5
ENDBRANCH   1   4
BRANCH   1  14
ATOM     14  C   LIG    1       23.344 -14.020   3.015  0.00  0.00    +0.132 C 
BRANCH  14  15
ATOM     15  C   LIG    1       23.902 -12.573   3.015  0.00  0.00    +0.051 C 
BRANCH  15  16
ATOM     16  C   LIG    1       24.942 -12.160   1.959  0.00  0.00    +0.005 C 
BRANCH  16  17
ATOM     17  C   LIG    1       26.370 -12.300   2.500  0.00  0.00    +0.000 C 
BRANCH  17  18
ATOM     18  C   LIG    1       26.959 -13.719   2.438  0.00  0.00    -0.000 C 
BRANCH  18  19
ATOM     19  C   LIG    1       28.094 -13.815   3.467  0.00  0.00    -0.000 C 
BRANCH  19  20
ATOM     20  C   LIG    1       27.972 -12.820   4.617  0.00  0.00    -0.003 C 
ATOM     21  C   LIG    1       27.331 -13.476   5.833  0.00  0.00    +0.004 C 
ENDBRANCH  19  20
ENDBRANCH  18  19
ENDBRANCH  17  18
ENDBRANCH  16  17
ENDBRANCH  15  16
ENDBRANCH  14  15
ENDBRANCH   1  14
TORSDOF 16
ENDMDL
