MODEL 1
REMARK VINA RESULT:      -6.1      0.000      0.000
REMARK  Name = *****
REMARK                            x       y       z     vdW  Elec       q    Type
REMARK                         _______ _______ _______ _____ _____    ______ ____
ROOT
ATOM      1  C   LIG    1       24.798 -22.289   6.601  0.00  0.00    -0.004 C 
ATOM      2  C   LIG    1       25.331 -21.689   7.750  0.00  0.00    -0.016 C 
ATOM      3  C   LIG    1       26.017 -22.393   8.847  0.00  0.00    +0.015 C 
ATOM      4  C   LIG    1       27.337 -22.122   9.072  0.00  0.00    +0.078 C 
ATOM      5  C   LIG    1       27.857 -20.987   8.259  0.00  0.00    +0.203 C 
ATOM      6  N   LIG    1       29.060 -20.958   7.685  0.00  0.00    -0.229 N 
ATOM      7  C   LIG    1       26.844 -19.875   8.176  0.00  0.00    +0.078 C 
ATOM      8  C   LIG    1       25.560 -20.278   7.962  0.00  0.00    +0.015 C 
ENDROOT
BRANCH   1  12
ATOM      9  C   LIG    1       25.072 -26.826   6.358  0.00  0.00    +0.030 A 
ATOM     10  C   LIG    1       23.934 -26.058   6.383  0.00  0.00    +0.024 A 
ATOM     11  C   LIG    1       23.842 -24.658   6.414  0.00  0.00    +0.010 A 
ATOM     12  C   LIG    1       24.930 -23.811   6.479  0.00  0.00    -0.017 A 
ATOM     13  C   LIG    1       26.095 -24.596   6.397  0.00  0.00    +0.010 A 
ATOM     14  C   LIG    1       26.171 -26.005   6.422  0.00  0.00    +0.024 A 
BRANCH   9  15
ATOM     15  N   LIG    1       25.119 -28.207   6.232  0.00  0.00    -0.330 N 
BRANCH  15  17
ATOM     16  C   LIG    1       25.477 -30.435   4.916  0.00  0.00    +0.024 C 
ATOM     17  C   LIG    1       25.235 -28.937   4.913  0.00  0.00    +0.102 C 
ENDBRANCH  15  17
BRANCH  15  18
ATOM     18  C   LIG    1       25.005 -29.180   7.381  0.00  0.00    +0.102 C 
ATOM     19  C   LIG    1       25.794 -28.930   8.668  0.00  0.00    +0.024 C 
ENDBRANCH  15  18
ENDBRANCH   9  15
ENDBRANCH   1  12
BRANCH   1  20
ATOM     20  C   LIG    1       24.106 -21.390   5.466  0.00  0.00    -0.017 A 
ATOM     21  C   LIG    1       24.705 -21.053   4.239  0.00  0.00    +0.008 A 
ATOM     22  C   LIG    1       24.125 -20.212   3.265  0.00  0.00    +0.001 A 
ATOM     23  C   LIG    1       22.833 -19.752   3.410  0.00  0.00    +0.000 A 
ATOM     24  C   LIG    1       22.157 -20.089   4.561  0.00  0.00    +0.001 A 
ATOM     25  C   LIG    1       22.814 -20.813   5.583  0.00  0.00    +0.008 A 
ENDBRANCH   1  20
BRANCH   6  26
ATOM     26  C   LIG    1       29.527 -19.746   6.933  0.00  0.00    +0.347 C 
ATOM     27  C   LIG    1       30.093 -18.687   7.862  0.00  0.00    +0.082 C 
ENDBRANCH   6  26
BRANCH   6  28
ATOM     28  C   LIG    1       30.030 -22.109   7.750  0.00  0.00    +0.347 C 
ATOM     29  C   LIG    1       30.966 -21.991   8.954  0.00  0.00    +0.082 C 
ENDBRANCH   6  28
TORSDOF 7
ENDMDL
MODEL 2
REMARK VINA RESULT:      -6.1      2.760      9.223
REMARK  Name = *****
REMARK                            x       y       z     vdW  Elec       q    Type
REMARK                         _______ _______ _______ _____ _____    ______ ____
ROOT
ATOM      1  C   LIG    1       25.560 -29.596   7.369  0.00  0.00    -0.004 C 
ATOM      2  C   LIG    1       26.146 -29.874   8.612  0.00  0.00    -0.016 C 
ATOM      3  C   LIG    1       26.547 -28.874   9.616  0.00  0.00    +0.015 C 
ATOM      4  C   LIG    1       25.908 -28.869  10.824  0.00  0.00    +0.078 C 
ATOM      5  C   LIG    1       24.991 -30.027  11.015  0.00  0.00    +0.203 C 
ATOM      6  N   LIG    1       23.793 -29.955  11.595  0.00  0.00    -0.229 N 
ATOM      7  C   LIG    1       25.601 -31.293  10.470  0.00  0.00    +0.078 C 
ATOM      8  C   LIG    1       26.221 -31.162   9.263  0.00  0.00    +0.015 C 
ENDROOT
BRANCH   1  12
ATOM      9  C   LIG    1       24.909 -25.178   6.485  0.00  0.00    +0.030 A 
ATOM     10  C   LIG    1       25.975 -25.752   7.134  0.00  0.00    +0.024 A 
ATOM     11  C   LIG    1       26.204 -27.117   7.371  0.00  0.00    +0.010 A 
ATOM     12  C   LIG    1       25.326 -28.123   7.019  0.00  0.00    -0.017 A 
ATOM     13  C   LIG    1       24.263 -27.539   6.306  0.00  0.00    +0.010 A 
ATOM     14  C   LIG    1       24.020 -26.161   6.124  0.00  0.00    +0.024 A 
BRANCH   9  15
ATOM     15  N   LIG    1       24.768 -23.831   6.188  0.00  0.00    -0.330 N 
BRANCH  15  17
ATOM     16  C   LIG    1       25.731 -22.238   8.021  0.00  0.00    +0.024 C 
ATOM     17  C   LIG    1       24.546 -22.751   7.223  0.00  0.00    +0.102 C 
ENDBRANCH  15  17
BRANCH  15  18
ATOM     18  C   LIG    1       24.755 -23.254   4.793  0.00  0.00    +0.102 C 
ATOM     19  C   LIG    1       24.457 -21.767   4.589  0.00  0.00    +0.024 C 
ENDBRANCH  15  18
ENDBRANCH   9  15
ENDBRANCH   1  12
BRANCH   1  20
ATOM     20  C   LIG    1       25.140 -30.793   6.387  0.00  0.00    -0.017 A 
ATOM     21  C   LIG    1       25.927 -31.262   5.319  0.00  0.00    +0.008 A 
ATOM     22  C   LIG    1       25.536 -32.273   4.415  0.00  0.00    +0.001 A 
ATOM     23  C   LIG    1       24.363 -32.975   4.607  0.00  0.00    +0.000 A 
ATOM     24  C   LIG    1       23.565 -32.613   5.667  0.00  0.00    +0.001 A 
ATOM     25  C   LIG    1       23.914 -31.503   6.472  0.00  0.00    +0.008 A 
ENDBRANCH   1  20
BRANCH   6  26
ATOM     26  C   LIG    1       22.960 -31.187  11.802  0.00  0.00    +0.347 C 
ATOM     27  C   LIG    1       21.868 -31.314  10.755  0.00  0.00    +0.082 C 
ENDBRANCH   6  26
BRANCH   6  28
ATOM     28  C   LIG    1       23.195 -28.663  12.088  0.00  0.00    +0.347 C 
ATOM     29  C   LIG    1       23.412 -28.477  13.590  0.00  0.00    +0.082 C 
ENDBRANCH   6  28
TORSDOF 7
ENDMDL
MODEL 3
REMARK VINA RESULT:      -6.1      5.598      9.539
REMARK  Name = *****
REMARK                            x       y       z     vdW  Elec       q    Type
REMARK                         _______ _______ _______ _____ _____    ______ ____
ROOT
ATOM      1  C   LIG    1       24.028 -29.488  11.746  0.00  0.00    -0.004 C 
ATOM      2  C   LIG    1       25.172 -29.847  11.019  0.00  0.00    -0.016 C 
ATOM      3  C   LIG    1       25.298 -31.022  10.139  0.00  0.00    +0.015 C 
ATOM      4  C   LIG    1       25.496 -30.818   8.802  0.00  0.00    +0.078 C 
ATOM      5  C   LIG    1       25.739 -29.391   8.450  0.00  0.00    +0.203 C 
ATOM      6  N   LIG    1       25.243 -28.784   7.371  0.00  0.00    -0.229 N 
ATOM      7  C   LIG    1       26.625 -28.726   9.472  0.00  0.00    +0.078 C 
ATOM      8  C   LIG    1       26.331 -29.022  10.770  0.00  0.00    +0.015 C 
ENDROOT
BRANCH   1  12
ATOM      9  C   LIG    1       20.298 -32.070  11.368  0.00  0.00    +0.030 A 
ATOM     10  C   LIG    1       20.650 -30.992  10.594  0.00  0.00    +0.024 A 
ATOM     11  C   LIG    1       21.818 -30.219  10.676  0.00  0.00    +0.010 A 
ATOM     12  C   LIG    1       22.805 -30.403  11.624  0.00  0.00    -0.017 A 
ATOM     13  C   LIG    1       22.471 -31.542  12.380  0.00  0.00    +0.010 A 
ATOM     14  C   LIG    1       21.266 -32.275  12.321  0.00  0.00    +0.024 A 
BRANCH   9  15
ATOM     15  N   LIG    1       19.176 -32.867  11.193  0.00  0.00    -0.330 N 
BRANCH  15  17
ATOM     16  C   LIG    1       18.007 -33.460   8.933  0.00  0.00    +0.024 C 
ATOM     17  C   LIG    1       18.985 -33.822  10.036  0.00  0.00    +0.102 C 
ENDBRANCH  15  17
BRANCH  15  18
ATOM     18  C   LIG    1       17.965 -32.857  12.092  0.00  0.00    +0.102 C 
ATOM     19  C   LIG    1       17.077 -31.611  12.156  0.00  0.00    +0.024 C 
ENDBRANCH  15  18
ENDBRANCH   9  15
ENDBRANCH   1  12
BRANCH   1  20
ATOM     20  C   LIG    1       24.024 -28.157  12.641  0.00  0.00    -0.017 A 
ATOM     21  C   LIG    1       25.179 -27.509  13.113  0.00  0.00    +0.008 A 
ATOM     22  C   LIG    1       25.178 -26.373  13.952  0.00  0.00    +0.001 A 
ATOM     23  C   LIG    1       23.998 -25.732  14.269  0.00  0.00    +0.000 A 
ATOM     24  C   LIG    1       22.826 -26.273  13.794  0.00  0.00    +0.001 A 
ATOM     25  C   LIG    1       22.847 -27.492  13.076  0.00  0.00    +0.008 A 
ENDBRANCH   1  20
BRANCH   6  26
ATOM     26  C   LIG    1       25.591 -27.357   7.060  0.00  0.00    +0.347 C 
ATOM     27  C   LIG    1       24.569 -26.713   6.141  0.00  0.00    +0.082 C 
ENDBRANCH   6  26
BRANCH   6  28
ATOM     28  C   LIG    1       24.322 -29.468   6.394  0.00  0.00    +0.347 C 
ATOM     29  C   LIG    1       25.100 -30.291   5.367  0.00  0.00    +0.082 C 
ENDBRANCH   6  28
TORSDOF 7
ENDMDL
MODEL 4
REMARK VINA RESULT:      -6.0      2.944      9.538
REMARK  Name = *****
REMARK                            x       y       z     vdW  Elec       q    Type
REMARK                         _______ _______ _______ _____ _____    ______ ____
ROOT
ATOM      1  C   LIG    1       25.438 -30.112   7.305  0.00  0.00    -0.004 C 
ATOM      2  C   LIG    1       25.884 -30.496   8.577  0.00  0.00    -0.016 C 
ATOM      3  C   LIG    1       26.223 -29.582   9.681  0.00  0.00    +0.015 C 
ATOM      4  C   LIG    1       25.465 -29.624  10.818  0.00  0.00    +0.078 C 
ATOM      5  C   LIG    1       24.488 -30.748  10.840  0.00  0.00    +0.203 C 
ATOM      6  N   LIG    1       23.241 -30.657  11.303  0.00  0.00    -0.229 N 
ATOM      7  C   LIG    1       25.098 -32.003  10.271  0.00  0.00    +0.078 C 
ATOM      8  C   LIG    1       25.842 -31.825   9.143  0.00  0.00    +0.015 C 
ENDROOT
BRANCH   1  12
ATOM      9  C   LIG    1       25.056 -25.622   6.665  0.00  0.00    +0.030 A 
ATOM     10  C   LIG    1       26.017 -26.283   7.389  0.00  0.00    +0.024 A 
ATOM     11  C   LIG    1       26.167 -27.669   7.555  0.00  0.00    +0.010 A 
ATOM     12  C   LIG    1       25.301 -28.610   7.035  0.00  0.00    -0.017 A 
ATOM     13  C   LIG    1       24.350 -27.935   6.247  0.00  0.00    +0.010 A 
ATOM     14  C   LIG    1       24.180 -26.538   6.136  0.00  0.00    +0.024 A 
BRANCH   9  15
ATOM     15  N   LIG    1       24.999 -24.253   6.449  0.00  0.00    -0.330 N 
BRANCH  15  17
ATOM     16  C   LIG    1       22.626 -23.190   6.705  0.00  0.00    +0.024 C 
ATOM     17  C   LIG    1       23.817 -23.539   5.832  0.00  0.00    +0.102 C 
ENDBRANCH  15  17
BRANCH  15  18
ATOM     18  C   LIG    1       26.122 -23.287   6.741  0.00  0.00    +0.102 C 
ATOM     19  C   LIG    1       26.093 -22.459   8.028  0.00  0.00    +0.024 C 
ENDBRANCH  15  18
ENDBRANCH   9  15
ENDBRANCH   1  12
BRANCH   1  20
ATOM     20  C   LIG    1       25.073 -31.223   6.207  0.00  0.00    -0.017 A 
ATOM     21  C   LIG    1       25.911 -31.598   5.142  0.00  0.00    +0.008 A 
ATOM     22  C   LIG    1       25.568 -32.530   4.138  0.00  0.00    +0.001 A 
ATOM     23  C   LIG    1       24.393 -33.249   4.215  0.00  0.00    +0.000 A 
ATOM     24  C   LIG    1       23.544 -32.980   5.264  0.00  0.00    +0.001 A 
ATOM     25  C   LIG    1       23.848 -31.941   6.174  0.00  0.00    +0.008 A 
ENDBRANCH   1  20
BRANCH   6  26
ATOM     26  C   LIG    1       22.343 -31.859  11.343  0.00  0.00    +0.347 C 
ATOM     27  C   LIG    1       21.323 -31.841  10.219  0.00  0.00    +0.082 C 
ENDBRANCH   6  26
BRANCH   6  28
ATOM     28  C   LIG    1       22.649 -29.372  11.821  0.00  0.00    +0.347 C 
ATOM     29  C   LIG    1       22.704 -29.301  13.348  0.00  0.00    +0.082 C 
ENDBRANCH   6  28
TORSDOF 7
ENDMDL
MODEL 5
REMARK VINA RESULT:      -5.9      7.077      9.138
REMARK  Name = *****
REMARK                            x       y       z     vdW  Elec       q    Type
REMARK                         _______ _______ _______ _____ _____    ______ ____
ROOT
ATOM      1  C   LIG    1       23.831 -29.746  12.284  0.00  0.00    -0.004 C 
ATOM      2  C   LIG    1       24.421 -30.521  13.292  0.00  0.00    -0.016 C 
ATOM      3  C   LIG    1       25.391 -31.610  13.082  0.00  0.00    +0.015 C 
ATOM      4  C   LIG    1       26.658 -31.460  13.571  0.00  0.00    +0.078 C 
ATOM      5  C   LIG    1       26.824 -30.251  14.426  0.00  0.00    +0.203 C 
ATOM      6  N   LIG    1       27.894 -29.455  14.410  0.00  0.00    -0.229 N 
ATOM      7  C   LIG    1       25.624 -30.050  15.315  0.00  0.00    +0.078 C 
ATOM      8  C   LIG    1       24.418 -30.243  14.710  0.00  0.00    +0.015 C 
ENDROOT
BRANCH   1  12
ATOM      9  C   LIG    1       25.014 -30.534   7.960  0.00  0.00    +0.030 A 
ATOM     10  C   LIG    1       25.677 -29.759   8.879  0.00  0.00    +0.024 A 
ATOM     11  C   LIG    1       25.343 -29.546  10.226  0.00  0.00    +0.010 A 
ATOM     12  C   LIG    1       24.219 -30.066  10.837  0.00  0.00    -0.017 A 
ATOM     13  C   LIG    1       23.571 -30.904   9.911  0.00  0.00    +0.010 A 
ATOM     14  C   LIG    1       23.889 -31.063   8.545  0.00  0.00    +0.024 A 
BRANCH   9  15
ATOM     15  N   LIG    1       25.430 -30.793   6.662  0.00  0.00    -0.330 N 
BRANCH  15  17
ATOM     16  C   LIG    1       27.272 -32.600   7.076  0.00  0.00    +0.024 C 
ATOM     17  C   LIG    1       26.130 -32.063   6.232  0.00  0.00    +0.102 C 
ENDBRANCH  15  17
BRANCH  15  18
ATOM     18  C   LIG    1       25.299 -29.830   5.508  0.00  0.00    +0.102 C 
ATOM     19  C   LIG    1       24.267 -28.702   5.574  0.00  0.00    +0.024 C 
ENDBRANCH  15  18
ENDBRANCH   9  15
ENDBRANCH   1  12
BRANCH   1  20
ATOM     20  C   LIG    1       22.814 -28.565  12.664  0.00  0.00    -0.017 A 
ATOM     21  C   LIG    1       23.203 -27.290  13.112  0.00  0.00    +0.008 A 
ATOM     22  C   LIG    1       22.311 -26.269  13.507  0.00  0.00    +0.001 A 
ATOM     23  C   LIG    1       20.949 -26.424  13.351  0.00  0.00    +0.000 A 
ATOM     24  C   LIG    1       20.492 -27.626  12.861  0.00  0.00    +0.001 A 
ATOM     25  C   LIG    1       21.400 -28.681  12.610  0.00  0.00    +0.008 A 
ENDBRANCH   1  20
BRANCH   6  26
ATOM     26  C   LIG    1       28.004 -28.292  15.352  0.00  0.00    +0.347 C 
ATOM     27  C   LIG    1       27.579 -26.990  14.696  0.00  0.00    +0.082 C 
ENDBRANCH   6  26
BRANCH   6  28
ATOM     28  C   LIG    1       29.056 -29.660  13.474  0.00  0.00    +0.347 C 
ATOM     29  C   LIG    1       28.682 -29.331  12.028  0.00  0.00    +0.082 C 
ENDBRANCH   6  28
TORSDOF 7
ENDMDL
MODEL 6
REMARK VINA RESULT:      -5.7      5.561     10.037
REMARK  Name = *****
REMARK                            x       y       z     vdW  Elec       q    Type
REMARK                         _______ _______ _______ _____ _____    ______ ____
ROOT
ATOM      1  C   LIG    1       25.905 -29.497   8.819  0.00  0.00    -0.004 C 
ATOM      2  C   LIG    1       26.234 -30.844   8.610  0.00  0.00    -0.016 C 
ATOM      3  C   LIG    1       26.651 -31.799   9.651  0.00  0.00    +0.015 C 
ATOM      4  C   LIG    1       25.845 -32.872   9.913  0.00  0.00    +0.078 C 
ATOM      5  C   LIG    1       24.716 -33.015   8.951  0.00  0.00    +0.203 C 
ATOM      6  N   LIG    1       23.476 -33.368   9.289  0.00  0.00    -0.229 N 
ATOM      7  C   LIG    1       25.164 -32.710   7.545  0.00  0.00    +0.078 C 
ATOM      8  C   LIG    1       25.975 -31.622   7.420  0.00  0.00    +0.015 C 
ENDROOT
BRANCH   1  12
ATOM      9  C   LIG    1       26.019 -27.882  13.074  0.00  0.00    +0.030 A 
ATOM     10  C   LIG    1       25.053 -28.676  12.507  0.00  0.00    +0.024 A 
ATOM     11  C   LIG    1       25.032 -29.214  11.211  0.00  0.00    +0.010 A 
ATOM     12  C   LIG    1       25.998 -28.969  10.255  0.00  0.00    -0.017 A 
ATOM     13  C   LIG    1       27.015 -28.202  10.853  0.00  0.00    +0.010 A 
ATOM     14  C   LIG    1       26.993 -27.624  12.140  0.00  0.00    +0.024 A 
BRANCH   9  15
ATOM     15  N   LIG    1       26.047 -27.448  14.391  0.00  0.00    -0.330 N 
BRANCH  15  17
ATOM     16  C   LIG    1       24.771 -25.218  13.921  0.00  0.00    +0.024 C 
ATOM     17  C   LIG    1       25.282 -26.251  14.908  0.00  0.00    +0.102 C 
ENDBRANCH  15  17
BRANCH  15  18
ATOM     18  C   LIG    1       26.885 -28.068  15.483  0.00  0.00    +0.102 C 
ATOM     19  C   LIG    1       27.505 -29.452  15.271  0.00  0.00    +0.024 C 
ENDBRANCH  15  18
ENDBRANCH   9  15
ENDBRANCH   1  12
BRANCH   1  20
ATOM     20  C   LIG    1       25.433 -28.580   7.591  0.00  0.00    -0.017 A 
ATOM     21  C   LIG    1       25.930 -27.292   7.320  0.00  0.00    +0.008 A 
ATOM     22  C   LIG    1       25.473 -26.457   6.277  0.00  0.00    +0.001 A 
ATOM     23  C   LIG    1       24.563 -26.921   5.349  0.00  0.00    +0.000 A 
ATOM     24  C   LIG    1       24.074 -28.196   5.514  0.00  0.00    +0.001 A 
ATOM     25  C   LIG    1       24.441 -28.957   6.648  0.00  0.00    +0.008 A 
ENDBRANCH   1  20
BRANCH   6  26
ATOM     26  C   LIG    1       22.413 -33.549   8.244  0.00  0.00    +0.347 C 
ATOM     27  C   LIG    1       21.049 -33.798   8.862  0.00  0.00    +0.082 C 
ENDBRANCH   6  26
BRANCH   6  28
ATOM     28  C   LIG    1       23.053 -33.621  10.713  0.00  0.00    +0.347 C 
ATOM     29  C   LIG    1       22.825 -32.314  11.474  0.00  0.00    +0.082 C 
ENDBRANCH   6  28
TORSDOF 7
ENDMDL
MODEL 7
REMARK VINA RESULT:      -5.7      2.321      7.426
REMARK  Name = *****
REMARK                            x       y       z     vdW  Elec       q    Type
REMARK                         _______ _______ _______ _____ _____    ______ ____
ROOT
ATOM      1  C   LIG    1       25.445 -22.942   6.948  0.00  0.00    -0.004 C 
ATOM      2  C   LIG    1       24.212 -22.424   7.366  0.00  0.00    -0.016 C 
ATOM      3  C   LIG    1       23.996 -21.096   7.967  0.00  0.00    +0.015 C 
ATOM      4  C   LIG    1       23.235 -20.188   7.286  0.00  0.00    +0.078 C 
ATOM      5  C   LIG    1       22.568 -20.757   6.081  0.00  0.00    +0.203 C 
ATOM      6  N   LIG    1       22.443 -20.120   4.916  0.00  0.00    -0.229 N 
ATOM      7  C   LIG    1       22.053 -22.146   6.355  0.00  0.00    +0.078 C 
ATOM      8  C   LIG    1       22.903 -22.950   7.054  0.00  0.00    +0.015 C 
ENDROOT
BRANCH   1  12
ATOM      9  C   LIG    1       29.069 -20.287   7.685  0.00  0.00    +0.030 A 
ATOM     10  C   LIG    1       28.621 -21.324   8.465  0.00  0.00    +0.024 A 
ATOM     11  C   LIG    1       27.531 -22.175   8.222  0.00  0.00    +0.010 A 
ATOM     12  C   LIG    1       26.679 -22.054   7.142  0.00  0.00    -0.017 A 
ATOM     13  C   LIG    1       27.172 -21.028   6.315  0.00  0.00    +0.010 A 
ATOM     14  C   LIG    1       28.236 -20.147   6.601  0.00  0.00    +0.024 A 
BRANCH   9  15
ATOM     15  N   LIG    1       30.208 -19.530   7.913  0.00  0.00    -0.330 N 
BRANCH  15  17
ATOM     16  C   LIG    1       31.671 -21.414   8.979  0.00  0.00    +0.024 C 
ATOM     17  C   LIG    1       31.573 -20.114   8.202  0.00  0.00    +0.102 C 
ENDBRANCH  15  17
BRANCH  15  18
ATOM     18  C   LIG    1       30.243 -18.021   7.964  0.00  0.00    +0.102 C 
ATOM     19  C   LIG    1       30.397 -17.311   9.311  0.00  0.00    +0.024 C 
ENDBRANCH  15  18
ENDBRANCH   9  15
ENDBRANCH   1  12
BRANCH   1  20
ATOM     20  C   LIG    1       25.526 -24.397   6.276  0.00  0.00    -0.017 A 
ATOM     21  C   LIG    1       25.136 -24.689   4.957  0.00  0.00    +0.008 A 
ATOM     22  C   LIG    1       25.147 -25.979   4.382  0.00  0.00    +0.001 A 
ATOM     23  C   LIG    1       25.679 -27.051   5.068  0.00  0.00    +0.000 A 
ATOM     24  C   LIG    1       26.136 -26.832   6.346  0.00  0.00    +0.001 A 
ATOM     25  C   LIG    1       25.981 -25.561   6.948  0.00  0.00    +0.008 A 
ENDBRANCH   1  20
BRANCH   6  26
ATOM     26  C   LIG    1       21.701 -20.745   3.771  0.00  0.00    +0.347 C 
ATOM     27  C   LIG    1       20.289 -20.201   3.646  0.00  0.00    +0.082 C 
ENDBRANCH   6  26
BRANCH   6  28
ATOM     28  C   LIG    1       23.012 -18.748   4.664  0.00  0.00    +0.347 C 
ATOM     29  C   LIG    1       24.235 -18.804   3.747  0.00  0.00    +0.082 C 
ENDBRANCH   6  28
TORSDOF 7
ENDMDL
MODEL 8
REMARK VINA RESULT:      -5.5      6.564     10.573
REMARK  Name = *****
REMARK                            x       y       z     vdW  Elec       q    Type
REMARK                         _______ _______ _______ _____ _____    ______ ____
ROOT
ATOM      1  C   LIG    1       24.851 -30.502   9.626  0.00  0.00    -0.004 C 
ATOM      2  C   LIG    1       24.209 -31.652  10.106  0.00  0.00    -0.016 C 
ATOM      3  C   LIG    1       24.079 -32.037  11.522  0.00  0.00    +0.015 C 
ATOM      4  C   LIG    1       22.830 -32.087  12.073  0.00  0.00    +0.078 C 
ATOM      5  C   LIG    1       21.735 -31.912  11.078  0.00  0.00    +0.203 C 
ATOM      6  N   LIG    1       20.627 -31.202  11.292  0.00  0.00    -0.229 N 
ATOM      7  C   LIG    1       22.046 -32.646   9.800  0.00  0.00    +0.078 C 
ATOM      8  C   LIG    1       23.331 -32.526   9.363  0.00  0.00    +0.015 C 
ENDROOT
BRANCH   1  12
ATOM      9  C   LIG    1       26.598 -27.625  12.691  0.00  0.00    +0.030 A 
ATOM     10  C   LIG    1       25.303 -28.075  12.610  0.00  0.00    +0.024 A 
ATOM     11  C   LIG    1       24.767 -28.995  11.696  0.00  0.00    +0.010 A 
ATOM     12  C   LIG    1       25.483 -29.568  10.664  0.00  0.00    -0.017 A 
ATOM     13  C   LIG    1       26.821 -29.151  10.781  0.00  0.00    +0.010 A 
ATOM     14  C   LIG    1       27.332 -28.183  11.672  0.00  0.00    +0.024 A 
BRANCH   9  15
ATOM     15  N   LIG    1       27.109 -26.786  13.670  0.00  0.00    -0.330 N 
BRANCH  15  17
ATOM     16  C   LIG    1       27.833 -28.733  15.253  0.00  0.00    +0.024 C 
ATOM     17  C   LIG    1       27.880 -27.263  14.880  0.00  0.00    +0.102 C 
ENDBRANCH  15  17
BRANCH  15  18
ATOM     18  C   LIG    1       26.923 -25.288  13.702  0.00  0.00    +0.102 C 
ATOM     19  C   LIG    1       25.543 -24.701  14.009  0.00  0.00    +0.024 C 
ENDBRANCH  15  18
ENDBRANCH   9  15
ENDBRANCH   1  12
BRANCH   1  20
ATOM     20  C   LIG    1       24.885 -30.192   8.052  0.00  0.00    -0.017 A 
ATOM     21  C   LIG    1       25.439 -31.047   7.083  0.00  0.00    +0.008 A 
ATOM     22  C   LIG    1       25.526 -30.751   5.705  0.00  0.00    +0.001 A 
ATOM     23  C   LIG    1       24.938 -29.614   5.190  0.00  0.00    +0.000 A 
ATOM     24  C   LIG    1       24.323 -28.755   6.071  0.00  0.00    +0.001 A 
ATOM     25  C   LIG    1       24.376 -29.006   7.462  0.00  0.00    +0.008 A 
ENDBRANCH   1  20
BRANCH   6  26
ATOM     26  C   LIG    1       19.545 -31.129  10.254  0.00  0.00    +0.347 C 
ATOM     27  C   LIG    1       18.189 -31.509  10.821  0.00  0.00    +0.082 C 
ENDBRANCH   6  26
BRANCH   6  28
ATOM     28  C   LIG    1       20.371 -30.442  12.568  0.00  0.00    +0.347 C 
ATOM     29  C   LIG    1       20.967 -29.035  12.515  0.00  0.00    +0.082 C 
ENDBRANCH   6  28
TORSDOF 7
ENDMDL
MODEL 9
REMARK VINA RESULT:      -5.4      7.977      9.234
REMARK  Name = *****
REMARK                            x       y       z     vdW  Elec       q    Type
REMARK                         _______ _______ _______ _____ _____    ______ ____
ROOT
ATOM      1  C   LIG    1       23.612 -29.891  12.482  0.00  0.00    -0.004 C 
ATOM      2  C   LIG    1       24.298 -30.501  13.541  0.00  0.00    -0.016 C 
ATOM      3  C   LIG    1       25.266 -31.604  13.415  0.00  0.00    +0.015 C 
ATOM      4  C   LIG    1       26.567 -31.375  13.767  0.00  0.00    +0.078 C 
ATOM      5  C   LIG    1       26.782 -30.050  14.414  0.00  0.00    +0.203 C 
ATOM      6  N   LIG    1       27.832 -29.260  14.187  0.00  0.00    -0.229 N 
ATOM      7  C   LIG    1       25.656 -29.723  15.361  0.00  0.00    +0.078 C 
ATOM      8  C   LIG    1       24.408 -30.012  14.896  0.00  0.00    +0.015 C 
ENDROOT
BRANCH   1  12
ATOM      9  C   LIG    1       24.421 -31.318   8.235  0.00  0.00    +0.030 A 
ATOM     10  C   LIG    1       25.050 -30.299   8.908  0.00  0.00    +0.024 A 
ATOM     11  C   LIG    1       24.836 -29.882  10.231  0.00  0.00    +0.010 A 
ATOM     12  C   LIG    1       23.884 -30.424  11.071  0.00  0.00    -0.017 A 
ATOM     13  C   LIG    1       23.280 -31.504  10.400  0.00  0.00    +0.010 A 
ATOM     14  C   LIG    1       23.467 -31.875   9.052  0.00  0.00    +0.024 A 
BRANCH   9  15
ATOM     15  N   LIG    1       24.728 -31.760   6.957  0.00  0.00    -0.330 N 
BRANCH  15  17
ATOM     16  C   LIG    1       24.207 -33.264   4.886  0.00  0.00    +0.024 C 
ATOM     17  C   LIG    1       23.720 -32.353   5.998  0.00  0.00    +0.102 C 
ENDBRANCH  15  17
BRANCH  15  18
ATOM     18  C   LIG    1       26.114 -31.767   6.359  0.00  0.00    +0.102 C 
ATOM     19  C   LIG    1       27.218 -32.603   7.012  0.00  0.00    +0.024 C 
ENDBRANCH  15  18
ENDBRANCH   9  15
ENDBRANCH   1  12
BRANCH   1  20
ATOM     20  C   LIG    1       22.609 -28.671  12.764  0.00  0.00    -0.017 A 
ATOM     21  C   LIG    1       21.207 -28.766  12.726  0.00  0.00    +0.008 A 
ATOM     22  C   LIG    1       20.321 -27.682  12.913  0.00  0.00    +0.001 A 
ATOM     23  C   LIG    1       20.796 -26.440  13.282  0.00  0.00    +0.000 A 
ATOM     24  C   LIG    1       22.158 -26.282  13.398  0.00  0.00    +0.001 A 
ATOM     25  C   LIG    1       23.027 -27.348  13.065  0.00  0.00    +0.008 A 
ENDBRANCH   1  20
BRANCH   6  26
ATOM     26  C   LIG    1       27.999 -27.967  14.930  0.00  0.00    +0.347 C 
ATOM     27  C   LIG    1       27.343 -26.807  14.203  0.00  0.00    +0.082 C 
ENDBRANCH   6  26
BRANCH   6  28
ATOM     28  C   LIG    1       28.916 -29.599  13.197  0.00  0.00    +0.347 C 
ATOM     29  C   LIG    1       28.462 -29.355  11.757  0.00  0.00    +0.082 C 
ENDBRANCH   6  28
TORSDOF 7
ENDMDL
