MODEL 1
REMARK VINA RESULT:      -4.8      0.000      0.000
REMARK  Name = *****
REMARK                            x       y       z     vdW  Elec       q    Type
REMARK                         _______ _______ _______ _____ _____    ______ ____
ROOT
ATOM      1  C   LIG    1       24.812 -19.106   3.332  0.00  0.00    +0.067 C 
ATOM      2  C   LIG    1       24.803 -19.835   4.660  0.00  0.00    +0.061 C 
ATOM      3  N   LIG    1       23.539 -20.055   5.263  0.00  0.00    -0.351 NA
ATOM      4  C   LIG    1       22.294 -19.553   4.660  0.00  0.00    +0.149 C 
ATOM      5  C   LIG    1       23.474 -20.800   6.431  0.00  0.00    +0.089 C 
ATOM      6  C   LIG    1       24.523 -21.329   7.062  0.00  0.00    +0.072 C 
ATOM      7  C   LIG    1       25.864 -21.100   6.488  0.00  0.00    +0.223 C 
ATOM      8  O   LIG    1       26.851 -21.563   7.050  0.00  0.00    -0.284 OA
ATOM      9  C   LIG    1       25.953 -20.289   5.223  0.00  0.00    +0.183 C 
ENDROOT
BRANCH   9  10
ATOM     10  O   LIG    1       27.222 -20.073   4.718  0.00  0.00    -0.502 OA
ATOM     11  H   LIG    1       27.151 -19.746   3.810  0.00  0.00    +0.292 HD
ENDBRANCH   9  10
TORSDOF 1
ENDMDL
MODEL 2
REMARK VINA RESULT:      -4.8      1.220      2.956
REMARK  Name = *****
REMARK                            x       y       z     vdW  Elec       q    Type
REMARK                         _______ _______ _______ _____ _____    ______ ____
ROOT
ATOM      1  C   LIG    1       26.011 -21.504   7.043  0.00  0.00    +0.067 C 
ATOM      2  C   LIG    1       25.254 -20.786   5.945  0.00  0.00    +0.061 C 
ATOM      3  N   LIG    1       23.839 -20.824   6.011  0.00  0.00    -0.351 NA
ATOM      4  C   LIG    1       23.131 -21.571   7.062  0.00  0.00    +0.149 C 
ATOM      5  C   LIG    1       23.104 -20.101   5.082  0.00  0.00    +0.089 C 
ATOM      6  C   LIG    1       23.624 -19.367   4.097  0.00  0.00    +0.072 C 
ATOM      7  C   LIG    1       25.094 -19.322   3.970  0.00  0.00    +0.223 C 
ATOM      8  O   LIG    1       25.605 -18.665   3.068  0.00  0.00    -0.284 OA
ATOM      9  C   LIG    1       25.906 -20.105   4.967  0.00  0.00    +0.183 C 
ENDROOT
BRANCH   9  10
ATOM     10  O   LIG    1       27.280 -20.061   4.812  0.00  0.00    -0.502 OA
ATOM     11  H   LIG    1       27.491 -20.014   3.869  0.00  0.00    +0.292 HD
ENDBRANCH   9  10
TORSDOF 1
ENDMDL
MODEL 3
REMARK VINA RESULT:      -4.1      2.361      3.210
REMARK  Name = *****
REMARK                            x       y       z     vdW  Elec       q    Type
REMARK                         _______ _______ _______ _____ _____    ______ ____
ROOT
ATOM      1  C   LIG    1       26.516 -19.696   4.536  0.00  0.00    +0.067 C 
ATOM      2  C   LIG    1       25.292 -20.338   5.157  0.00  0.00    +0.061 C 
ATOM      3  N   LIG    1       25.469 -20.975   6.411  0.00  0.00    -0.351 NA
ATOM      4  C   LIG    1       26.786 -21.062   7.059  0.00  0.00    +0.149 C 
ATOM      5  C   LIG    1       24.358 -21.494   7.062  0.00  0.00    +0.089 C 
ATOM      6  C   LIG    1       23.110 -21.458   6.594  0.00  0.00    +0.072 C 
ATOM      7  C   LIG    1       22.882 -20.832   5.277  0.00  0.00    +0.223 C 
ATOM      8  O   LIG    1       21.747 -20.793   4.812  0.00  0.00    -0.284 OA
ATOM      9  C   LIG    1       24.077 -20.268   4.554  0.00  0.00    +0.183 C 
ENDROOT
BRANCH   9  10
ATOM     10  O   LIG    1       23.838 -19.706   3.314  0.00  0.00    -0.502 OA
ATOM     11  H   LIG    1       24.680 -19.587   2.852  0.00  0.00    +0.292 HD
ENDBRANCH   9  10
TORSDOF 1
ENDMDL
MODEL 4
REMARK VINA RESULT:      -3.9      2.295      3.811
REMARK  Name = *****
REMARK                            x       y       z     vdW  Elec       q    Type
REMARK                         _______ _______ _______ _____ _____    ______ ____
ROOT
ATOM      1  C   LIG    1       26.499 -21.005   7.062  0.00  0.00    +0.067 C 
ATOM      2  C   LIG    1       25.556 -20.545   5.969  0.00  0.00    +0.061 C 
ATOM      3  N   LIG    1       26.123 -19.804   4.902  0.00  0.00    -0.351 NA
ATOM      4  C   LIG    1       27.550 -19.448   4.877  0.00  0.00    +0.149 C 
ATOM      5  C   LIG    1       25.316 -19.443   3.832  0.00  0.00    +0.089 C 
ATOM      6  C   LIG    1       24.017 -19.725   3.724  0.00  0.00    +0.072 C 
ATOM      7  C   LIG    1       23.375 -20.468   4.826  0.00  0.00    +0.223 C 
ATOM      8  O   LIG    1       22.179 -20.733   4.763  0.00  0.00    -0.284 OA
ATOM      9  C   LIG    1       24.236 -20.863   5.997  0.00  0.00    +0.183 C 
ENDROOT
BRANCH   9  10
ATOM     10  O   LIG    1       23.605 -21.540   7.024  0.00  0.00    -0.502 OA
ATOM     11  H   LIG    1       24.019 -21.298   7.865  0.00  0.00    +0.292 HD
ENDBRANCH   9  10
TORSDOF 1
ENDMDL
MODEL 5
REMARK VINA RESULT:      -3.9      2.229      3.329
REMARK  Name = *****
REMARK                            x       y       z     vdW  Elec       q    Type
REMARK                         _______ _______ _______ _____ _____    ______ ____
ROOT
ATOM      1  C   LIG    1       28.037 -19.411   5.264  0.00  0.00    +0.067 C 
ATOM      2  C   LIG    1       26.641 -19.993   5.194  0.00  0.00    +0.061 C 
ATOM      3  N   LIG    1       26.328 -21.023   6.116  0.00  0.00    -0.351 NA
ATOM      4  C   LIG    1       27.325 -21.547   7.062  0.00  0.00    +0.149 C 
ATOM      5  C   LIG    1       25.033 -21.521   6.152  0.00  0.00    +0.089 C 
ATOM      6  C   LIG    1       24.034 -21.115   5.366  0.00  0.00    +0.072 C 
ATOM      7  C   LIG    1       24.320 -20.065   4.369  0.00  0.00    +0.223 C 
ATOM      8  O   LIG    1       23.427 -19.677   3.623  0.00  0.00    -0.284 OA
ATOM      9  C   LIG    1       25.722 -19.518   4.313  0.00  0.00    +0.183 C 
ENDROOT
BRANCH   9  10
ATOM     10  O   LIG    1       25.967 -18.550   3.356  0.00  0.00    -0.502 OA
ATOM     11  H   LIG    1       25.702 -18.887   2.489  0.00  0.00    +0.292 HD
ENDBRANCH   9  10
TORSDOF 1
ENDMDL
MODEL 6
REMARK VINA RESULT:      -3.8      2.253      3.034
REMARK  Name = *****
REMARK                            x       y       z     vdW  Elec       q    Type
REMARK                         _______ _______ _______ _____ _____    ______ ____
ROOT
ATOM      1  C   LIG    1       25.854 -18.873   3.686  0.00  0.00    +0.067 C 
ATOM      2  C   LIG    1       25.469 -19.829   4.796  0.00  0.00    +0.061 C 
ATOM      3  N   LIG    1       26.490 -20.198   5.708  0.00  0.00    -0.351 NA
ATOM      4  C   LIG    1       27.874 -19.722   5.558  0.00  0.00    +0.149 C 
ATOM      5  C   LIG    1       26.162 -20.996   6.795  0.00  0.00    +0.089 C 
ATOM      6  C   LIG    1       24.944 -21.472   7.056  0.00  0.00    +0.072 C 
ATOM      7  C   LIG    1       23.855 -21.140   6.116  0.00  0.00    +0.223 C 
ATOM      8  O   LIG    1       22.725 -21.571   6.321  0.00  0.00    -0.284 OA
ATOM      9  C   LIG    1       24.194 -20.279   4.929  0.00  0.00    +0.183 C 
ENDROOT
BRANCH   9  10
ATOM     10  O   LIG    1       23.160 -20.000   4.055  0.00  0.00    -0.502 OA
ATOM     11  H   LIG    1       22.898 -20.815   3.602  0.00  0.00    +0.292 HD
ENDBRANCH   9  10
TORSDOF 1
ENDMDL
MODEL 7
REMARK VINA RESULT:      -3.6      6.924      7.656
REMARK  Name = *****
REMARK                            x       y       z     vdW  Elec       q    Type
REMARK                         _______ _______ _______ _____ _____    ______ ____
ROOT
ATOM      1  C   LIG    1       24.467 -11.828   5.379  0.00  0.00    +0.067 C 
ATOM      2  C   LIG    1       25.269 -12.726   4.460  0.00  0.00    +0.061 C 
ATOM      3  N   LIG    1       24.928 -12.705   3.084  0.00  0.00    -0.351 NA
ATOM      4  C   LIG    1       23.813 -11.893   2.574  0.00  0.00    +0.149 C 
ATOM      5  C   LIG    1       25.696 -13.439   2.191  0.00  0.00    +0.089 C 
ATOM      6  C   LIG    1       26.744 -14.194   2.523  0.00  0.00    +0.072 C 
ATOM      7  C   LIG    1       27.118 -14.272   3.948  0.00  0.00    +0.223 C 
ATOM      8  O   LIG    1       28.069 -14.967   4.289  0.00  0.00    -0.284 OA
ATOM      9  C   LIG    1       26.291 -13.486   4.932  0.00  0.00    +0.183 C 
ENDROOT
BRANCH   9  10
ATOM     10  O   LIG    1       26.651 -13.593   6.263  0.00  0.00    -0.502 OA
ATOM     11  H   LIG    1       26.994 -12.741   6.568  0.00  0.00    +0.292 HD
ENDBRANCH   9  10
TORSDOF 1
ENDMDL
MODEL 8
REMARK VINA RESULT:      -3.2      1.889      3.123
REMARK  Name = *****
REMARK                            x       y       z     vdW  Elec       q    Type
REMARK                         _______ _______ _______ _____ _____    ______ ____
ROOT
ATOM      1  C   LIG    1       21.866 -20.235   5.016  0.00  0.00    +0.067 C 
ATOM      2  C   LIG    1       23.373 -20.078   5.027  0.00  0.00    +0.061 C 
ATOM      3  N   LIG    1       24.083 -20.775   6.036  0.00  0.00    -0.351 NA
ATOM      4  C   LIG    1       23.393 -21.572   7.062  0.00  0.00    +0.149 C 
ATOM      5  C   LIG    1       25.471 -20.737   6.027  0.00  0.00    +0.089 C 
ATOM      6  C   LIG    1       26.213 -20.074   5.140  0.00  0.00    +0.072 C 
ATOM      7  C   LIG    1       25.517 -19.307   4.089  0.00  0.00    +0.223 C 
ATOM      8  O   LIG    1       26.170 -18.676   3.265  0.00  0.00    -0.284 OA
ATOM      9  C   LIG    1       24.011 -19.333   4.087  0.00  0.00    +0.183 C 
ENDROOT
BRANCH   9  10
ATOM     10  O   LIG    1       23.384 -18.590   3.104  0.00  0.00    -0.502 OA
ATOM     11  H   LIG    1       23.273 -17.680   3.415  0.00  0.00    +0.292 HD
ENDBRANCH   9  10
TORSDOF 1
ENDMDL
MODEL 9
REMARK VINA RESULT:      -3.1      1.375      2.779
REMARK  Name = *****
REMARK                            x       y       z     vdW  Elec       q    Type
REMARK                         _______ _______ _______ _____ _____    ______ ____
ROOT
ATOM      1  C   LIG    1       22.363 -20.821   5.681  0.00  0.00    +0.067 C 
ATOM      2  C   LIG    1       23.533 -20.147   4.995  0.00  0.00    +0.061 C 
ATOM      3  N   LIG    1       23.231 -19.087   4.104  0.00  0.00    -0.351 NA
ATOM      4  C   LIG    1       21.845 -18.689   3.812  0.00  0.00    +0.149 C 
ATOM      5  C   LIG    1       24.275 -18.378   3.526  0.00  0.00    +0.089 C 
ATOM      6  C   LIG    1       25.571 -18.623   3.727  0.00  0.00    +0.072 C 
ATOM      7  C   LIG    1       25.934 -19.738   4.623  0.00  0.00    +0.223 C 
ATOM      8  O   LIG    1       27.117 -19.997   4.820  0.00  0.00    -0.284 OA
ATOM      9  C   LIG    1       24.813 -20.520   5.255  0.00  0.00    +0.183 C 
ENDROOT
BRANCH   9  10
ATOM     10  O   LIG    1       25.182 -21.572   6.074  0.00  0.00    -0.502 OA
ATOM     11  H   LIG    1       24.423 -21.835   6.614  0.00  0.00    +0.292 HD
ENDBRANCH   9  10
TORSDOF 1
ENDMDL
