MODEL 1
REMARK VINA RESULT:      -4.6      0.000      0.000
REMARK  Name = *****
REMARK                            x       y       z     vdW  Elec       q    Type
REMARK                         _______ _______ _______ _____ _____    ______ ____
ROOT
ATOM      1  C   LIG    1       23.354 -30.597  10.854  0.00  0.00    +0.066 A 
ATOM      2  C   LIG    1       24.466 -30.238  10.048  0.00  0.00    +0.042 A 
ATOM      3  I   LIG    1       24.467 -30.646   7.945  0.00  0.00    -0.042 I 
ATOM      4  C   LIG    1       25.540 -29.473  10.602  0.00  0.00    +0.087 A 
ATOM      5  C   LIG    1       25.376 -28.856  11.864  0.00  0.00    +0.051 A 
ATOM      6  I   LIG    1       26.694 -27.278  12.500  0.00  0.00    -0.041 I 
ATOM      7  C   LIG    1       24.257 -29.150  12.657  0.00  0.00    +0.061 A 
ATOM      8  C   LIG    1       23.347 -30.128  12.193  0.00  0.00    +0.049 A 
ATOM      9  I   LIG    1       22.283 -31.263  13.729  0.00  0.00    -0.041 I 
ENDROOT
BRANCH   1  13
ATOM     10  C   LIG    1       20.895 -33.364   9.704  0.00  0.00    +0.128 C 
ATOM     11  N   LIG    1       22.073 -32.645  10.172  0.00  0.00    -0.314 N 
ATOM     12  H   LIG    1       22.921 -33.182  10.276  0.00  0.00    +0.149 HD
ATOM     13  C   LIG    1       22.091 -31.279  10.373  0.00  0.00    +0.246 C 
ATOM     14  O   LIG    1       21.096 -30.591  10.160  0.00  0.00    -0.270 OA
ENDBRANCH   1  13
BRANCH   7  15
ATOM     15  N   LIG    1       24.051 -28.478  13.898  0.00  0.00    -0.284 N 
ATOM     16  H   LIG    1       24.836 -28.440  14.540  0.00  0.00    +0.155 HD
ATOM     17  C   LIG    1       23.195 -27.381  13.962  0.00  0.00    +0.214 C 
ATOM     18  O   LIG    1       22.623 -26.885  12.996  0.00  0.00    -0.276 OA
ATOM     19  C   LIG    1       23.069 -26.794  15.344  0.00  0.00    +0.109 C 
ENDBRANCH   7  15
BRANCH   4  20
ATOM     20  C   LIG    1       26.912 -29.462  10.021  0.00  0.00    +0.339 C 
ATOM     21  O   LIG    1       27.784 -30.225  10.449  0.00  0.00    -0.245 OA
BRANCH  20  22
ATOM     22  O   LIG    1       27.162 -28.567   9.061  0.00  0.00    -0.477 OA
ATOM     23  H   LIG    1       26.603 -27.764   9.086  0.00  0.00    +0.295 HD
ENDBRANCH  20  22
ENDBRANCH   4  20
TORSDOF 4
ENDMDL
MODEL 2
REMARK VINA RESULT:      -4.2      2.220      2.513
REMARK  Name = *****
REMARK                            x       y       z     vdW  Elec       q    Type
REMARK                         _______ _______ _______ _____ _____    ______ ____
ROOT
ATOM      1  C   LIG    1       24.062 -29.730  11.555  0.00  0.00    +0.066 A 
ATOM      2  C   LIG    1       25.251 -28.955  11.577  0.00  0.00    +0.042 A 
ATOM      3  I   LIG    1       26.585 -28.954   9.901  0.00  0.00    -0.042 I 
ATOM      4  C   LIG    1       25.503 -28.054  12.659  0.00  0.00    +0.087 A 
ATOM      5  C   LIG    1       24.461 -27.744  13.564  0.00  0.00    +0.051 A 
ATOM      6  I   LIG    1       24.593 -26.025  14.852  0.00  0.00    -0.041 I 
ATOM      7  C   LIG    1       23.255 -28.457  13.527  0.00  0.00    +0.061 A 
ATOM      8  C   LIG    1       23.142 -29.535  12.617  0.00  0.00    +0.049 A 
ATOM      9  I   LIG    1       21.818 -31.168  13.214  0.00  0.00    -0.041 I 
ENDROOT
BRANCH   1  13
ATOM     10  C   LIG    1       23.708 -32.792   9.204  0.00  0.00    +0.128 C 
ATOM     11  N   LIG    1       24.106 -31.892  10.279  0.00  0.00    -0.314 N 
ATOM     12  H   LIG    1       24.839 -32.213  10.894  0.00  0.00    +0.149 HD
ATOM     13  C   LIG    1       23.599 -30.615  10.417  0.00  0.00    +0.246 C 
ATOM     14  O   LIG    1       22.776 -30.166   9.623  0.00  0.00    -0.270 OA
ENDBRANCH   1  13
BRANCH   7  15
ATOM     15  N   LIG    1       22.175 -28.102  14.389  0.00  0.00    -0.284 N 
ATOM     16  H   LIG    1       22.382 -28.018  15.379  0.00  0.00    +0.155 HD
ATOM     17  C   LIG    1       21.169 -27.255  13.932  0.00  0.00    +0.214 C 
ATOM     18  O   LIG    1       21.157 -26.718  12.828  0.00  0.00    -0.276 OA
ATOM     19  C   LIG    1       20.092 -26.991  14.953  0.00  0.00    +0.109 C 
ENDBRANCH   7  15
BRANCH   4  20
ATOM     20  C   LIG    1       26.870 -27.583  13.020  0.00  0.00    +0.339 C 
ATOM     21  O   LIG    1       27.572 -28.227  13.805  0.00  0.00    -0.245 OA
BRANCH  20  22
ATOM     22  O   LIG    1       27.274 -26.421  12.498  0.00  0.00    -0.477 OA
ATOM     23  H   LIG    1       27.407 -25.699  13.145  0.00  0.00    +0.295 HD
ENDBRANCH  20  22
ENDBRANCH   4  20
TORSDOF 4
ENDMDL
MODEL 3
REMARK VINA RESULT:      -4.1      2.963      4.945
REMARK  Name = *****
REMARK                            x       y       z     vdW  Elec       q    Type
REMARK                         _______ _______ _______ _____ _____    ______ ____
ROOT
ATOM      1  C   LIG    1       24.644 -28.513  12.340  0.00  0.00    +0.066 A 
ATOM      2  C   LIG    1       24.964 -29.351  11.239  0.00  0.00    +0.042 A 
ATOM      3  I   LIG    1       27.004 -29.676  10.671  0.00  0.00    -0.042 I 
ATOM      4  C   LIG    1       23.939 -30.101  10.583  0.00  0.00    +0.087 A 
ATOM      5  C   LIG    1       22.664 -30.212  11.186  0.00  0.00    +0.051 A 
ATOM      6  I   LIG    1       21.276 -31.732  10.560  0.00  0.00    -0.041 I 
ATOM      7  C   LIG    1       22.341 -29.436  12.308  0.00  0.00    +0.061 A 
ATOM      8  C   LIG    1       23.292 -28.495  12.768  0.00  0.00    +0.049 A 
ATOM      9  I   LIG    1       22.493 -26.713  13.749  0.00  0.00    -0.041 I 
ENDROOT
BRANCH   1  13
ATOM     10  C   LIG    1       27.116 -25.800  13.589  0.00  0.00    +0.128 C 
ATOM     11  N   LIG    1       26.153 -26.560  12.802  0.00  0.00    -0.314 N 
ATOM     12  H   LIG    1       25.925 -26.197  11.888  0.00  0.00    +0.149 HD
ATOM     13  C   LIG    1       25.637 -27.773  13.212  0.00  0.00    +0.246 C 
ATOM     14  O   LIG    1       25.974 -28.282  14.278  0.00  0.00    -0.270 OA
ENDBRANCH   1  13
BRANCH   7  15
ATOM     15  N   LIG    1       21.084 -29.595  12.963  0.00  0.00    -0.284 N 
ATOM     16  H   LIG    1       20.255 -29.604  12.377  0.00  0.00    +0.155 HD
ATOM     17  C   LIG    1       20.990 -30.376  14.112  0.00  0.00    +0.214 C 
ATOM     18  O   LIG    1       21.920 -31.012  14.601  0.00  0.00    -0.276 OA
ATOM     19  C   LIG    1       19.601 -30.429  14.694  0.00  0.00    +0.109 C 
ENDBRANCH   7  15
BRANCH   4  20
ATOM     20  C   LIG    1       24.067 -30.600   9.185  0.00  0.00    +0.339 C 
ATOM     21  O   LIG    1       23.686 -29.914   8.232  0.00  0.00    -0.245 OA
BRANCH  20  22
ATOM     22  O   LIG    1       24.564 -31.830   9.019  0.00  0.00    -0.477 OA
ATOM     23  H   LIG    1       25.360 -32.031   9.551  0.00  0.00    +0.295 HD
ENDBRANCH  20  22
ENDBRANCH   4  20
TORSDOF 4
ENDMDL
MODEL 4
REMARK VINA RESULT:      -4.1      2.474      4.484
REMARK  Name = *****
REMARK                            x       y       z     vdW  Elec       q    Type
REMARK                         _______ _______ _______ _____ _____    ______ ____
ROOT
ATOM      1  C   LIG    1       23.668 -30.124  10.587  0.00  0.00    +0.066 A 
ATOM      2  C   LIG    1       22.518 -29.880  11.384  0.00  0.00    +0.042 A 
ATOM      3  I   LIG    1       20.658 -30.848  10.943  0.00  0.00    -0.042 I 
ATOM      4  C   LIG    1       22.621 -29.095  12.575  0.00  0.00    +0.087 A 
ATOM      5  C   LIG    1       23.899 -28.784  13.095  0.00  0.00    +0.051 A 
ATOM      6  I   LIG    1       24.128 -28.101  15.123  0.00  0.00    -0.041 I 
ATOM      7  C   LIG    1       25.054 -29.066  12.353  0.00  0.00    +0.061 A 
ATOM      8  C   LIG    1       24.900 -29.595  11.050  0.00  0.00    +0.049 A 
ATOM      9  I   LIG    1       26.470 -29.098   9.613  0.00  0.00    -0.041 I 
ENDROOT
BRANCH   1  13
ATOM     10  C   LIG    1       24.321 -33.262   8.407  0.00  0.00    +0.128 C 
ATOM     11  N   LIG    1       24.221 -32.329   9.522  0.00  0.00    -0.314 N 
ATOM     12  H   LIG    1       24.597 -32.636  10.407  0.00  0.00    +0.149 HD
ATOM     13  C   LIG    1       23.737 -31.043   9.386  0.00  0.00    +0.246 C 
ATOM     14  O   LIG    1       23.364 -30.614   8.297  0.00  0.00    -0.270 OA
ENDBRANCH   1  13
BRANCH   7  15
ATOM     15  N   LIG    1       26.347 -28.820  12.902  0.00  0.00    -0.284 N 
ATOM     16  H   LIG    1       26.479 -27.948  13.404  0.00  0.00    +0.155 HD
ATOM     17  C   LIG    1       27.118 -29.881  13.371  0.00  0.00    +0.214 C 
ATOM     18  O   LIG    1       26.746 -31.051  13.408  0.00  0.00    -0.276 OA
ATOM     19  C   LIG    1       28.464 -29.461  13.902  0.00  0.00    +0.109 C 
ENDBRANCH   7  15
BRANCH   4  20
ATOM     20  C   LIG    1       21.457 -28.397  13.189  0.00  0.00    +0.339 C 
ATOM     21  O   LIG    1       21.158 -27.248  12.849  0.00  0.00    -0.245 OA
BRANCH  20  22
ATOM     22  O   LIG    1       20.789 -29.048  14.147  0.00  0.00    -0.477 OA
ATOM     23  H   LIG    1       20.354 -29.876  13.860  0.00  0.00    +0.295 HD
ENDBRANCH  20  22
ENDBRANCH   4  20
TORSDOF 4
ENDMDL
MODEL 5
REMARK VINA RESULT:      -3.9      2.882      4.822
REMARK  Name = *****
REMARK                            x       y       z     vdW  Elec       q    Type
REMARK                         _______ _______ _______ _____ _____    ______ ____
ROOT
ATOM      1  C   LIG    1       24.272 -31.164   8.867  0.00  0.00    +0.066 A 
ATOM      2  C   LIG    1       24.934 -30.505   9.936  0.00  0.00    +0.042 A 
ATOM      3  I   LIG    1       26.396 -28.989   9.547  0.00  0.00    -0.042 I 
ATOM      4  C   LIG    1       24.532 -30.743  11.288  0.00  0.00    +0.087 A 
ATOM      5  C   LIG    1       23.319 -31.424  11.543  0.00  0.00    +0.051 A 
ATOM      6  I   LIG    1       22.393 -31.339  13.484  0.00  0.00    -0.041 I 
ATOM      7  C   LIG    1       22.616 -32.036  10.496  0.00  0.00    +0.061 A 
ATOM      8  C   LIG    1       23.189 -32.016   9.203  0.00  0.00    +0.049 A 
ATOM      9  I   LIG    1       22.697 -33.701   7.901  0.00  0.00    -0.041 I 
ENDROOT
BRANCH   1  13
ATOM     10  C   LIG    1       25.840 -31.277   5.324  0.00  0.00    +0.128 C 
ATOM     11  N   LIG    1       25.565 -31.487   6.739  0.00  0.00    -0.314 N 
ATOM     12  H   LIG    1       26.242 -32.025   7.260  0.00  0.00    +0.149 HD
ATOM     13  C   LIG    1       24.494 -30.907   7.391  0.00  0.00    +0.246 C 
ATOM     14  O   LIG    1       23.710 -30.170   6.799  0.00  0.00    -0.270 OA
ENDBRANCH   1  13
BRANCH   7  15
ATOM     15  N   LIG    1       21.357 -32.663  10.736  0.00  0.00    -0.284 N 
ATOM     16  H   LIG    1       21.309 -33.326  11.503  0.00  0.00    +0.155 HD
ATOM     17  C   LIG    1       20.175 -31.967  10.496  0.00  0.00    +0.214 C 
ATOM     18  O   LIG    1       20.117 -30.795  10.135  0.00  0.00    -0.276 OA
ATOM     19  C   LIG    1       18.933 -32.771  10.780  0.00  0.00    +0.109 C 
ENDBRANCH   7  15
BRANCH   4  20
ATOM     20  C   LIG    1       25.427 -30.504  12.454  0.00  0.00    +0.339 C 
ATOM     21  O   LIG    1       25.433 -29.412  13.032  0.00  0.00    -0.245 OA
BRANCH  20  22
ATOM     22  O   LIG    1       26.247 -31.498  12.809  0.00  0.00    -0.477 OA
ATOM     23  H   LIG    1       25.980 -32.386  12.498  0.00  0.00    +0.295 HD
ENDBRANCH  20  22
ENDBRANCH   4  20
TORSDOF 4
ENDMDL
MODEL 6
REMARK VINA RESULT:      -3.9      2.497      4.750
REMARK  Name = *****
REMARK                            x       y       z     vdW  Elec       q    Type
REMARK                         _______ _______ _______ _____ _____    ______ ____
ROOT
ATOM      1  C   LIG    1       21.599 -30.552  11.821  0.00  0.00    +0.066 A 
ATOM      2  C   LIG    1       20.807 -29.739  12.674  0.00  0.00    +0.042 A 
ATOM      3  I   LIG    1       18.974 -30.480  13.498  0.00  0.00    -0.042 I 
ATOM      4  C   LIG    1       21.292 -28.465  13.108  0.00  0.00    +0.087 A 
ATOM      5  C   LIG    1       22.652 -28.133  12.905  0.00  0.00    +0.051 A 
ATOM      6  I   LIG    1       23.566 -26.515  13.990  0.00  0.00    -0.041 I 
ATOM      7  C   LIG    1       23.471 -28.949  12.112  0.00  0.00    +0.061 A 
ATOM      8  C   LIG    1       22.882 -30.063  11.468  0.00  0.00    +0.049 A 
ATOM      9  I   LIG    1       23.788 -30.673   9.575  0.00  0.00    -0.041 I 
ENDROOT
BRANCH   1  13
ATOM     10  C   LIG    1       20.065 -33.538   9.883  0.00  0.00    +0.128 C 
ATOM     11  N   LIG    1       20.420 -32.201  10.338  0.00  0.00    -0.314 N 
ATOM     12  H   LIG    1       19.950 -31.428   9.892  0.00  0.00    +0.149 HD
ATOM     13  C   LIG    1       21.278 -31.970  11.396  0.00  0.00    +0.246 C 
ATOM     14  O   LIG    1       21.788 -32.898  12.017  0.00  0.00    -0.270 OA
ENDBRANCH   1  13
BRANCH   7  15
ATOM     15  N   LIG    1       24.859 -28.657  11.962  0.00  0.00    -0.284 N 
ATOM     16  H   LIG    1       25.108 -27.700  11.733  0.00  0.00    +0.155 HD
ATOM     17  C   LIG    1       25.800 -29.334  12.733  0.00  0.00    +0.214 C 
ATOM     18  O   LIG    1       25.528 -30.152  13.608  0.00  0.00    -0.276 OA
ATOM     19  C   LIG    1       27.222 -28.927  12.444  0.00  0.00    +0.109 C 
ENDBRANCH   7  15
BRANCH   4  20
ATOM     20  C   LIG    1       20.394 -27.372  13.574  0.00  0.00    +0.339 C 
ATOM     21  O   LIG    1       20.110 -27.254  14.770  0.00  0.00    -0.245 OA
BRANCH  20  22
ATOM     22  O   LIG    1       19.880 -26.564  12.641  0.00  0.00    -0.477 OA
ATOM     23  H   LIG    1       19.643 -25.668  12.953  0.00  0.00    +0.295 HD
ENDBRANCH  20  22
ENDBRANCH   4  20
TORSDOF 4
ENDMDL
MODEL 7
REMARK VINA RESULT:      -3.9      2.091      2.388
REMARK  Name = *****
REMARK                            x       y       z     vdW  Elec       q    Type
REMARK                         _______ _______ _______ _____ _____    ______ ____
ROOT
ATOM      1  C   LIG    1       21.822 -30.526  11.714  0.00  0.00    +0.066 A 
ATOM      2  C   LIG    1       23.095 -30.214  11.166  0.00  0.00    +0.042 A 
ATOM      3  I   LIG    1       23.624 -30.862   9.194  0.00  0.00    -0.042 I 
ATOM      4  C   LIG    1       23.986 -29.342  11.867  0.00  0.00    +0.087 A 
ATOM      5  C   LIG    1       23.504 -28.591  12.965  0.00  0.00    +0.051 A 
ATOM      6  I   LIG    1       24.600 -26.894  13.705  0.00  0.00    -0.041 I 
ATOM      7  C   LIG    1       22.229 -28.841  13.490  0.00  0.00    +0.061 A 
ATOM      8  C   LIG    1       21.476 -29.907  12.942  0.00  0.00    +0.049 A 
ATOM      9  I   LIG    1       20.081 -30.902  14.298  0.00  0.00    -0.041 I 
ENDROOT
BRANCH   1  13
ATOM     10  C   LIG    1       18.531 -31.368   9.847  0.00  0.00    +0.128 C 
ATOM     11  N   LIG    1       19.621 -30.669  10.514  0.00  0.00    -0.314 N 
ATOM     12  H   LIG    1       19.503 -29.677  10.662  0.00  0.00    +0.149 HD
ATOM     13  C   LIG    1       20.729 -31.316  11.025  0.00  0.00    +0.246 C 
ATOM     14  O   LIG    1       20.849 -32.535  10.943  0.00  0.00    -0.270 OA
ENDBRANCH   1  13
BRANCH   7  15
ATOM     15  N   LIG    1       21.711 -28.041  14.550  0.00  0.00    -0.284 N 
ATOM     16  H   LIG    1       22.328 -27.854  15.334  0.00  0.00    +0.155 HD
ATOM     17  C   LIG    1       20.800 -27.023  14.274  0.00  0.00    +0.214 C 
ATOM     18  O   LIG    1       20.432 -26.704  13.147  0.00  0.00    -0.276 OA
ATOM     19  C   LIG    1       20.333 -26.282  15.500  0.00  0.00    +0.109 C 
ENDBRANCH   7  15
BRANCH   4  20
ATOM     20  C   LIG    1       25.459 -29.338  11.644  0.00  0.00    +0.339 C 
ATOM     21  O   LIG    1       25.966 -28.603  10.791  0.00  0.00    -0.245 OA
BRANCH  20  22
ATOM     22  O   LIG    1       26.189 -30.192  12.367  0.00  0.00    -0.477 OA
ATOM     23  H   LIG    1       25.718 -30.999  12.657  0.00  0.00    +0.295 HD
ENDBRANCH  20  22
ENDBRANCH   4  20
TORSDOF 4
ENDMDL
MODEL 8
REMARK VINA RESULT:      -3.9      2.936      3.989
REMARK  Name = *****
REMARK                            x       y       z     vdW  Elec       q    Type
REMARK                         _______ _______ _______ _____ _____    ______ ____
ROOT
ATOM      1  C   LIG    1       22.460 -28.296  13.014  0.00  0.00    +0.066 A 
ATOM      2  C   LIG    1       22.839 -29.379  12.177  0.00  0.00    +0.042 A 
ATOM      3  I   LIG    1       21.356 -30.564  11.185  0.00  0.00    -0.042 I 
ATOM      4  C   LIG    1       24.218 -29.603  11.871  0.00  0.00    +0.087 A 
ATOM      5  C   LIG    1       25.172 -28.607  12.183  0.00  0.00    +0.051 A 
ATOM      6  I   LIG    1       27.126 -28.629  11.283  0.00  0.00    -0.041 I 
ATOM      7  C   LIG    1       24.810 -27.499  12.962  0.00  0.00    +0.061 A 
ATOM      8  C   LIG    1       23.495 -27.447  13.483  0.00  0.00    +0.049 A 
ATOM      9  I   LIG    1       23.247 -26.387  15.378  0.00  0.00    -0.041 I 
ENDROOT
BRANCH   1  13
ATOM     10  C   LIG    1       18.901 -28.191  14.544  0.00  0.00    +0.128 C 
ATOM     11  N   LIG    1       20.273 -28.556  14.218  0.00  0.00    -0.314 N 
ATOM     12  H   LIG    1       20.629 -29.404  14.634  0.00  0.00    +0.149 HD
ATOM     13  C   LIG    1       21.042 -27.856  13.310  0.00  0.00    +0.246 C 
ATOM     14  O   LIG    1       20.597 -26.876  12.719  0.00  0.00    -0.270 OA
ENDBRANCH   1  13
BRANCH   7  15
ATOM     15  N   LIG    1       25.748 -26.456  13.221  0.00  0.00    -0.284 N 
ATOM     16  H   LIG    1       25.429 -25.502  13.085  0.00  0.00    +0.155 HD
ATOM     17  C   LIG    1       26.703 -26.611  14.223  0.00  0.00    +0.214 C 
ATOM     18  O   LIG    1       26.777 -27.581  14.972  0.00  0.00    -0.276 OA
ATOM     19  C   LIG    1       27.630 -25.432  14.361  0.00  0.00    +0.109 C 
ENDBRANCH   7  15
BRANCH   4  20
ATOM     20  C   LIG    1       24.746 -30.926  11.433  0.00  0.00    +0.339 C 
ATOM     21  O   LIG    1       25.143 -31.752  12.260  0.00  0.00    -0.245 OA
BRANCH  20  22
ATOM     22  O   LIG    1       24.813 -31.152  10.117  0.00  0.00    -0.477 OA
ATOM     23  H   LIG    1       24.957 -32.086   9.863  0.00  0.00    +0.295 HD
ENDBRANCH  20  22
ENDBRANCH   4  20
TORSDOF 4
ENDMDL
MODEL 9
REMARK VINA RESULT:      -3.7      1.797      4.948
REMARK  Name = *****
REMARK                            x       y       z     vdW  Elec       q    Type
REMARK                         _______ _______ _______ _____ _____    ______ ____
ROOT
ATOM      1  C   LIG    1       24.120 -29.123  12.134  0.00  0.00    +0.066 A 
ATOM      2  C   LIG    1       24.992 -29.280  11.024  0.00  0.00    +0.042 A 
ATOM      3  I   LIG    1       26.951 -28.412  11.042  0.00  0.00    -0.042 I 
ATOM      4  C   LIG    1       24.629 -30.138   9.939  0.00  0.00    +0.087 A 
ATOM      5  C   LIG    1       23.536 -31.023  10.088  0.00  0.00    +0.051 A 
ATOM      6  I   LIG    1       23.274 -32.688   8.750  0.00  0.00    -0.041 I 
ATOM      7  C   LIG    1       22.691 -30.926  11.203  0.00  0.00    +0.061 A 
ATOM      8  C   LIG    1       22.920 -29.878  12.126  0.00  0.00    +0.049 A 
ATOM      9  I   LIG    1       21.165 -29.127  13.189  0.00  0.00    -0.041 I 
ENDROOT
BRANCH   1  13
ATOM     10  C   LIG    1       24.596 -26.197  14.632  0.00  0.00    +0.128 C 
ATOM     11  N   LIG    1       24.308 -26.989  13.443  0.00  0.00    -0.314 N 
ATOM     12  H   LIG    1       24.080 -26.480  12.601  0.00  0.00    +0.149 HD
ATOM     13  C   LIG    1       24.431 -28.364  13.406  0.00  0.00    +0.246 C 
ATOM     14  O   LIG    1       24.800 -28.997  14.392  0.00  0.00    -0.270 OA
ENDBRANCH   1  13
BRANCH   7  15
ATOM     15  N   LIG    1       21.631 -31.860  11.394  0.00  0.00    -0.284 N 
ATOM     16  H   LIG    1       21.567 -32.309  12.302  0.00  0.00    +0.155 HD
ATOM     17  C   LIG    1       20.408 -31.665  10.756  0.00  0.00    +0.214 C 
ATOM     18  O   LIG    1       20.131 -30.692  10.060  0.00  0.00    -0.276 OA
ATOM     19  C   LIG    1       19.398 -32.746  11.044  0.00  0.00    +0.109 C 
ENDBRANCH   7  15
BRANCH   4  20
ATOM     20  C   LIG    1       25.204 -30.003   8.571  0.00  0.00    +0.339 C 
ATOM     21  O   LIG    1       24.639 -29.318   7.713  0.00  0.00    -0.245 OA
BRANCH  20  22
ATOM     22  O   LIG    1       26.320 -30.690   8.307  0.00  0.00    -0.477 OA
ATOM     23  H   LIG    1       26.601 -31.311   9.009  0.00  0.00    +0.295 HD
ENDBRANCH  20  22
ENDBRANCH   4  20
TORSDOF 4
ENDMDL
