MODEL 1
REMARK VINA RESULT:      -4.3      0.000      0.000
REMARK  Name = *****
REMARK                            x       y       z     vdW  Elec       q    Type
REMARK                         _______ _______ _______ _____ _____    ______ ____
ROOT
ATOM      1  C   LIG    1       26.106 -14.857   3.210  0.00  0.00    +0.095 C 
ENDROOT
BRANCH   1   2
ATOM      2  C   LIG    1       24.578 -14.447   3.271  0.00  0.00    +0.025 C 
ATOM      3  C   LIG    1       24.093 -13.894   4.637  0.00  0.00    +0.006 C 
ATOM      4  C   LIG    1       24.361 -12.414   4.887  0.00  0.00    +0.000 C 
ATOM      5  C   LIG    1       23.893 -11.540   3.734  0.00  0.00    +0.000 C 
ATOM      6  C   LIG    1       24.426 -12.026   2.391  0.00  0.00    +0.000 C 
ATOM      7  C   LIG    1       24.091 -13.494   2.158  0.00  0.00    +0.006 C 
ENDBRANCH   1   2
BRANCH   1   8
ATOM      8  C   LIG    1       27.040 -13.896   3.987  0.00  0.00    -0.016 A 
ATOM      9  C   LIG    1       28.003 -13.103   3.342  0.00  0.00    +0.006 A 
ATOM     10  C   LIG    1       28.856 -12.268   4.076  0.00  0.00    +0.000 A 
ATOM     11  C   LIG    1       28.771 -12.203   5.462  0.00  0.00    +0.000 A 
ATOM     12  C   LIG    1       27.825 -12.974   6.127  0.00  0.00    +0.000 A 
ATOM     13  C   LIG    1       26.982 -13.812   5.397  0.00  0.00    +0.006 A 
ENDBRANCH   1   8
BRANCH   1  14
ATOM     14  O   LIG    1       26.513 -14.874   1.833  0.00  0.00    -0.384 OA
ATOM     15  H   LIG    1       27.477 -14.975   1.811  0.00  0.00    +0.211 HD
ENDBRANCH   1  14
BRANCH   1  16
ATOM     16  C   LIG    1       26.348 -16.316   3.703  0.00  0.00    +0.055 C 
BRANCH  16  17
ATOM     17  C   LIG    1       25.549 -17.417   2.982  0.00  0.00    +0.087 C 
BRANCH  17  18
ATOM     18  N   LIG    1       24.912 -18.355   3.918  0.00  0.00    -0.302 NA
ATOM     19  C   LIG    1       23.455 -18.413   3.784  0.00  0.00    +0.084 C 
ATOM     20  C   LIG    1       23.107 -19.663   4.566  0.00  0.00    +0.017 C 
ATOM     21  C   LIG    1       24.255 -20.614   4.269  0.00  0.00    +0.017 C 
ATOM     22  C   LIG    1       25.378 -19.734   3.728  0.00  0.00    +0.084 C 
ENDBRANCH  17  18
ENDBRANCH  16  17
ENDBRANCH   1  16
TORSDOF 6
ENDMDL
MODEL 2
REMARK VINA RESULT:      -4.0      2.655      7.466
REMARK  Name = *****
REMARK                            x       y       z     vdW  Elec       q    Type
REMARK                         _______ _______ _______ _____ _____    ______ ____
ROOT
ATOM      1  C   LIG    1       25.867 -19.567   4.447  0.00  0.00    +0.095 C 
ENDROOT
BRANCH   1   2
ATOM      2  C   LIG    1       26.597 -19.293   5.825  0.00  0.00    +0.025 C 
ATOM      3  C   LIG    1       26.168 -20.210   6.999  0.00  0.00    +0.006 C 
ATOM      4  C   LIG    1       26.852 -21.571   7.062  0.00  0.00    +0.000 C 
ATOM      5  C   LIG    1       28.366 -21.462   6.965  0.00  0.00    +0.000 C 
ATOM      6  C   LIG    1       28.806 -20.625   5.769  0.00  0.00    +0.000 C 
ATOM      7  C   LIG    1       28.140 -19.255   5.773  0.00  0.00    +0.006 C 
ENDBRANCH   1   2
BRANCH   1   8
ATOM      8  C   LIG    1       24.355 -19.868   4.594  0.00  0.00    -0.016 A 
ATOM      9  C   LIG    1       23.877 -21.133   4.975  0.00  0.00    +0.006 A 
ATOM     10  C   LIG    1       22.500 -21.383   5.068  0.00  0.00    +0.000 A 
ATOM     11  C   LIG    1       21.574 -20.386   4.784  0.00  0.00    +0.000 A 
ATOM     12  C   LIG    1       22.018 -19.124   4.407  0.00  0.00    +0.000 A 
ATOM     13  C   LIG    1       23.388 -18.878   4.307  0.00  0.00    +0.006 A 
ENDBRANCH   1   8
BRANCH   1  14
ATOM     14  O   LIG    1       26.498 -20.694   3.820  0.00  0.00    -0.384 OA
ATOM     15  H   LIG    1       26.650 -20.468   2.889  0.00  0.00    +0.211 HD
ENDBRANCH   1  14
BRANCH   1  16
ATOM     16  C   LIG    1       26.060 -18.401   3.431  0.00  0.00    +0.055 C 
BRANCH  16  17
ATOM     17  C   LIG    1       27.007 -17.269   3.869  0.00  0.00    +0.087 C 
BRANCH  17  18
ATOM     18  N   LIG    1       26.640 -15.969   3.286  0.00  0.00    -0.302 NA
ATOM     19  C   LIG    1       25.273 -15.554   3.602  0.00  0.00    +0.084 C 
ATOM     20  C   LIG    1       25.281 -14.090   3.212  0.00  0.00    +0.017 C 
ATOM     21  C   LIG    1       26.669 -13.612   3.604  0.00  0.00    +0.017 C 
ATOM     22  C   LIG    1       27.501 -14.881   3.765  0.00  0.00    +0.084 C 
ENDBRANCH  17  18
ENDBRANCH  16  17
ENDBRANCH   1  16
TORSDOF 6
ENDMDL
MODEL 3
REMARK VINA RESULT:      -3.7      2.481      5.648
REMARK  Name = *****
REMARK                            x       y       z     vdW  Elec       q    Type
REMARK                         _______ _______ _______ _____ _____    ______ ____
ROOT
ATOM      1  C   LIG    1       24.854 -18.420   3.746  0.00  0.00    +0.095 C 
ENDROOT
BRANCH   1   2
ATOM      2  C   LIG    1       23.402 -19.004   3.505  0.00  0.00    +0.025 C 
ATOM      3  C   LIG    1       23.351 -20.472   3.008  0.00  0.00    +0.006 C 
ATOM      4  C   LIG    1       23.455 -21.542   4.090  0.00  0.00    +0.000 C 
ATOM      5  C   LIG    1       22.479 -21.305   5.233  0.00  0.00    +0.000 C 
ATOM      6  C   LIG    1       22.573 -19.887   5.782  0.00  0.00    +0.000 C 
ATOM      7  C   LIG    1       22.411 -18.850   4.678  0.00  0.00    +0.006 C 
ENDBRANCH   1   2
BRANCH   1   8
ATOM      8  C   LIG    1       24.914 -16.872   3.720  0.00  0.00    -0.016 A 
ATOM      9  C   LIG    1       23.813 -16.074   4.072  0.00  0.00    +0.006 A 
ATOM     10  C   LIG    1       23.888 -14.676   4.007  0.00  0.00    +0.000 A 
ATOM     11  C   LIG    1       25.056 -14.044   3.592  0.00  0.00    +0.000 A 
ATOM     12  C   LIG    1       26.161 -14.808   3.240  0.00  0.00    +0.000 A 
ATOM     13  C   LIG    1       26.083 -16.200   3.297  0.00  0.00    +0.006 A 
ENDBRANCH   1   8
BRANCH   1  14
ATOM     14  O   LIG    1       25.720 -18.928   2.720  0.00  0.00    -0.384 OA
ATOM     15  H   LIG    1       25.419 -19.823   2.495  0.00  0.00    +0.211 HD
ENDBRANCH   1  14
BRANCH   1  16
ATOM     16  C   LIG    1       25.487 -18.934   5.075  0.00  0.00    +0.055 C 
BRANCH  16  17
ATOM     17  C   LIG    1       26.325 -20.221   4.973  0.00  0.00    +0.087 C 
BRANCH  17  18
ATOM     18  N   LIG    1       27.742 -19.998   5.302  0.00  0.00    -0.302 NA
ATOM     19  C   LIG    1       28.133 -18.588   5.268  0.00  0.00    +0.084 C 
ATOM     20  C   LIG    1       29.475 -18.607   5.972  0.00  0.00    +0.017 C 
ATOM     21  C   LIG    1       29.304 -19.651   7.062  0.00  0.00    +0.017 C 
ATOM     22  C   LIG    1       28.081 -20.467   6.651  0.00  0.00    +0.084 C 
ENDBRANCH  17  18
ENDBRANCH  16  17
ENDBRANCH   1  16
TORSDOF 6
ENDMDL
MODEL 4
REMARK VINA RESULT:      -3.4      2.661      6.620
REMARK  Name = *****
REMARK                            x       y       z     vdW  Elec       q    Type
REMARK                         _______ _______ _______ _____ _____    ______ ____
ROOT
ATOM      1  C   LIG    1       25.802 -19.228   4.461  0.00  0.00    +0.095 C 
ENDROOT
BRANCH   1   2
ATOM      2  C   LIG    1       25.004 -20.486   3.927  0.00  0.00    +0.025 C 
ATOM      3  C   LIG    1       24.687 -21.572   4.989  0.00  0.00    +0.006 C 
ATOM      4  C   LIG    1       23.452 -21.320   5.847  0.00  0.00    +0.000 C 
ATOM      5  C   LIG    1       22.227 -20.985   5.009  0.00  0.00    +0.000 C 
ATOM      6  C   LIG    1       22.502 -19.866   4.012  0.00  0.00    +0.000 C 
ATOM      7  C   LIG    1       23.711 -20.180   3.141  0.00  0.00    +0.006 C 
ENDBRANCH   1   2
BRANCH   1   8
ATOM      8  C   LIG    1       27.058 -19.593   5.291  0.00  0.00    -0.016 A 
ATOM      9  C   LIG    1       27.046 -20.615   6.256  0.00  0.00    +0.006 A 
ATOM     10  C   LIG    1       28.189 -20.900   7.015  0.00  0.00    +0.000 A 
ATOM     11  C   LIG    1       29.364 -20.180   6.832  0.00  0.00    +0.000 A 
ATOM     12  C   LIG    1       29.406 -19.166   5.883  0.00  0.00    +0.000 A 
ATOM     13  C   LIG    1       28.265 -18.876   5.133  0.00  0.00    +0.006 A 
ENDBRANCH   1   8
BRANCH   1  14
ATOM     14  O   LIG    1       24.920 -18.451   5.285  0.00  0.00    -0.384 OA
ATOM     15  H   LIG    1       24.502 -17.781   4.722  0.00  0.00    +0.211 HD
ENDBRANCH   1  14
BRANCH   1  16
ATOM     16  C   LIG    1       26.214 -18.256   3.313  0.00  0.00    +0.055 C 
BRANCH  16  17
ATOM     17  C   LIG    1       25.542 -16.871   3.323  0.00  0.00    +0.087 C 
BRANCH  17  18
ATOM     18  N   LIG    1       26.483 -15.787   3.004  0.00  0.00    -0.302 NA
ATOM     19  C   LIG    1       25.830 -14.497   2.772  0.00  0.00    +0.084 C 
ATOM     20  C   LIG    1       26.995 -13.530   2.831  0.00  0.00    +0.017 C 
ATOM     21  C   LIG    1       27.895 -14.101   3.913  0.00  0.00    +0.017 C 
ATOM     22  C   LIG    1       27.446 -15.550   4.087  0.00  0.00    +0.084 C 
ENDBRANCH  17  18
ENDBRANCH  16  17
ENDBRANCH   1  16
TORSDOF 6
ENDMDL
MODEL 5
REMARK VINA RESULT:      -2.6      1.677      2.429
REMARK  Name = *****
REMARK                            x       y       z     vdW  Elec       q    Type
REMARK                         _______ _______ _______ _____ _____    ______ ____
ROOT
ATOM      1  C   LIG    1       25.979 -14.984   3.145  0.00  0.00    +0.095 C 
ENDROOT
BRANCH   1   2
ATOM      2  C   LIG    1       24.494 -14.441   3.062  0.00  0.00    +0.025 C 
ATOM      3  C   LIG    1       23.900 -13.920   4.397  0.00  0.00    +0.006 C 
ATOM      4  C   LIG    1       24.260 -12.485   4.767  0.00  0.00    +0.000 C 
ATOM      5  C   LIG    1       24.004 -11.513   3.625  0.00  0.00    +0.000 C 
ATOM      6  C   LIG    1       24.647 -11.975   2.323  0.00  0.00    +0.000 C 
ATOM      7  C   LIG    1       24.221 -13.392   1.963  0.00  0.00    +0.006 C 
ENDBRANCH   1   2
BRANCH   1   8
ATOM      8  C   LIG    1       26.919 -14.092   3.994  0.00  0.00    -0.016 A 
ATOM      9  C   LIG    1       26.755 -13.939   5.381  0.00  0.00    +0.006 A 
ATOM     10  C   LIG    1       27.603 -13.099   6.117  0.00  0.00    +0.000 A 
ATOM     11  C   LIG    1       28.628 -12.397   5.492  0.00  0.00    +0.000 A 
ATOM     12  C   LIG    1       28.815 -12.532   4.122  0.00  0.00    +0.000 A 
ATOM     13  C   LIG    1       27.966 -13.361   3.389  0.00  0.00    +0.006 A 
ENDBRANCH   1   8
BRANCH   1  14
ATOM     14  O   LIG    1       26.505 -15.063   1.812  0.00  0.00    -0.384 OA
ATOM     15  H   LIG    1       26.320 -15.953   1.473  0.00  0.00    +0.211 HD
ENDBRANCH   1  14
BRANCH   1  16
ATOM     16  C   LIG    1       26.046 -16.448   3.675  0.00  0.00    +0.055 C 
BRANCH  16  17
ATOM     17  C   LIG    1       27.434 -17.114   3.654  0.00  0.00    +0.087 C 
BRANCH  17  18
ATOM     18  N   LIG    1       27.677 -17.947   4.842  0.00  0.00    -0.302 NA
ATOM     19  C   LIG    1       27.166 -19.312   4.712  0.00  0.00    +0.084 C 
ATOM     20  C   LIG    1       27.845 -20.023   5.865  0.00  0.00    +0.017 C 
ATOM     21  C   LIG    1       29.225 -19.392   5.926  0.00  0.00    +0.017 C 
ATOM     22  C   LIG    1       29.108 -18.090   5.138  0.00  0.00    +0.084 C 
ENDBRANCH  17  18
ENDBRANCH  16  17
ENDBRANCH   1  16
TORSDOF 6
ENDMDL
MODEL 6
REMARK VINA RESULT:      -2.3      2.262      7.121
REMARK  Name = *****
REMARK                            x       y       z     vdW  Elec       q    Type
REMARK                         _______ _______ _______ _____ _____    ______ ____
ROOT
ATOM      1  C   LIG    1       25.539 -19.356   3.790  0.00  0.00    +0.095 C 
ENDROOT
BRANCH   1   2
ATOM      2  C   LIG    1       26.458 -20.470   4.437  0.00  0.00    +0.025 C 
ATOM      3  C   LIG    1       27.964 -20.110   4.544  0.00  0.00    +0.006 C 
ATOM      4  C   LIG    1       28.360 -19.270   5.753  0.00  0.00    +0.000 C 
ATOM      5  C   LIG    1       27.831 -19.849   7.057  0.00  0.00    +0.000 C 
ATOM      6  C   LIG    1       26.336 -20.136   6.992  0.00  0.00    +0.000 C 
ATOM      7  C   LIG    1       25.990 -21.020   5.801  0.00  0.00    +0.006 C 
ENDBRANCH   1   2
BRANCH   1   8
ATOM      8  C   LIG    1       24.038 -19.506   4.140  0.00  0.00    -0.016 A 
ATOM      9  C   LIG    1       23.473 -20.742   4.499  0.00  0.00    +0.006 A 
ATOM     10  C   LIG    1       22.105 -20.853   4.780  0.00  0.00    +0.000 A 
ATOM     11  C   LIG    1       21.270 -19.742   4.708  0.00  0.00    +0.000 A 
ATOM     12  C   LIG    1       21.802 -18.507   4.359  0.00  0.00    +0.000 A 
ATOM     13  C   LIG    1       23.163 -18.399   4.072  0.00  0.00    +0.006 A 
ENDBRANCH   1   8
BRANCH   1  14
ATOM     14  O   LIG    1       25.684 -19.426   2.363  0.00  0.00    -0.384 OA
ATOM     15  H   LIG    1       25.542 -20.348   2.096  0.00  0.00    +0.211 HD
ENDBRANCH   1  14
BRANCH   1  16
ATOM     16  C   LIG    1       26.008 -17.914   4.155  0.00  0.00    +0.055 C 
BRANCH  16  17
ATOM     17  C   LIG    1       26.498 -17.043   2.984  0.00  0.00    +0.087 C 
BRANCH  17  18
ATOM     18  N   LIG    1       26.304 -15.607   3.231  0.00  0.00    -0.302 NA
ATOM     19  C   LIG    1       25.023 -15.293   3.867  0.00  0.00    +0.084 C 
ATOM     20  C   LIG    1       25.230 -13.862   4.323  0.00  0.00    +0.017 C 
ATOM     21  C   LIG    1       26.686 -13.821   4.755  0.00  0.00    +0.017 C 
ATOM     22  C   LIG    1       27.330 -15.050   4.121  0.00  0.00    +0.084 C 
ENDBRANCH  17  18
ENDBRANCH  16  17
ENDBRANCH   1  16
TORSDOF 6
ENDMDL
MODEL 7
REMARK VINA RESULT:      -2.3      2.069      7.045
REMARK  Name = *****
REMARK                            x       y       z     vdW  Elec       q    Type
REMARK                         _______ _______ _______ _____ _____    ______ ____
ROOT
ATOM      1  C   LIG    1       25.325 -19.228   3.625  0.00  0.00    +0.095 C 
ENDROOT
BRANCH   1   2
ATOM      2  C   LIG    1       25.702 -20.593   4.334  0.00  0.00    +0.025 C 
ATOM      3  C   LIG    1       26.509 -20.456   5.652  0.00  0.00    +0.006 C 
ATOM      4  C   LIG    1       25.688 -20.186   6.908  0.00  0.00    +0.000 C 
ATOM      5  C   LIG    1       24.531 -21.162   7.061  0.00  0.00    +0.000 C 
ATOM      6  C   LIG    1       23.682 -21.249   5.798  0.00  0.00    +0.000 C 
ATOM      7  C   LIG    1       24.533 -21.571   4.577  0.00  0.00    +0.006 C 
ENDBRANCH   1   2
BRANCH   1   8
ATOM      8  C   LIG    1       23.842 -18.820   3.811  0.00  0.00    -0.016 A 
ATOM      9  C   LIG    1       23.470 -17.598   4.397  0.00  0.00    +0.006 A 
ATOM     10  C   LIG    1       22.120 -17.271   4.581  0.00  0.00    +0.000 A 
ATOM     11  C   LIG    1       21.114 -18.148   4.190  0.00  0.00    +0.000 A 
ATOM     12  C   LIG    1       21.452 -19.362   3.606  0.00  0.00    +0.000 A 
ATOM     13  C   LIG    1       22.797 -19.691   3.430  0.00  0.00    +0.006 A 
ENDBRANCH   1   8
BRANCH   1  14
ATOM     14  O   LIG    1       25.588 -19.363   2.220  0.00  0.00    -0.384 OA
ATOM     15  H   LIG    1       26.436 -19.825   2.121  0.00  0.00    +0.211 HD
ENDBRANCH   1  14
BRANCH   1  16
ATOM     16  C   LIG    1       26.240 -18.051   4.079  0.00  0.00    +0.055 C 
BRANCH  16  17
ATOM     17  C   LIG    1       26.462 -16.928   3.050  0.00  0.00    +0.087 C 
BRANCH  17  18
ATOM     18  N   LIG    1       26.382 -15.588   3.653  0.00  0.00    -0.302 NA
ATOM     19  C   LIG    1       27.677 -15.072   4.099  0.00  0.00    +0.084 C 
ATOM     20  C   LIG    1       27.379 -13.603   4.326  0.00  0.00    +0.017 C 
ATOM     21  C   LIG    1       26.404 -13.250   3.216  0.00  0.00    +0.017 C 
ATOM     22  C   LIG    1       25.862 -14.586   2.714  0.00  0.00    +0.084 C 
ENDBRANCH  17  18
ENDBRANCH  16  17
ENDBRANCH   1  16
TORSDOF 6
ENDMDL
MODEL 8
REMARK VINA RESULT:      -1.6      1.083      3.610
REMARK  Name = *****
REMARK                            x       y       z     vdW  Elec       q    Type
REMARK                         _______ _______ _______ _____ _____    ______ ____
ROOT
ATOM      1  C   LIG    1       25.907 -15.041   3.878  0.00  0.00    +0.095 C 
ENDROOT
BRANCH   1   2
ATOM      2  C   LIG    1       27.478 -14.850   3.869  0.00  0.00    +0.025 C 
ATOM      3  C   LIG    1       28.018 -13.829   2.833  0.00  0.00    +0.006 C 
ATOM      4  C   LIG    1       27.977 -12.366   3.260  0.00  0.00    +0.000 C 
ATOM      5  C   LIG    1       28.596 -12.148   4.632  0.00  0.00    +0.000 C 
ATOM      6  C   LIG    1       28.020 -13.093   5.679  0.00  0.00    +0.000 C 
ATOM      7  C   LIG    1       28.127 -14.547   5.236  0.00  0.00    +0.006 C 
ENDBRANCH   1   2
BRANCH   1   8
ATOM      8  C   LIG    1       25.122 -13.755   3.517  0.00  0.00    -0.016 A 
ATOM      9  C   LIG    1       24.498 -12.960   4.493  0.00  0.00    +0.006 A 
ATOM     10  C   LIG    1       23.767 -11.820   4.133  0.00  0.00    +0.000 A 
ATOM     11  C   LIG    1       23.640 -11.447   2.799  0.00  0.00    +0.000 A 
ATOM     12  C   LIG    1       24.248 -12.213   1.812  0.00  0.00    +0.000 A 
ATOM     13  C   LIG    1       24.969 -13.352   2.171  0.00  0.00    +0.006 A 
ENDBRANCH   1   8
BRANCH   1  14
ATOM     14  O   LIG    1       25.512 -15.463   5.192  0.00  0.00    -0.384 OA
ATOM     15  H   LIG    1       25.493 -14.678   5.762  0.00  0.00    +0.211 HD
ENDBRANCH   1  14
BRANCH   1  16
ATOM     16  C   LIG    1       25.445 -16.201   2.944  0.00  0.00    +0.055 C 
BRANCH  16  17
ATOM     17  C   LIG    1       25.975 -17.604   3.292  0.00  0.00    +0.087 C 
BRANCH  17  18
ATOM     18  N   LIG    1       24.912 -18.620   3.304  0.00  0.00    -0.302 NA
ATOM     19  C   LIG    1       25.245 -19.802   4.102  0.00  0.00    +0.084 C 
ATOM     20  C   LIG    1       23.900 -20.486   4.242  0.00  0.00    +0.017 C 
ATOM     21  C   LIG    1       22.914 -19.338   4.377  0.00  0.00    +0.017 C 
ATOM     22  C   LIG    1       23.658 -18.106   3.868  0.00  0.00    +0.084 C 
ENDBRANCH  17  18
ENDBRANCH  16  17
ENDBRANCH   1  16
TORSDOF 6
ENDMDL
MODEL 9
REMARK VINA RESULT:      -1.6      1.715      5.557
REMARK  Name = *****
REMARK                            x       y       z     vdW  Elec       q    Type
REMARK                         _______ _______ _______ _____ _____    ______ ____
ROOT
ATOM      1  C   LIG    1       24.596 -15.318   3.900  0.00  0.00    +0.095 C 
ENDROOT
BRANCH   1   2
ATOM      2  C   LIG    1       23.589 -14.183   3.449  0.00  0.00    +0.025 C 
ATOM      3  C   LIG    1       23.475 -12.974   4.414  0.00  0.00    +0.006 C 
ATOM      4  C   LIG    1       24.546 -11.899   4.261  0.00  0.00    +0.000 C 
ATOM      5  C   LIG    1       24.707 -11.447   2.817  0.00  0.00    +0.000 C 
ATOM      6  C   LIG    1       24.897 -12.622   1.865  0.00  0.00    +0.000 C 
ATOM      7  C   LIG    1       23.779 -13.646   2.014  0.00  0.00    +0.006 C 
ENDBRANCH   1   2
BRANCH   1   8
ATOM      8  C   LIG    1       23.945 -16.720   4.007  0.00  0.00    -0.016 A 
ATOM      9  C   LIG    1       22.627 -16.901   4.456  0.00  0.00    +0.006 A 
ATOM     10  C   LIG    1       22.077 -18.185   4.573  0.00  0.00    +0.000 A 
ATOM     11  C   LIG    1       22.823 -19.312   4.247  0.00  0.00    +0.000 A 
ATOM     12  C   LIG    1       24.129 -19.163   3.797  0.00  0.00    +0.000 A 
ATOM     13  C   LIG    1       24.679 -17.885   3.689  0.00  0.00    +0.006 A 
ENDBRANCH   1   8
BRANCH   1  14
ATOM     14  O   LIG    1       25.128 -14.963   5.185  0.00  0.00    -0.384 OA
ATOM     15  H   LIG    1       25.724 -15.676   5.466  0.00  0.00    +0.211 HD
ENDBRANCH   1  14
BRANCH   1  16
ATOM     16  C   LIG    1       25.847 -15.404   2.974  0.00  0.00    +0.055 C 
BRANCH  16  17
ATOM     17  C   LIG    1       27.213 -15.218   3.659  0.00  0.00    +0.087 C 
BRANCH  17  18
ATOM     18  N   LIG    1       27.498 -13.810   3.974  0.00  0.00    -0.302 NA
ATOM     19  C   LIG    1       27.730 -13.566   5.398  0.00  0.00    +0.084 C 
ATOM     20  C   LIG    1       28.337 -12.178   5.394  0.00  0.00    +0.017 C 
ATOM     21  C   LIG    1       29.200 -12.157   4.144  0.00  0.00    +0.017 C 
ATOM     22  C   LIG    1       28.702 -13.320   3.291  0.00  0.00    +0.084 C 
ENDBRANCH  17  18
ENDBRANCH  16  17
ENDBRANCH   1  16
TORSDOF 6
ENDMDL
