MODEL 1
REMARK VINA RESULT:       9.7      0.000      0.000
REMARK  Name = *****
REMARK                            x       y       z     vdW  Elec       q    Type
REMARK                         _______ _______ _______ _____ _____    ______ ____
ROOT
ATOM      1  C   LIG    1       24.770 -12.604   3.078  0.00  0.00    +0.010 C 
ATOM      2  C   LIG    1       25.304 -14.045   2.952  0.00  0.00    +0.021 C 
ATOM      3  C   LIG    1       26.308 -14.446   4.083  0.00  0.00    +0.097 C 
ATOM      4  C   LIG    1       25.491 -14.609   5.385  0.00  0.00    +0.038 C 
ATOM      5  C   LIG    1       24.308 -15.563   5.261  0.00  0.00    +0.086 C 
ATOM      6  N   LIG    1       23.404 -15.289   4.139  0.00  0.00    -0.299 NA
ATOM      7  C   LIG    1       24.111 -15.029   2.873  0.00  0.00    +0.089 C 
ENDROOT
BRANCH   3   8
ATOM      8  C   LIG    1       27.443 -13.398   4.219  0.00  0.00    -0.030 A 
ATOM      9  C   LIG    1       28.246 -13.007   3.131  0.00  0.00    +0.005 A 
ATOM     10  C   LIG    1       29.251 -12.047   3.273  0.00  0.00    +0.000 A 
ATOM     11  C   LIG    1       29.475 -11.447   4.505  0.00  0.00    +0.000 A 
ATOM     12  C   LIG    1       28.713 -11.830   5.604  0.00  0.00    +0.000 A 
ATOM     13  C   LIG    1       27.713 -12.801   5.467  0.00  0.00    +0.005 A 
ENDBRANCH   3   8
BRANCH   6  14
ATOM     14  C   LIG    1       22.375 -16.374   3.993  0.00  0.00    +0.057 C 
ATOM     15  C   LIG    1       22.003 -16.993   5.359  0.00  0.00    +0.021 C 
ATOM     16  C   LIG    1       21.275 -18.333   5.283  0.00  0.00    +0.028 C 
ATOM     17  C   LIG    1       22.039 -19.380   4.435  0.00  0.00    +0.082 C 
ATOM     18  C   LIG    1       22.077 -18.768   3.008  0.00  0.00    +0.028 C 
ATOM     19  C   LIG    1       22.818 -17.432   2.950  0.00  0.00    +0.021 C 
BRANCH  17  20
ATOM     20  C   LIG    1       23.428 -19.763   4.995  0.00  0.00    -0.027 A 
ATOM     21  C   LIG    1       23.566 -20.448   6.222  0.00  0.00    +0.008 A 
ATOM     22  C   LIG    1       24.822 -20.810   6.722  0.00  0.00    +0.039 A 
ATOM     23  C   LIG    1       25.960 -20.519   5.990  0.00  0.00    +0.123 A 
ATOM     24  F   LIG    1       27.162 -20.877   6.461  0.00  0.00    -0.205 F 
ATOM     25  C   LIG    1       25.866 -19.872   4.768  0.00  0.00    +0.039 A 
ATOM     26  C   LIG    1       24.610 -19.501   4.272  0.00  0.00    +0.008 A 
ENDBRANCH  17  20
BRANCH  17  27
ATOM     27  C   LIG    1       21.206 -20.605   4.378  0.00  0.00    +0.074 C 
ATOM     28  N   LIG    1       20.538 -21.572   4.355  0.00  0.00    -0.196 NA
ENDBRANCH  17  27
ENDBRANCH   6  14
BRANCH   3  29
ATOM     29  C   LIG    1       26.949 -15.825   3.744  0.00  0.00    +0.316 C 
ATOM     30  O   LIG    1       26.456 -16.666   3.004  0.00  0.00    -0.250 OA
BRANCH  29  31
ATOM     31  O   LIG    1       28.148 -16.057   4.335  0.00  0.00    -0.480 OA
ATOM     32  H   LIG    1       28.910 -15.668   3.867  0.00  0.00    +0.295 HD
ENDBRANCH  29  31
ENDBRANCH   3  29
TORSDOF 6
ENDMDL
