MODEL 1
REMARK VINA RESULT:       8.5      0.000      0.000
REMARK  Name = *****
REMARK                            x       y       z     vdW  Elec       q    Type
REMARK                         _______ _______ _______ _____ _____    ______ ____
ROOT
ATOM      1  C   LIG    1       26.322 -14.085   2.704  0.00  0.00    +0.105 C 
ATOM      2  N   LIG    1       25.795 -14.705   3.917  0.00  0.00    -0.305 NA
ATOM      3  C   LIG    1       24.677 -15.621   3.630  0.00  0.00    +0.088 C 
ATOM      4  C   LIG    1       25.076 -16.949   2.962  0.00  0.00    +0.047 C 
ATOM      5  C   LIG    1       26.172 -17.674   3.736  0.00  0.00    -0.059 C 
ATOM      6  C   LIG    1       26.104 -18.972   4.142  0.00  0.00    -0.010 C 
ATOM      7  C   LIG    1       27.175 -19.574   4.975  0.00  0.00    -0.010 A 
ATOM      8  C   LIG    1       26.902 -19.975   6.299  0.00  0.00    -0.017 A 
ATOM      9  C   LIG    1       27.935 -20.542   7.062  0.00  0.00    +0.008 A 
ATOM     10  C   LIG    1       29.203 -20.749   6.510  0.00  0.00    +0.001 A 
ATOM     11  C   LIG    1       29.456 -20.389   5.189  0.00  0.00    +0.001 A 
ATOM     12  C   LIG    1       25.588 -19.790   6.943  0.00  0.00    +0.009 C 
ATOM     13  C   LIG    1       24.379 -19.904   6.363  0.00  0.00    +0.009 C 
ATOM     14  C   LIG    1       24.099 -20.243   4.954  0.00  0.00    -0.017 A 
ATOM     15  C   LIG    1       22.961 -21.016   4.677  0.00  0.00    +0.008 A 
ATOM     16  C   LIG    1       22.643 -21.378   3.365  0.00  0.00    +0.001 A 
ATOM     17  C   LIG    1       23.458 -20.971   2.313  0.00  0.00    +0.001 A 
ATOM     18  C   LIG    1       24.582 -20.187   2.568  0.00  0.00    +0.009 A 
ATOM     19  C   LIG    1       28.446 -19.810   4.422  0.00  0.00    +0.009 A 
ATOM     20  C   LIG    1       24.896 -19.797   3.880  0.00  0.00    -0.010 A 
ATOM     21  C   LIG    1       27.326 -16.729   4.047  0.00  0.00    +0.047 C 
ATOM     22  C   LIG    1       26.839 -15.412   4.678  0.00  0.00    +0.088 C 
ENDROOT
TORSDOF 0
ENDMDL
MODEL 2
REMARK VINA RESULT:      10.3      1.983      5.584
REMARK  Name = *****
REMARK                            x       y       z     vdW  Elec       q    Type
REMARK                         _______ _______ _______ _____ _____    ______ ____
ROOT
ATOM      1  C   LIG    1       29.470 -19.956   5.714  0.00  0.00    +0.105 C 
ATOM      2  N   LIG    1       28.423 -19.157   6.345  0.00  0.00    -0.305 NA
ATOM      3  C   LIG    1       28.454 -17.753   5.901  0.00  0.00    +0.088 C 
ATOM      4  C   LIG    1       27.959 -17.511   4.464  0.00  0.00    +0.047 C 
ATOM      5  C   LIG    1       26.580 -18.114   4.223  0.00  0.00    -0.059 C 
ATOM      6  C   LIG    1       25.517 -17.435   3.712  0.00  0.00    -0.010 C 
ATOM      7  C   LIG    1       24.179 -18.071   3.598  0.00  0.00    -0.010 A 
ATOM      8  C   LIG    1       23.100 -17.595   4.370  0.00  0.00    -0.017 A 
ATOM      9  C   LIG    1       21.848 -18.216   4.241  0.00  0.00    +0.008 A 
ATOM     10  C   LIG    1       21.657 -19.260   3.332  0.00  0.00    +0.001 A 
ATOM     11  C   LIG    1       22.716 -19.700   2.542  0.00  0.00    +0.001 A 
ATOM     12  C   LIG    1       23.230 -16.495   5.346  0.00  0.00    +0.009 C 
ATOM     13  C   LIG    1       23.994 -15.394   5.228  0.00  0.00    +0.009 C 
ATOM     14  C   LIG    1       24.872 -15.041   4.095  0.00  0.00    -0.017 A 
ATOM     15  C   LIG    1       24.992 -13.684   3.754  0.00  0.00    +0.008 A 
ATOM     16  C   LIG    1       25.800 -13.282   2.688  0.00  0.00    +0.001 A 
ATOM     17  C   LIG    1       26.501 -14.231   1.949  0.00  0.00    +0.001 A 
ATOM     18  C   LIG    1       26.408 -15.581   2.285  0.00  0.00    +0.009 A 
ATOM     19  C   LIG    1       23.970 -19.104   2.669  0.00  0.00    +0.009 A 
ATOM     20  C   LIG    1       25.618 -15.992   3.371  0.00  0.00    -0.010 A 
ATOM     21  C   LIG    1       26.536 -19.564   4.692  0.00  0.00    +0.047 C 
ATOM     22  C   LIG    1       27.082 -19.723   6.123  0.00  0.00    +0.088 C 
ENDROOT
TORSDOF 0
ENDMDL
