MODEL 1
REMARK VINA RESULT:      -5.4      0.000      0.000
REMARK  Name = *****
REMARK                            x       y       z     vdW  Elec       q    Type
REMARK                         _______ _______ _______ _____ _____    ______ ____
ROOT
ATOM      1  C   LIG    1       25.049 -16.648   3.651  0.00  0.00    +0.046 A 
ATOM      2  C   LIG    1       23.846 -17.215   4.118  0.00  0.00    +0.043 A 
ATOM      3  C   LIG    1       23.639 -18.612   4.229  0.00  0.00    +0.133 A 
ATOM      4  C   LIG    1       24.691 -19.448   3.863  0.00  0.00    +0.285 A 
ATOM      5  C   LIG    1       25.896 -18.932   3.380  0.00  0.00    +0.086 A 
ATOM      6  C   LIG    1       26.063 -17.546   3.278  0.00  0.00    +0.030 A 
ENDROOT
BRANCH   1  11
ATOM      7  C   LIG    1       24.380 -12.051   2.357  0.00  0.00    +0.041 C 
ATOM      8  C   LIG    1       24.844 -12.883   3.543  0.00  0.00    +0.107 C 
ATOM      9  C   LIG    1       24.222 -14.286   3.517  0.00  0.00    +0.250 C 
ATOM     10  O   LIG    1       23.008 -14.456   3.495  0.00  0.00    -0.272 OA
ATOM     11  N   LIG    1       25.233 -15.232   3.569  0.00  0.00    -0.193 N 
ATOM     12  C   LIG    1       26.447 -14.581   3.537  0.00  0.00    +0.314 C 
ATOM     13  O   LIG    1       27.586 -15.024   3.583  0.00  0.00    -0.252 OA
ATOM     14  N   LIG    1       26.231 -13.225   3.443  0.00  0.00    -0.285 N 
ATOM     15  H   LIG    1       27.011 -12.580   3.475  0.00  0.00    +0.151 HD
ATOM     16  C   LIG    1       24.541 -12.215   4.881  0.00  0.00    +0.041 C 
ENDBRANCH   1  11
BRANCH   3  17
ATOM     17  C   LIG    1       22.300 -19.092   4.724  0.00  0.00    +0.424 C 
ATOM     18  F   LIG    1       21.331 -18.151   4.535  0.00  0.00    -0.166 F 
ATOM     19  F   LIG    1       22.312 -19.344   6.061  0.00  0.00    -0.166 F 
ATOM     20  F   LIG    1       21.827 -20.213   4.128  0.00  0.00    -0.166 F 
ENDBRANCH   3  17
BRANCH   4  21
ATOM     21  N   LIG    1       24.600 -20.889   3.998  0.00  0.00    +0.080 N 
ATOM     22  O   LIG    1       24.137 -21.508   3.034  0.00  0.00    -0.576 OA
ATOM     23  O   LIG    1       24.947 -21.371   5.083  0.00  0.00    +0.042 OA
ENDBRANCH   4  21
TORSDOF 3
ENDMDL
MODEL 2
REMARK VINA RESULT:      -4.5      3.531      6.704
REMARK  Name = *****
REMARK                            x       y       z     vdW  Elec       q    Type
REMARK                         _______ _______ _______ _____ _____    ______ ____
ROOT
ATOM      1  C   LIG    1       24.459 -16.539   3.902  0.00  0.00    +0.046 A 
ATOM      2  C   LIG    1       25.487 -15.688   3.451  0.00  0.00    +0.043 A 
ATOM      3  C   LIG    1       25.377 -14.276   3.443  0.00  0.00    +0.133 A 
ATOM      4  C   LIG    1       24.191 -13.721   3.917  0.00  0.00    +0.285 A 
ATOM      5  C   LIG    1       23.138 -14.525   4.360  0.00  0.00    +0.086 A 
ATOM      6  C   LIG    1       23.279 -15.918   4.348  0.00  0.00    +0.030 A 
ENDROOT
BRANCH   1  11
ATOM      7  C   LIG    1       23.762 -21.166   5.067  0.00  0.00    +0.041 C 
ATOM      8  C   LIG    1       24.158 -20.299   3.883  0.00  0.00    +0.107 C 
ATOM      9  C   LIG    1       23.579 -18.884   4.009  0.00  0.00    +0.250 C 
ATOM     10  O   LIG    1       22.376 -18.684   4.131  0.00  0.00    -0.272 OA
ATOM     11  N   LIG    1       24.609 -17.962   3.916  0.00  0.00    -0.193 N 
ATOM     12  C   LIG    1       25.804 -18.643   3.831  0.00  0.00    +0.314 C 
ATOM     13  O   LIG    1       26.948 -18.227   3.714  0.00  0.00    -0.252 OA
ATOM     14  N   LIG    1       25.558 -19.996   3.889  0.00  0.00    -0.285 N 
ATOM     15  H   LIG    1       26.315 -20.659   3.773  0.00  0.00    +0.151 HD
ATOM     16  C   LIG    1       23.737 -20.906   2.547  0.00  0.00    +0.041 C 
ENDBRANCH   1  11
BRANCH   3  17
ATOM     17  C   LIG    1       26.542 -13.479   2.917  0.00  0.00    +0.424 C 
ATOM     18  F   LIG    1       27.353 -14.240   2.129  0.00  0.00    -0.166 F 
ATOM     19  F   LIG    1       27.334 -13.013   3.920  0.00  0.00    -0.166 F 
ATOM     20  F   LIG    1       26.216 -12.404   2.158  0.00  0.00    -0.166 F 
ENDBRANCH   3  17
BRANCH   4  21
ATOM     21  N   LIG    1       24.005 -12.286   4.007  0.00  0.00    +0.080 N 
ATOM     22  O   LIG    1       24.193 -11.771   5.114  0.00  0.00    -0.576 OA
ATOM     23  O   LIG    1       23.629 -11.707   2.980  0.00  0.00    +0.042 OA
ENDBRANCH   4  21
TORSDOF 3
ENDMDL
MODEL 3
REMARK VINA RESULT:      -4.4      3.305      6.807
REMARK  Name = *****
REMARK                            x       y       z     vdW  Elec       q    Type
REMARK                         _______ _______ _______ _____ _____    ______ ____
ROOT
ATOM      1  C   LIG    1       23.804 -16.852   4.082  0.00  0.00    +0.046 A 
ATOM      2  C   LIG    1       25.045 -16.312   3.688  0.00  0.00    +0.043 A 
ATOM      3  C   LIG    1       25.303 -14.921   3.637  0.00  0.00    +0.133 A 
ATOM      4  C   LIG    1       24.271 -14.061   4.008  0.00  0.00    +0.285 A 
ATOM      5  C   LIG    1       23.020 -14.550   4.390  0.00  0.00    +0.086 A 
ATOM      6  C   LIG    1       22.798 -15.932   4.423  0.00  0.00    +0.030 A 
ENDROOT
BRANCH   1  11
ATOM      7  C   LIG    1       24.332 -21.571   3.237  0.00  0.00    +0.041 C 
ATOM      8  C   LIG    1       23.908 -20.614   4.340  0.00  0.00    +0.107 C 
ATOM      9  C   LIG    1       24.566 -19.238   4.170  0.00  0.00    +0.250 C 
ATOM     10  O   LIG    1       25.783 -19.105   4.116  0.00  0.00    -0.272 OA
ATOM     11  N   LIG    1       23.582 -18.264   4.142  0.00  0.00    -0.193 N 
ATOM     12  C   LIG    1       22.350 -18.881   4.187  0.00  0.00    +0.314 C 
ATOM     13  O   LIG    1       21.224 -18.404   4.204  0.00  0.00    -0.252 OA
ATOM     14  N   LIG    1       22.529 -20.245   4.224  0.00  0.00    -0.285 N 
ATOM     15  H   LIG    1       21.732 -20.862   4.329  0.00  0.00    +0.151 HD
ATOM     16  C   LIG    1       24.212 -21.157   5.733  0.00  0.00    +0.041 C 
ENDBRANCH   1  11
BRANCH   3  17
ATOM     17  C   LIG    1       26.666 -14.470   3.181  0.00  0.00    +0.424 C 
ATOM     18  F   LIG    1       26.648 -14.069   1.878  0.00  0.00    -0.166 F 
ATOM     19  F   LIG    1       27.582 -15.473   3.245  0.00  0.00    -0.166 F 
ATOM     20  F   LIG    1       27.194 -13.426   3.866  0.00  0.00    -0.166 F 
ENDBRANCH   3  17
BRANCH   4  21
ATOM     21  N   LIG    1       24.456 -12.624   4.048  0.00  0.00    +0.080 N 
ATOM     22  O   LIG    1       24.778 -12.136   5.137  0.00  0.00    -0.576 OA
ATOM     23  O   LIG    1       24.230 -12.003   3.002  0.00  0.00    +0.042 OA
ENDBRANCH   4  21
TORSDOF 3
ENDMDL
MODEL 4
REMARK VINA RESULT:      -4.3      2.835      6.432
REMARK  Name = *****
REMARK                            x       y       z     vdW  Elec       q    Type
REMARK                         _______ _______ _______ _____ _____    ______ ____
ROOT
ATOM      1  C   LIG    1       24.818 -16.938   3.856  0.00  0.00    +0.046 A 
ATOM      2  C   LIG    1       24.226 -15.698   4.167  0.00  0.00    +0.043 A 
ATOM      3  C   LIG    1       24.874 -14.456   3.959  0.00  0.00    +0.133 A 
ATOM      4  C   LIG    1       26.155 -14.483   3.411  0.00  0.00    +0.285 A 
ATOM      5  C   LIG    1       26.787 -15.689   3.101  0.00  0.00    +0.086 A 
ATOM      6  C   LIG    1       26.119 -16.898   3.326  0.00  0.00    +0.030 A 
ENDROOT
BRANCH   1  11
ATOM      7  C   LIG    1       23.568 -21.571   3.379  0.00  0.00    +0.041 C 
ATOM      8  C   LIG    1       23.640 -20.476   4.431  0.00  0.00    +0.107 C 
ATOM      9  C   LIG    1       24.709 -19.433   4.078  0.00  0.00    +0.250 C 
ATOM     10  O   LIG    1       25.881 -19.742   3.895  0.00  0.00    -0.272 OA
ATOM     11  N   LIG    1       24.128 -18.175   4.061  0.00  0.00    -0.193 N 
ATOM     12  C   LIG    1       22.774 -18.312   4.280  0.00  0.00    +0.314 C 
ATOM     13  O   LIG    1       21.895 -17.466   4.364  0.00  0.00    -0.252 OA
ATOM     14  N   LIG    1       22.471 -19.647   4.418  0.00  0.00    -0.285 N 
ATOM     15  H   LIG    1       21.529 -19.936   4.653  0.00  0.00    +0.151 HD
ATOM     16  C   LIG    1       23.904 -21.025   5.830  0.00  0.00    +0.041 C 
ENDBRANCH   1  11
BRANCH   3  17
ATOM     17  C   LIG    1       24.141 -13.200   4.352  0.00  0.00    +0.424 C 
ATOM     18  F   LIG    1       23.055 -13.479   5.128  0.00  0.00    -0.166 F 
ATOM     19  F   LIG    1       23.659 -12.533   3.269  0.00  0.00    -0.166 F 
ATOM     20  F   LIG    1       24.864 -12.302   5.063  0.00  0.00    -0.166 F 
ENDBRANCH   3  17
BRANCH   4  21
ATOM     21  N   LIG    1       26.876 -13.264   3.103  0.00  0.00    +0.080 N 
ATOM     22  O   LIG    1       26.411 -12.557   2.202  0.00  0.00    -0.576 OA
ATOM     23  O   LIG    1       27.920 -13.058   3.735  0.00  0.00    +0.042 OA
ENDBRANCH   4  21
TORSDOF 3
ENDMDL
MODEL 5
REMARK VINA RESULT:      -4.3      0.906      1.874
REMARK  Name = *****
REMARK                            x       y       z     vdW  Elec       q    Type
REMARK                         _______ _______ _______ _____ _____    ______ ____
ROOT
ATOM      1  C   LIG    1       24.821 -16.625   3.699  0.00  0.00    +0.046 A 
ATOM      2  C   LIG    1       23.661 -17.296   4.136  0.00  0.00    +0.043 A 
ATOM      3  C   LIG    1       23.557 -18.708   4.191  0.00  0.00    +0.133 A 
ATOM      4  C   LIG    1       24.669 -19.450   3.799  0.00  0.00    +0.285 A 
ATOM      5  C   LIG    1       25.834 -18.829   3.344  0.00  0.00    +0.086 A 
ATOM      6  C   LIG    1       25.900 -17.432   3.297  0.00  0.00    +0.030 A 
ENDROOT
BRANCH   1  11
ATOM      7  C   LIG    1       26.697 -12.186   3.520  0.00  0.00    +0.041 C 
ATOM      8  C   LIG    1       25.460 -12.958   3.089  0.00  0.00    +0.107 C 
ATOM      9  C   LIG    1       25.770 -14.448   2.897  0.00  0.00    +0.250 C 
ATOM     10  O   LIG    1       26.642 -14.835   2.127  0.00  0.00    -0.272 OA
ATOM     11  N   LIG    1       24.901 -15.197   3.674  0.00  0.00    -0.193 N 
ATOM     12  C   LIG    1       24.120 -14.337   4.415  0.00  0.00    +0.314 C 
ATOM     13  O   LIG    1       23.217 -14.567   5.207  0.00  0.00    -0.252 OA
ATOM     14  N   LIG    1       24.489 -13.040   4.140  0.00  0.00    -0.285 N 
ATOM     15  H   LIG    1       23.977 -12.265   4.544  0.00  0.00    +0.151 HD
ATOM     16  C   LIG    1       24.836 -12.398   1.813  0.00  0.00    +0.041 C 
ENDBRANCH   1  11
BRANCH   3  17
ATOM     17  C   LIG    1       22.255 -19.304   4.659  0.00  0.00    +0.424 C 
ATOM     18  F   LIG    1       21.189 -18.562   4.243  0.00  0.00    -0.166 F 
ATOM     19  F   LIG    1       22.171 -19.341   6.016  0.00  0.00    -0.166 F 
ATOM     20  F   LIG    1       22.003 -20.563   4.226  0.00  0.00    -0.166 F 
ENDBRANCH   3  17
BRANCH   4  21
ATOM     21  N   LIG    1       24.683 -20.898   3.878  0.00  0.00    +0.080 N 
ATOM     22  O   LIG    1       25.157 -21.393   4.906  0.00  0.00    -0.576 OA
ATOM     23  O   LIG    1       24.263 -21.514   2.891  0.00  0.00    +0.042 OA
ENDBRANCH   4  21
TORSDOF 3
ENDMDL
MODEL 6
REMARK VINA RESULT:      -4.1      1.970      2.551
REMARK  Name = *****
REMARK                            x       y       z     vdW  Elec       q    Type
REMARK                         _______ _______ _______ _____ _____    ______ ____
ROOT
ATOM      1  C   LIG    1       24.078 -16.965   4.003  0.00  0.00    +0.046 A 
ATOM      2  C   LIG    1       24.627 -18.233   3.727  0.00  0.00    +0.043 A 
ATOM      3  C   LIG    1       23.947 -19.446   3.992  0.00  0.00    +0.133 A 
ATOM      4  C   LIG    1       22.670 -19.360   4.542  0.00  0.00    +0.285 A 
ATOM      5  C   LIG    1       22.091 -18.126   4.846  0.00  0.00    +0.086 A 
ATOM      6  C   LIG    1       22.795 -16.947   4.577  0.00  0.00    +0.030 A 
ENDROOT
BRANCH   1  11
ATOM      7  C   LIG    1       25.007 -12.556   2.285  0.00  0.00    +0.041 C 
ATOM      8  C   LIG    1       25.363 -13.461   3.453  0.00  0.00    +0.107 C 
ATOM      9  C   LIG    1       24.249 -14.479   3.730  0.00  0.00    +0.250 C 
ATOM     10  O   LIG    1       23.097 -14.131   3.968  0.00  0.00    -0.272 OA
ATOM     11  N   LIG    1       24.784 -15.756   3.705  0.00  0.00    -0.193 N 
ATOM     12  C   LIG    1       26.113 -15.670   3.353  0.00  0.00    +0.314 C 
ATOM     13  O   LIG    1       26.960 -16.544   3.233  0.00  0.00    -0.252 OA
ATOM     14  N   LIG    1       26.437 -14.351   3.130  0.00  0.00    -0.285 N 
ATOM     15  H   LIG    1       27.394 -14.087   2.925  0.00  0.00    +0.151 HD
ATOM     16  C   LIG    1       25.668 -12.678   4.727  0.00  0.00    +0.041 C 
ENDBRANCH   1  11
BRANCH   3  17
ATOM     17  C   LIG    1       24.652 -20.738   3.669  0.00  0.00    +0.424 C 
ATOM     18  F   LIG    1       25.776 -20.521   2.928  0.00  0.00    -0.166 F 
ATOM     19  F   LIG    1       23.874 -21.570   2.925  0.00  0.00    -0.166 F 
ATOM     20  F   LIG    1       25.066 -21.458   4.739  0.00  0.00    -0.166 F 
ENDBRANCH   3  17
BRANCH   4  21
ATOM     21  N   LIG    1       21.869 -20.543   4.792  0.00  0.00    +0.080 N 
ATOM     22  O   LIG    1       20.825 -20.653   4.139  0.00  0.00    -0.576 OA
ATOM     23  O   LIG    1       22.273 -21.316   5.669  0.00  0.00    +0.042 OA
ENDBRANCH   4  21
TORSDOF 3
ENDMDL
MODEL 7
REMARK VINA RESULT:      -4.1      2.551      6.225
REMARK  Name = *****
REMARK                            x       y       z     vdW  Elec       q    Type
REMARK                         _______ _______ _______ _____ _____    ______ ____
ROOT
ATOM      1  C   LIG    1       25.542 -17.436   3.883  0.00  0.00    +0.046 A 
ATOM      2  C   LIG    1       24.645 -16.356   4.007  0.00  0.00    +0.043 A 
ATOM      3  C   LIG    1       25.016 -15.010   3.772  0.00  0.00    +0.133 A 
ATOM      4  C   LIG    1       26.334 -14.763   3.391  0.00  0.00    +0.285 A 
ATOM      5  C   LIG    1       27.261 -15.800   3.270  0.00  0.00    +0.086 A 
ATOM      6  C   LIG    1       26.861 -17.118   3.516  0.00  0.00    +0.030 A 
ENDROOT
BRANCH   1  11
ATOM      7  C   LIG    1       22.794 -21.194   5.140  0.00  0.00    +0.041 C 
ATOM      8  C   LIG    1       23.874 -20.810   4.141  0.00  0.00    +0.107 C 
ATOM      9  C   LIG    1       23.867 -19.300   3.865  0.00  0.00    +0.250 C 
ATOM     10  O   LIG    1       22.867 -18.721   3.455  0.00  0.00    -0.272 OA
ATOM     11  N   LIG    1       25.130 -18.787   4.109  0.00  0.00    -0.193 N 
ATOM     12  C   LIG    1       25.928 -19.798   4.600  0.00  0.00    +0.314 C 
ATOM     13  O   LIG    1       27.108 -19.791   4.924  0.00  0.00    -0.252 OA
ATOM     14  N   LIG    1       25.188 -20.954   4.694  0.00  0.00    -0.285 N 
ATOM     15  H   LIG    1       25.628 -21.822   4.974  0.00  0.00    +0.151 HD
ATOM     16  C   LIG    1       23.751 -21.571   2.824  0.00  0.00    +0.041 C 
ENDBRANCH   1  11
BRANCH   3  17
ATOM     17  C   LIG    1       23.968 -13.944   3.958  0.00  0.00    +0.424 C 
ATOM     18  F   LIG    1       22.881 -14.424   4.627  0.00  0.00    -0.166 F 
ATOM     19  F   LIG    1       23.495 -13.482   2.769  0.00  0.00    -0.166 F 
ATOM     20  F   LIG    1       24.364 -12.854   4.660  0.00  0.00    -0.166 F 
ENDBRANCH   3  17
BRANCH   4  21
ATOM     21  N   LIG    1       26.794 -13.427   3.068  0.00  0.00    +0.080 N 
ATOM     22  O   LIG    1       26.242 -12.865   2.116  0.00  0.00    -0.576 OA
ATOM     23  O   LIG    1       27.732 -12.981   3.742  0.00  0.00    +0.042 OA
ENDBRANCH   4  21
TORSDOF 3
ENDMDL
MODEL 8
REMARK VINA RESULT:      -3.5      2.103      3.142
REMARK  Name = *****
REMARK                            x       y       z     vdW  Elec       q    Type
REMARK                         _______ _______ _______ _____ _____    ______ ____
ROOT
ATOM      1  C   LIG    1       23.917 -16.832   4.182  0.00  0.00    +0.046 A 
ATOM      2  C   LIG    1       24.509 -18.058   3.819  0.00  0.00    +0.043 A 
ATOM      3  C   LIG    1       23.861 -19.307   3.974  0.00  0.00    +0.133 A 
ATOM      4  C   LIG    1       22.572 -19.301   4.504  0.00  0.00    +0.285 A 
ATOM      5  C   LIG    1       21.951 -18.112   4.892  0.00  0.00    +0.086 A 
ATOM      6  C   LIG    1       22.624 -16.896   4.730  0.00  0.00    +0.030 A 
ENDROOT
BRANCH   1  11
ATOM      7  C   LIG    1       27.453 -13.554   4.073  0.00  0.00    +0.041 C 
ATOM      8  C   LIG    1       26.171 -13.924   3.345  0.00  0.00    +0.107 C 
ATOM      9  C   LIG    1       25.866 -15.423   3.477  0.00  0.00    +0.250 C 
ATOM     10  O   LIG    1       26.666 -16.280   3.119  0.00  0.00    -0.272 OA
ATOM     11  N   LIG    1       24.592 -15.584   3.994  0.00  0.00    -0.193 N 
ATOM     12  C   LIG    1       24.077 -14.341   4.292  0.00  0.00    +0.314 C 
ATOM     13  O   LIG    1       22.986 -14.021   4.743  0.00  0.00    -0.252 OA
ATOM     14  N   LIG    1       25.014 -13.379   3.992  0.00  0.00    -0.285 N 
ATOM     15  H   LIG    1       24.786 -12.396   4.083  0.00  0.00    +0.151 HD
ATOM     16  C   LIG    1       26.204 -13.538   1.869  0.00  0.00    +0.041 C 
ENDBRANCH   1  11
BRANCH   3  17
ATOM     17  C   LIG    1       24.609 -20.549   3.566  0.00  0.00    +0.424 C 
ATOM     18  F   LIG    1       25.121 -21.202   4.648  0.00  0.00    -0.166 F 
ATOM     19  F   LIG    1       25.676 -20.262   2.771  0.00  0.00    -0.166 F 
ATOM     20  F   LIG    1       23.878 -21.478   2.903  0.00  0.00    -0.166 F 
ENDBRANCH   3  17
BRANCH   4  21
ATOM     21  N   LIG    1       21.802 -20.522   4.644  0.00  0.00    +0.080 N 
ATOM     22  O   LIG    1       20.768 -20.606   3.973  0.00  0.00    -0.576 OA
ATOM     23  O   LIG    1       22.220 -21.355   5.459  0.00  0.00    +0.042 OA
ENDBRANCH   4  21
TORSDOF 3
ENDMDL
MODEL 9
REMARK VINA RESULT:      -3.2      2.441      6.205
REMARK  Name = *****
REMARK                            x       y       z     vdW  Elec       q    Type
REMARK                         _______ _______ _______ _____ _____    ______ ____
ROOT
ATOM      1  C   LIG    1       24.727 -17.971   3.867  0.00  0.00    +0.046 A 
ATOM      2  C   LIG    1       24.087 -16.728   4.046  0.00  0.00    +0.043 A 
ATOM      3  C   LIG    1       24.723 -15.487   3.799  0.00  0.00    +0.133 A 
ATOM      4  C   LIG    1       26.041 -15.519   3.349  0.00  0.00    +0.285 A 
ATOM      5  C   LIG    1       26.721 -16.726   3.172  0.00  0.00    +0.086 A 
ATOM      6  C   LIG    1       26.062 -17.934   3.432  0.00  0.00    +0.030 A 
ENDROOT
BRANCH   1  11
ATOM      7  C   LIG    1       22.548 -21.572   6.222  0.00  0.00    +0.041 C 
ATOM      8  C   LIG    1       22.507 -20.847   4.887  0.00  0.00    +0.107 C 
ATOM      9  C   LIG    1       23.024 -19.408   5.017  0.00  0.00    +0.250 C 
ATOM     10  O   LIG    1       22.525 -18.608   5.801  0.00  0.00    -0.272 OA
ATOM     11  N   LIG    1       24.050 -19.209   4.107  0.00  0.00    -0.193 N 
ATOM     12  C   LIG    1       24.305 -20.401   3.465  0.00  0.00    +0.314 C 
ATOM     13  O   LIG    1       25.107 -20.670   2.581  0.00  0.00    -0.252 OA
ATOM     14  N   LIG    1       23.469 -21.373   3.965  0.00  0.00    -0.285 N 
ATOM     15  H   LIG    1       23.468 -22.303   3.563  0.00  0.00    +0.151 HD
ATOM     16  C   LIG    1       21.111 -20.834   4.270  0.00  0.00    +0.041 C 
ENDBRANCH   1  11
BRANCH   3  17
ATOM     17  C   LIG    1       23.936 -14.227   4.047  0.00  0.00    +0.424 C 
ATOM     18  F   LIG    1       22.810 -14.477   4.774  0.00  0.00    -0.166 F 
ATOM     19  F   LIG    1       23.509 -13.658   2.888  0.00  0.00    -0.166 F 
ATOM     20  F   LIG    1       24.591 -13.257   4.730  0.00  0.00    -0.166 F 
ENDBRANCH   3  17
BRANCH   4  21
ATOM     21  N   LIG    1       26.758 -14.305   3.009  0.00  0.00    +0.080 N 
ATOM     22  O   LIG    1       26.541 -13.828   1.891  0.00  0.00    -0.576 OA
ATOM     23  O   LIG    1       27.560 -13.877   3.849  0.00  0.00    +0.042 OA
ENDBRANCH   4  21
TORSDOF 3
ENDMDL
