MODEL 1
REMARK VINA RESULT:      -8.7      0.000      0.000
REMARK  Name = *****
REMARK                            x       y       z     vdW  Elec       q    Type
REMARK                         _______ _______ _______ _____ _____    ______ ____
ROOT
ATOM      1  C   LIG    1       23.557 -18.522   3.868  0.00  0.00    +0.105 C 
ATOM      2  N   LIG    1       23.767 -19.866   4.410  0.00  0.00    -0.298 NA
ATOM      3  C   LIG    1       24.936 -19.927   5.338  0.00  0.00    +0.092 C 
ATOM      4  C   LIG    1       26.262 -19.647   4.593  0.00  0.00    +0.059 C 
ATOM      5  C   LIG    1       27.458 -19.738   5.516  0.00  0.00    -0.034 A 
ATOM      6  C   LIG    1       27.471 -20.713   6.544  0.00  0.00    +0.031 A 
ATOM      7  C   LIG    1       26.296 -21.625   6.666  0.00  0.00    -0.009 A 
ATOM      8  C   LIG    1       26.366 -22.870   7.316  0.00  0.00    +0.009 A 
ATOM      9  C   LIG    1       25.257 -23.713   7.420  0.00  0.00    +0.001 A 
ATOM     10  C   LIG    1       24.046 -23.339   6.857  0.00  0.00    +0.004 A 
ATOM     11  C   LIG    1       23.936 -22.120   6.182  0.00  0.00    -0.041 A 
ATOM     12  C   LIG    1       22.635 -21.769   5.512  0.00  0.00    +0.051 C 
ATOM     13  C   LIG    1       28.610 -20.730   7.369  0.00  0.00    +0.166 A 
ATOM     14  C   LIG    1       29.691 -19.863   7.152  0.00  0.00    +0.159 A 
ATOM     15  C   LIG    1       29.675 -18.939   6.121  0.00  0.00    +0.049 A 
ATOM     16  C   LIG    1       28.553 -18.876   5.303  0.00  0.00    +0.008 A 
ATOM     17  C   LIG    1       25.058 -21.270   6.066  0.00  0.00    -0.019 A 
ATOM     18  C   LIG    1       22.552 -20.295   5.121  0.00  0.00    +0.089 C 
ENDROOT
BRANCH  13  19
ATOM     19  O   LIG    1       28.722 -21.576   8.446  0.00  0.00    -0.503 OA
ATOM     20  H   LIG    1       29.441 -22.193   8.203  0.00  0.00    +0.292 HD
ENDBRANCH  13  19
BRANCH  14  21
ATOM     21  O   LIG    1       30.762 -19.967   8.002  0.00  0.00    -0.503 OA
ATOM     22  H   LIG    1       30.665 -19.292   8.696  0.00  0.00    +0.292 HD
ENDBRANCH  14  21
TORSDOF 2
ENDMDL
MODEL 2
REMARK VINA RESULT:      -7.7      1.619      3.597
REMARK  Name = *****
REMARK                            x       y       z     vdW  Elec       q    Type
REMARK                         _______ _______ _______ _____ _____    ______ ____
ROOT
ATOM      1  C   LIG    1       24.644 -23.311   6.874  0.00  0.00    +0.105 C 
ATOM      2  N   LIG    1       24.671 -22.014   6.194  0.00  0.00    -0.298 NA
ATOM      3  C   LIG    1       26.059 -21.487   6.035  0.00  0.00    +0.092 C 
ATOM      4  C   LIG    1       26.702 -21.169   7.405  0.00  0.00    +0.059 C 
ATOM      5  C   LIG    1       28.098 -20.603   7.256  0.00  0.00    -0.034 A 
ATOM      6  C   LIG    1       28.384 -19.733   6.174  0.00  0.00    +0.031 A 
ATOM      7  C   LIG    1       27.281 -19.401   5.226  0.00  0.00    -0.009 A 
ATOM      8  C   LIG    1       27.299 -18.254   4.412  0.00  0.00    +0.009 A 
ATOM      9  C   LIG    1       26.257 -17.956   3.530  0.00  0.00    +0.001 A 
ATOM     10  C   LIG    1       25.154 -18.793   3.452  0.00  0.00    +0.004 A 
ATOM     11  C   LIG    1       25.082 -19.932   4.259  0.00  0.00    -0.041 A 
ATOM     12  C   LIG    1       23.842 -20.783   4.216  0.00  0.00    +0.051 C 
ATOM     13  C   LIG    1       29.704 -19.255   6.094  0.00  0.00    +0.166 A 
ATOM     14  C   LIG    1       30.668 -19.584   7.059  0.00  0.00    +0.159 A 
ATOM     15  C   LIG    1       30.361 -20.409   8.128  0.00  0.00    +0.049 A 
ATOM     16  C   LIG    1       29.072 -20.920   8.224  0.00  0.00    +0.008 A 
ATOM     17  C   LIG    1       26.129 -20.230   5.159  0.00  0.00    -0.019 A 
ATOM     18  C   LIG    1       24.040 -22.148   4.871  0.00  0.00    +0.089 C 
ENDROOT
BRANCH  13  19
ATOM     19  O   LIG    1       30.135 -18.462   5.059  0.00  0.00    -0.503 OA
ATOM     20  H   LIG    1       29.485 -17.732   5.017  0.00  0.00    +0.292 HD
ENDBRANCH  13  19
BRANCH  14  21
ATOM     21  O   LIG    1       31.923 -19.056   6.901  0.00  0.00    -0.503 OA
ATOM     22  H   LIG    1       32.546 -19.600   7.415  0.00  0.00    +0.292 HD
ENDBRANCH  14  21
TORSDOF 2
ENDMDL
MODEL 3
REMARK VINA RESULT:      -7.6      2.056      3.665
REMARK  Name = *****
REMARK                            x       y       z     vdW  Elec       q    Type
REMARK                         _______ _______ _______ _____ _____    ______ ____
ROOT
ATOM      1  C   LIG    1       25.877 -25.252   7.502  0.00  0.00    +0.105 C 
ATOM      2  N   LIG    1       24.997 -24.120   7.199  0.00  0.00    -0.298 NA
ATOM      3  C   LIG    1       25.720 -23.010   6.508  0.00  0.00    +0.092 C 
ATOM      4  C   LIG    1       26.790 -22.376   7.427  0.00  0.00    +0.059 C 
ATOM      5  C   LIG    1       27.507 -21.228   6.750  0.00  0.00    -0.034 A 
ATOM      6  C   LIG    1       26.783 -20.368   5.887  0.00  0.00    +0.031 A 
ATOM      7  C   LIG    1       25.328 -20.628   5.691  0.00  0.00    -0.009 A 
ATOM      8  C   LIG    1       24.432 -19.639   5.244  0.00  0.00    +0.009 A 
ATOM      9  C   LIG    1       23.072 -19.898   5.067  0.00  0.00    +0.001 A 
ATOM     10  C   LIG    1       22.563 -21.157   5.350  0.00  0.00    +0.004 A 
ATOM     11  C   LIG    1       23.411 -22.165   5.818  0.00  0.00    -0.041 A 
ATOM     12  C   LIG    1       22.825 -23.499   6.194  0.00  0.00    +0.051 C 
ATOM     13  C   LIG    1       27.518 -19.330   5.286  0.00  0.00    +0.166 A 
ATOM     14  C   LIG    1       28.879 -19.132   5.565  0.00  0.00    +0.159 A 
ATOM     15  C   LIG    1       29.561 -19.963   6.437  0.00  0.00    +0.049 A 
ATOM     16  C   LIG    1       28.872 -21.014   7.029  0.00  0.00    +0.008 A 
ATOM     17  C   LIG    1       24.785 -21.902   6.009  0.00  0.00    -0.019 A 
ATOM     18  C   LIG    1       23.886 -24.585   6.354  0.00  0.00    +0.089 C 
ENDROOT
BRANCH  13  19
ATOM     19  O   LIG    1       26.958 -18.468   4.375  0.00  0.00    -0.503 OA
ATOM     20  H   LIG    1       26.071 -18.838   4.196  0.00  0.00    +0.292 HD
ENDBRANCH  13  19
BRANCH  14  21
ATOM     21  O   LIG    1       29.504 -18.084   4.940  0.00  0.00    -0.503 OA
ATOM     22  H   LIG    1       28.986 -17.851   4.150  0.00  0.00    +0.292 HD
ENDBRANCH  14  21
TORSDOF 2
ENDMDL
MODEL 4
REMARK VINA RESULT:      -6.9      2.902      6.207
REMARK  Name = *****
REMARK                            x       y       z     vdW  Elec       q    Type
REMARK                         _______ _______ _______ _____ _____    ______ ____
ROOT
ATOM      1  C   LIG    1       30.396 -21.847   9.493  0.00  0.00    +0.105 C 
ATOM      2  N   LIG    1       30.201 -21.076   8.262  0.00  0.00    -0.298 NA
ATOM      3  C   LIG    1       28.762 -20.974   7.880  0.00  0.00    +0.092 C 
ATOM      4  C   LIG    1       28.176 -22.358   7.515  0.00  0.00    +0.059 C 
ATOM      5  C   LIG    1       26.725 -22.264   7.093  0.00  0.00    -0.034 A 
ATOM      6  C   LIG    1       26.290 -21.143   6.343  0.00  0.00    +0.031 A 
ATOM      7  C   LIG    1       27.295 -20.099   5.988  0.00  0.00    -0.009 A 
ATOM      8  C   LIG    1       27.115 -19.205   4.917  0.00  0.00    +0.009 A 
ATOM      9  C   LIG    1       28.066 -18.234   4.597  0.00  0.00    +0.001 A 
ATOM     10  C   LIG    1       29.239 -18.142   5.331  0.00  0.00    +0.004 A 
ATOM     11  C   LIG    1       29.471 -19.024   6.390  0.00  0.00    -0.041 A 
ATOM     12  C   LIG    1       30.783 -18.959   7.124  0.00  0.00    +0.051 C 
ATOM     13  C   LIG    1       24.927 -21.119   5.997  0.00  0.00    +0.166 A 
ATOM     14  C   LIG    1       24.061 -22.170   6.335  0.00  0.00    +0.159 A 
ATOM     15  C   LIG    1       24.512 -23.273   7.039  0.00  0.00    +0.049 A 
ATOM     16  C   LIG    1       25.848 -23.318   7.420  0.00  0.00    +0.008 A 
ATOM     17  C   LIG    1       28.515 -20.014   6.710  0.00  0.00    -0.019 A 
ATOM     18  C   LIG    1       30.759 -19.727   8.444  0.00  0.00    +0.089 C 
ENDROOT
BRANCH  13  19
ATOM     19  O   LIG    1       24.358 -20.060   5.333  0.00  0.00    -0.503 OA
ATOM     20  H   LIG    1       24.866 -19.279   5.629  0.00  0.00    +0.292 HD
ENDBRANCH  13  19
BRANCH  14  21
ATOM     21  O   LIG    1       22.753 -22.061   5.940  0.00  0.00    -0.503 OA
ATOM     22  H   LIG    1       22.538 -21.114   5.867  0.00  0.00    +0.292 HD
ENDBRANCH  14  21
TORSDOF 2
ENDMDL
MODEL 5
REMARK VINA RESULT:      -6.8      2.935      5.863
REMARK  Name = *****
REMARK                            x       y       z     vdW  Elec       q    Type
REMARK                         _______ _______ _______ _____ _____    ______ ____
ROOT
ATOM      1  C   LIG    1       29.844 -20.841   8.037  0.00  0.00    +0.105 C 
ATOM      2  N   LIG    1       29.196 -20.349   6.819  0.00  0.00    -0.298 NA
ATOM      3  C   LIG    1       27.740 -20.677   6.780  0.00  0.00    +0.092 C 
ATOM      4  C   LIG    1       27.508 -22.204   6.699  0.00  0.00    +0.059 C 
ATOM      5  C   LIG    1       26.036 -22.548   6.625  0.00  0.00    -0.034 A 
ATOM      6  C   LIG    1       25.160 -21.707   5.894  0.00  0.00    +0.031 A 
ATOM      7  C   LIG    1       25.736 -20.512   5.213  0.00  0.00    -0.009 A 
ATOM      8  C   LIG    1       25.100 -19.873   4.133  0.00  0.00    +0.009 A 
ATOM      9  C   LIG    1       25.653 -18.755   3.504  0.00  0.00    +0.001 A 
ATOM     10  C   LIG    1       26.875 -18.255   3.929  0.00  0.00    +0.004 A 
ATOM     11  C   LIG    1       27.555 -18.871   4.983  0.00  0.00    -0.041 A 
ATOM     12  C   LIG    1       28.914 -18.360   5.376  0.00  0.00    +0.051 C 
ATOM     13  C   LIG    1       23.805 -22.085   5.880  0.00  0.00    +0.166 A 
ATOM     14  C   LIG    1       23.358 -23.255   6.513  0.00  0.00    +0.159 A 
ATOM     15  C   LIG    1       24.235 -24.082   7.194  0.00  0.00    +0.049 A 
ATOM     16  C   LIG    1       25.577 -23.725   7.251  0.00  0.00    +0.008 A 
ATOM     17  C   LIG    1       27.002 -20.008   5.614  0.00  0.00    -0.019 A 
ATOM     18  C   LIG    1       29.374 -18.890   6.732  0.00  0.00    +0.089 C 
ENDROOT
BRANCH  13  19
ATOM     19  O   LIG    1       22.839 -21.323   5.270  0.00  0.00    -0.503 OA
ATOM     20  H   LIG    1       22.922 -20.440   5.681  0.00  0.00    +0.292 HD
ENDBRANCH  13  19
BRANCH  14  21
ATOM     21  O   LIG    1       22.021 -23.544   6.429  0.00  0.00    -0.503 OA
ATOM     22  H   LIG    1       21.557 -22.743   6.129  0.00  0.00    +0.292 HD
ENDBRANCH  14  21
TORSDOF 2
ENDMDL
MODEL 6
REMARK VINA RESULT:      -6.1      9.640     11.657
REMARK  Name = *****
REMARK                            x       y       z     vdW  Elec       q    Type
REMARK                         _______ _______ _______ _____ _____    ______ ____
ROOT
ATOM      1  C   LIG    1       25.689 -24.220  14.883  0.00  0.00    +0.105 C 
ATOM      2  N   LIG    1       25.701 -25.563  14.298  0.00  0.00    -0.298 NA
ATOM      3  C   LIG    1       24.336 -26.020  13.900  0.00  0.00    +0.092 C 
ATOM      4  C   LIG    1       23.417 -26.191  15.132  0.00  0.00    +0.059 C 
ATOM      5  C   LIG    1       22.040 -26.685  14.745  0.00  0.00    -0.034 A 
ATOM      6  C   LIG    1       21.908 -27.619  13.688  0.00  0.00    +0.031 A 
ATOM      7  C   LIG    1       23.147 -28.088  13.002  0.00  0.00    -0.009 A 
ATOM      8  C   LIG    1       23.205 -29.292  12.277  0.00  0.00    +0.009 A 
ATOM      9  C   LIG    1       24.374 -29.717  11.641  0.00  0.00    +0.001 A 
ATOM     10  C   LIG    1       25.528 -28.955  11.730  0.00  0.00    +0.004 A 
ATOM     11  C   LIG    1       25.524 -27.762  12.459  0.00  0.00    -0.041 A 
ATOM     12  C   LIG    1       26.807 -26.990  12.608  0.00  0.00    +0.051 C 
ATOM     13  C   LIG    1       20.597 -28.024  13.378  0.00  0.00    +0.166 A 
ATOM     14  C   LIG    1       19.491 -27.566  14.108  0.00  0.00    +0.159 A 
ATOM     15  C   LIG    1       19.643 -26.679  15.160  0.00  0.00    +0.049 A 
ATOM     16  C   LIG    1       20.922 -26.237  15.477  0.00  0.00    +0.008 A 
ATOM     17  C   LIG    1       24.347 -27.335  13.111  0.00  0.00    -0.019 A 
ATOM     18  C   LIG    1       26.584 -25.569  13.121  0.00  0.00    +0.089 C 
ENDROOT
BRANCH  13  19
ATOM     19  O   LIG    1       20.319 -28.870  12.331  0.00  0.00    -0.503 OA
ATOM     20  H   LIG    1       19.464 -29.282  12.566  0.00  0.00    +0.292 HD
ENDBRANCH  13  19
BRANCH  14  21
ATOM     21  O   LIG    1       18.255 -28.031  13.738  0.00  0.00    -0.503 OA
ATOM     22  H   LIG    1       17.723 -27.271  13.442  0.00  0.00    +0.292 HD
ENDBRANCH  14  21
TORSDOF 2
ENDMDL
MODEL 7
REMARK VINA RESULT:      -6.0      9.598     10.190
REMARK  Name = *****
REMARK                            x       y       z     vdW  Elec       q    Type
REMARK                         _______ _______ _______ _____ _____    ______ ____
ROOT
ATOM      1  C   LIG    1       20.207 -27.285  14.185  0.00  0.00    +0.105 C 
ATOM      2  N   LIG    1       21.037 -27.902  13.148  0.00  0.00    -0.298 NA
ATOM      3  C   LIG    1       22.496 -27.778  13.442  0.00  0.00    +0.092 C 
ATOM      4  C   LIG    1       22.953 -26.301  13.415  0.00  0.00    +0.059 C 
ATOM      5  C   LIG    1       24.438 -26.165  13.679  0.00  0.00    -0.034 A 
ATOM      6  C   LIG    1       25.328 -27.142  13.168  0.00  0.00    +0.031 A 
ATOM      7  C   LIG    1       24.758 -28.268  12.373  0.00  0.00    -0.009 A 
ATOM      8  C   LIG    1       25.525 -29.024  11.468  0.00  0.00    +0.009 A 
ATOM      9  C   LIG    1       24.975 -30.075  10.731  0.00  0.00    +0.001 A 
ATOM     10  C   LIG    1       23.631 -30.389  10.865  0.00  0.00    +0.004 A 
ATOM     11  C   LIG    1       22.825 -29.651  11.736  0.00  0.00    -0.041 A 
ATOM     12  C   LIG    1       21.353 -29.957  11.809  0.00  0.00    +0.051 C 
ATOM     13  C   LIG    1       26.690 -26.955  13.463  0.00  0.00    +0.166 A 
ATOM     14  C   LIG    1       27.144 -25.837  14.180  0.00  0.00    +0.159 A 
ATOM     15  C   LIG    1       26.262 -24.876  14.642  0.00  0.00    +0.049 A 
ATOM     16  C   LIG    1       24.905 -25.042  14.392  0.00  0.00    +0.008 A 
ATOM     17  C   LIG    1       23.375 -28.581  12.476  0.00  0.00    -0.019 A 
ATOM     18  C   LIG    1       20.679 -29.324  13.024  0.00  0.00    +0.089 C 
ENDROOT
BRANCH  13  19
ATOM     19  O   LIG    1       27.652 -27.862  13.090  0.00  0.00    -0.503 OA
ATOM     20  H   LIG    1       28.067 -28.143  13.930  0.00  0.00    +0.292 HD
ENDBRANCH  13  19
BRANCH  14  21
ATOM     21  O   LIG    1       28.492 -25.738  14.404  0.00  0.00    -0.503 OA
ATOM     22  H   LIG    1       28.866 -26.636  14.403  0.00  0.00    +0.292 HD
ENDBRANCH  14  21
TORSDOF 2
ENDMDL
MODEL 8
REMARK VINA RESULT:      -6.0     10.637     12.413
REMARK  Name = *****
REMARK                            x       y       z     vdW  Elec       q    Type
REMARK                         _______ _______ _______ _____ _____    ______ ____
ROOT
ATOM      1  C   LIG    1       26.752 -29.847  11.632  0.00  0.00    +0.105 C 
ATOM      2  N   LIG    1       25.727 -28.842  11.928  0.00  0.00    -0.298 NA
ATOM      3  C   LIG    1       24.366 -29.444  12.060  0.00  0.00    +0.092 C 
ATOM      4  C   LIG    1       23.882 -30.043  10.720  0.00  0.00    +0.059 C 
ATOM      5  C   LIG    1       22.490 -30.627  10.832  0.00  0.00    -0.034 A 
ATOM      6  C   LIG    1       21.530 -29.984  11.653  0.00  0.00    +0.031 A 
ATOM      7  C   LIG    1       21.936 -28.741  12.370  0.00  0.00    -0.009 A 
ATOM      8  C   LIG    1       21.005 -27.794  12.835  0.00  0.00    +0.009 A 
ATOM      9  C   LIG    1       21.401 -26.634  13.504  0.00  0.00    +0.001 A 
ATOM     10  C   LIG    1       22.748 -26.377  13.709  0.00  0.00    +0.004 A 
ATOM     11  C   LIG    1       23.710 -27.278  13.244  0.00  0.00    -0.041 A 
ATOM     12  C   LIG    1       25.168 -26.942  13.409  0.00  0.00    +0.051 C 
ATOM     13  C   LIG    1       20.263 -30.590  11.717  0.00  0.00    +0.166 A 
ATOM     14  C   LIG    1       19.955 -31.737  10.970  0.00  0.00    +0.159 A 
ATOM     15  C   LIG    1       20.896 -32.332  10.147  0.00  0.00    +0.049 A 
ATOM     16  C   LIG    1       22.167 -31.775  10.080  0.00  0.00    +0.008 A 
ATOM     17  C   LIG    1       23.313 -28.447  12.559  0.00  0.00    -0.019 A 
ATOM     18  C   LIG    1       26.080 -28.144  13.175  0.00  0.00    +0.089 C 
ENDROOT
BRANCH  13  19
ATOM     19  O   LIG    1       19.262 -30.113  12.528  0.00  0.00    -0.503 OA
ATOM     20  H   LIG    1       18.650 -30.868  12.638  0.00  0.00    +0.292 HD
ENDBRANCH  13  19
BRANCH  14  21
ATOM     21  O   LIG    1       18.687 -32.245  11.089  0.00  0.00    -0.503 OA
ATOM     22  H   LIG    1       18.167 -31.942  10.324  0.00  0.00    +0.292 HD
ENDBRANCH  14  21
TORSDOF 2
ENDMDL
MODEL 9
REMARK VINA RESULT:      -5.9      9.477     10.568
REMARK  Name = *****
REMARK                            x       y       z     vdW  Elec       q    Type
REMARK                         _______ _______ _______ _____ _____    ______ ____
ROOT
ATOM      1  C   LIG    1       25.267 -31.676  12.043  0.00  0.00    +0.105 C 
ATOM      2  N   LIG    1       24.206 -30.757  12.463  0.00  0.00    -0.298 NA
ATOM      3  C   LIG    1       24.693 -29.352  12.593  0.00  0.00    +0.092 C 
ATOM      4  C   LIG    1       25.732 -29.218  13.731  0.00  0.00    +0.059 C 
ATOM      5  C   LIG    1       26.210 -27.792  13.895  0.00  0.00    -0.034 A 
ATOM      6  C   LIG    1       25.295 -26.726  13.708  0.00  0.00    +0.031 A 
ATOM      7  C   LIG    1       23.882 -27.061  13.365  0.00  0.00    -0.009 A 
ATOM      8  C   LIG    1       22.815 -26.172  13.585  0.00  0.00    +0.009 A 
ATOM      9  C   LIG    1       21.498 -26.502  13.259  0.00  0.00    +0.001 A 
ATOM     10  C   LIG    1       21.208 -27.745  12.718  0.00  0.00    +0.004 A 
ATOM     11  C   LIG    1       22.233 -28.671  12.503  0.00  0.00    -0.041 A 
ATOM     12  C   LIG    1       21.886 -30.042  11.990  0.00  0.00    +0.051 C 
ATOM     13  C   LIG    1       25.813 -25.428  13.866  0.00  0.00    +0.166 A 
ATOM     14  C   LIG    1       27.148 -25.206  14.237  0.00  0.00    +0.159 A 
ATOM     15  C   LIG    1       28.019 -26.261  14.448  0.00  0.00    +0.049 A 
ATOM     16  C   LIG    1       27.547 -27.557  14.274  0.00  0.00    +0.008 A 
ATOM     17  C   LIG    1       23.565 -28.344  12.841  0.00  0.00    -0.019 A 
ATOM     18  C   LIG    1       23.107 -30.809  11.486  0.00  0.00    +0.089 C 
ENDROOT
BRANCH  13  19
ATOM     19  O   LIG    1       25.055 -24.304  13.646  0.00  0.00    -0.503 OA
ATOM     20  H   LIG    1       25.161 -23.770  14.458  0.00  0.00    +0.292 HD
ENDBRANCH  13  19
BRANCH  14  21
ATOM     21  O   LIG    1       27.554 -23.905  14.380  0.00  0.00    -0.503 OA
ATOM     22  H   LIG    1       26.784 -23.377  14.655  0.00  0.00    +0.292 HD
ENDBRANCH  14  21
TORSDOF 2
ENDMDL
