MODEL 1
REMARK VINA RESULT:       7.1      0.000      0.000
REMARK  Name = *****
REMARK                            x       y       z     vdW  Elec       q    Type
REMARK                         _______ _______ _______ _____ _____    ______ ____
ROOT
ATOM      1  C   LIG    1       24.858 -19.677   5.508  0.00  0.00    +0.002 C 
ATOM      2  C   LIG    1       25.495 -19.757   4.079  0.00  0.00    -0.022 C 
ATOM      3  C   LIG    1       25.444 -21.195   3.508  0.00  0.00    +0.012 C 
ATOM      4  C   LIG    1       26.987 -19.357   4.346  0.00  0.00    +0.021 C 
ATOM      5  C   LIG    1       27.339 -17.864   4.275  0.00  0.00    -0.062 C 
ATOM      6  C   LIG    1       26.510 -16.959   3.370  0.00  0.00    +0.025 C 
ATOM      7  C   LIG    1       25.026 -17.351   3.352  0.00  0.00    +0.009 C 
ATOM      8  C   LIG    1       26.736 -15.397   3.565  0.00  0.00    -0.004 C 
ATOM      9  C   LIG    1       26.431 -14.755   2.182  0.00  0.00    +0.016 C 
ATOM     10  C   LIG    1       28.160 -15.084   4.007  0.00  0.00    -0.061 C 
ATOM     11  C   LIG    1       28.550 -13.622   4.025  0.00  0.00    +0.062 C 
ATOM     12  C   LIG    1       27.462 -12.760   4.700  0.00  0.00    +0.119 C 
ATOM     13  C   LIG    1       26.428 -13.597   5.460  0.00  0.00    +0.032 C 
ATOM     14  C   LIG    1       28.948 -16.032   4.553  0.00  0.00    -0.000 C 
ATOM     15  C   LIG    1       25.818 -14.769   4.656  0.00  0.00    +0.014 C 
ATOM     16  C   LIG    1       28.495 -17.381   4.771  0.00  0.00    -0.000 C 
ATOM     17  C   LIG    1       27.296 -20.032   5.698  0.00  0.00    +0.009 C 
ATOM     18  C   LIG    1       24.870 -18.827   3.022  0.00  0.00    +0.008 C 
ATOM     19  C   LIG    1       25.966 -20.244   6.418  0.00  0.00    +0.005 C 
ENDROOT
BRANCH   1  20
ATOM     20  C   LIG    1       23.494 -20.385   5.789  0.00  0.00    +0.012 C 
ATOM     21  C   LIG    1       23.207 -21.572   4.868  0.00  0.00    +0.012 C 
BRANCH  20  23
ATOM     22  C   LIG    1       22.310 -18.379   4.797  0.00  0.00    -0.027 C 
ATOM     23  C   LIG    1       22.327 -19.411   5.660  0.00  0.00    -0.027 C 
BRANCH  22  24
ATOM     24  C   LIG    1       21.171 -17.390   4.651  0.00  0.00    +0.011 C 
ATOM     25  C   LIG    1       20.529 -17.569   3.268  0.00  0.00    +0.012 C 
BRANCH  24  27
ATOM     26  C   LIG    1       21.759 -15.592   6.388  0.00  0.00    +0.008 C 
ATOM     27  C   LIG    1       21.587 -15.908   4.897  0.00  0.00    -0.011 C 
ATOM     28  C   LIG    1       22.850 -15.482   4.139  0.00  0.00    +0.008 C 
ENDBRANCH  24  27
ENDBRANCH  22  24
ENDBRANCH  20  23
ENDBRANCH   1  20
BRANCH  12  29
ATOM     29  O   LIG    1       26.799 -11.949   3.729  0.00  0.00    -0.392 OA
ATOM     30  H   LIG    1       27.257 -12.073   2.880  0.00  0.00    +0.210 HD
ENDBRANCH  12  29
TORSDOF 5
ENDMDL
MODEL 2
REMARK VINA RESULT:       8.3      0.927      1.491
REMARK  Name = *****
REMARK                            x       y       z     vdW  Elec       q    Type
REMARK                         _______ _______ _______ _____ _____    ______ ____
ROOT
ATOM      1  C   LIG    1       24.724 -19.435   5.764  0.00  0.00    +0.002 C 
ATOM      2  C   LIG    1       25.116 -19.522   4.250  0.00  0.00    -0.022 C 
ATOM      3  C   LIG    1       24.897 -20.946   3.682  0.00  0.00    +0.012 C 
ATOM      4  C   LIG    1       26.652 -19.205   4.276  0.00  0.00    +0.021 C 
ATOM      5  C   LIG    1       27.068 -17.732   4.162  0.00  0.00    -0.062 C 
ATOM      6  C   LIG    1       26.154 -16.768   3.411  0.00  0.00    +0.025 C 
ATOM      7  C   LIG    1       24.667 -17.082   3.630  0.00  0.00    +0.009 C 
ATOM      8  C   LIG    1       26.493 -15.224   3.581  0.00  0.00    -0.004 C 
ATOM      9  C   LIG    1       26.004 -14.543   2.272  0.00  0.00    +0.016 C 
ATOM     10  C   LIG    1       27.984 -14.993   3.789  0.00  0.00    -0.061 C 
ATOM     11  C   LIG    1       28.450 -13.554   3.757  0.00  0.00    +0.062 C 
ATOM     12  C   LIG    1       27.533 -12.649   4.608  0.00  0.00    +0.119 C 
ATOM     13  C   LIG    1       26.592 -13.444   5.518  0.00  0.00    +0.032 C 
ATOM     14  C   LIG    1       28.798 -15.990   4.191  0.00  0.00    -0.000 C 
ATOM     15  C   LIG    1       25.798 -14.569   4.812  0.00  0.00    +0.014 C 
ATOM     16  C   LIG    1       28.314 -17.318   4.468  0.00  0.00    -0.000 C 
ATOM     17  C   LIG    1       27.138 -19.919   5.553  0.00  0.00    +0.009 C 
ATOM     18  C   LIG    1       24.381 -18.543   3.316  0.00  0.00    +0.008 C 
ATOM     19  C   LIG    1       25.932 -20.075   6.477  0.00  0.00    +0.005 C 
ENDROOT
BRANCH   1  20
ATOM     20  C   LIG    1       23.387 -20.076   6.256  0.00  0.00    +0.012 C 
ATOM     21  C   LIG    1       23.268 -21.572   5.960  0.00  0.00    +0.012 C 
BRANCH  20  23
ATOM     22  C   LIG    1       21.419 -19.943   4.669  0.00  0.00    -0.027 C 
ATOM     23  C   LIG    1       22.179 -19.387   5.631  0.00  0.00    -0.027 C 
BRANCH  22  24
ATOM     24  C   LIG    1       20.219 -19.281   4.021  0.00  0.00    +0.011 C 
ATOM     25  C   LIG    1       19.351 -20.361   3.360  0.00  0.00    +0.012 C 
BRANCH  24  27
ATOM     26  C   LIG    1       19.396 -17.734   2.145  0.00  0.00    +0.008 C 
ATOM     27  C   LIG    1       20.590 -18.153   3.012  0.00  0.00    -0.011 C 
ATOM     28  C   LIG    1       21.204 -16.909   3.664  0.00  0.00    +0.008 C 
ENDBRANCH  24  27
ENDBRANCH  22  24
ENDBRANCH  20  23
ENDBRANCH   1  20
BRANCH  12  29
ATOM     29  O   LIG    1       26.768 -11.787   3.764  0.00  0.00    -0.392 OA
ATOM     30  H   LIG    1       26.329 -12.342   3.096  0.00  0.00    +0.210 HD
ENDBRANCH  12  29
TORSDOF 5
ENDMDL
MODEL 3
REMARK VINA RESULT:       8.6      2.362      6.971
REMARK  Name = *****
REMARK                            x       y       z     vdW  Elec       q    Type
REMARK                         _______ _______ _______ _____ _____    ______ ____
ROOT
ATOM      1  C   LIG    1       26.752 -14.578   4.911  0.00  0.00    +0.002 C 
ATOM      2  C   LIG    1       26.154 -14.645   3.465  0.00  0.00    -0.022 C 
ATOM      3  C   LIG    1       26.631 -13.459   2.592  0.00  0.00    +0.012 C 
ATOM      4  C   LIG    1       24.614 -14.510   3.726  0.00  0.00    +0.021 C 
ATOM      5  C   LIG    1       23.825 -15.804   3.969  0.00  0.00    -0.062 C 
ATOM      6  C   LIG    1       24.330 -17.099   3.340  0.00  0.00    +0.025 C 
ATOM      7  C   LIG    1       25.863 -17.182   3.323  0.00  0.00    +0.009 C 
ATOM      8  C   LIG    1       23.643 -18.434   3.864  0.00  0.00    -0.004 C 
ATOM      9  C   LIG    1       23.724 -19.438   2.681  0.00  0.00    +0.016 C 
ATOM     10  C   LIG    1       22.196 -18.198   4.279  0.00  0.00    -0.061 C 
ATOM     11  C   LIG    1       21.382 -19.432   4.600  0.00  0.00    +0.062 C 
ATOM     12  C   LIG    1       22.165 -20.399   5.515  0.00  0.00    +0.119 C 
ATOM     13  C   LIG    1       23.413 -19.756   6.129  0.00  0.00    +0.032 C 
ATOM     14  C   LIG    1       21.739 -16.960   4.552  0.00  0.00    -0.000 C 
ATOM     15  C   LIG    1       24.340 -19.036   5.121  0.00  0.00    +0.014 C 
ATOM     16  C   LIG    1       22.582 -15.793   4.490  0.00  0.00    -0.000 C 
ATOM     17  C   LIG    1       24.539 -13.481   4.871  0.00  0.00    +0.009 C 
ATOM     18  C   LIG    1       26.455 -15.936   2.682  0.00  0.00    +0.008 C 
ATOM     19  C   LIG    1       25.878 -13.513   5.604  0.00  0.00    +0.005 C 
ENDROOT
BRANCH   1  20
ATOM     20  C   LIG    1       28.270 -14.263   5.109  0.00  0.00    +0.012 C 
ATOM     21  C   LIG    1       28.899 -13.485   3.952  0.00  0.00    +0.012 C 
BRANCH  20  23
ATOM     22  C   LIG    1       28.529 -16.753   5.491  0.00  0.00    -0.027 C 
ATOM     23  C   LIG    1       29.081 -15.541   5.297  0.00  0.00    -0.027 C 
BRANCH  22  24
ATOM     24  C   LIG    1       29.307 -18.038   5.690  0.00  0.00    +0.011 C 
ATOM     25  C   LIG    1       29.475 -18.734   4.332  0.00  0.00    +0.012 C 
BRANCH  24  27
ATOM     26  C   LIG    1       27.216 -19.328   6.434  0.00  0.00    +0.008 C 
ATOM     27  C   LIG    1       28.681 -18.997   6.746  0.00  0.00    -0.011 C 
ATOM     28  C   LIG    1       29.463 -20.300   6.948  0.00  0.00    +0.008 C 
ENDBRANCH  24  27
ENDBRANCH  22  24
ENDBRANCH  20  23
ENDBRANCH   1  20
BRANCH  12  29
ATOM     29  O   LIG    1       22.540 -21.571   4.791  0.00  0.00    -0.392 OA
ATOM     30  H   LIG    1       23.065 -22.131   5.388  0.00  0.00    +0.210 HD
ENDBRANCH  12  29
TORSDOF 5
ENDMDL
MODEL 4
REMARK VINA RESULT:       9.5      2.297      6.670
REMARK  Name = *****
REMARK                            x       y       z     vdW  Elec       q    Type
REMARK                         _______ _______ _______ _____ _____    ______ ____
ROOT
ATOM      1  C   LIG    1       23.782 -14.478   5.153  0.00  0.00    +0.002 C 
ATOM      2  C   LIG    1       23.587 -15.112   3.734  0.00  0.00    -0.022 C 
ATOM      3  C   LIG    1       22.812 -14.165   2.785  0.00  0.00    +0.012 C 
ATOM      4  C   LIG    1       22.705 -16.372   4.041  0.00  0.00    +0.021 C 
ATOM      5  C   LIG    1       23.439 -17.678   4.378  0.00  0.00    -0.062 C 
ATOM      6  C   LIG    1       24.831 -17.907   3.799  0.00  0.00    +0.025 C 
ATOM      7  C   LIG    1       25.656 -16.614   3.734  0.00  0.00    +0.009 C 
ATOM      8  C   LIG    1       25.642 -19.128   4.416  0.00  0.00    -0.004 C 
ATOM      9  C   LIG    1       26.589 -19.615   3.284  0.00  0.00    +0.016 C 
ATOM     10  C   LIG    1       24.715 -20.249   4.868  0.00  0.00    -0.061 C 
ATOM     11  C   LIG    1       25.381 -21.544   5.280  0.00  0.00    +0.062 C 
ATOM     12  C   LIG    1       26.581 -21.284   6.216  0.00  0.00    +0.119 C 
ATOM     13  C   LIG    1       26.616 -19.849   6.752  0.00  0.00    +0.032 C 
ATOM     14  C   LIG    1       23.404 -20.027   5.092  0.00  0.00    -0.000 C 
ATOM     15  C   LIG    1       26.473 -18.746   5.677  0.00  0.00    +0.014 C 
ATOM     16  C   LIG    1       22.804 -18.726   4.941  0.00  0.00    -0.000 C 
ATOM     17  C   LIG    1       21.741 -15.871   5.134  0.00  0.00    +0.009 C 
ATOM     18  C   LIG    1       24.880 -15.525   3.008  0.00  0.00    +0.008 C 
ATOM     19  C   LIG    1       22.406 -14.680   5.820  0.00  0.00    +0.005 C 
ENDROOT
BRANCH   1  20
ATOM     20  C   LIG    1       24.247 -12.992   5.281  0.00  0.00    +0.012 C 
ATOM     21  C   LIG    1       23.513 -12.028   4.347  0.00  0.00    +0.012 C 
BRANCH  20  23
ATOM     22  C   LIG    1       26.665 -13.722   5.449  0.00  0.00    -0.027 C 
ATOM     23  C   LIG    1       25.740 -12.853   5.003  0.00  0.00    -0.027 C 
BRANCH  22  24
ATOM     24  C   LIG    1       28.156 -13.606   5.197  0.00  0.00    +0.011 C 
ATOM     25  C   LIG    1       28.672 -12.316   5.849  0.00  0.00    +0.012 C 
BRANCH  24  27
ATOM     26  C   LIG    1       27.319 -13.749   2.774  0.00  0.00    +0.008 C 
ATOM     27  C   LIG    1       28.547 -13.677   3.690  0.00  0.00    -0.011 C 
ATOM     28  C   LIG    1       29.459 -12.534   3.228  0.00  0.00    +0.008 C 
ENDBRANCH  24  27
ENDBRANCH  22  24
ENDBRANCH  20  23
ENDBRANCH   1  20
BRANCH  12  29
ATOM     29  O   LIG    1       27.806 -21.572   5.541  0.00  0.00    -0.392 OA
ATOM     30  H   LIG    1       27.588 -21.807   4.622  0.00  0.00    +0.210 HD
ENDBRANCH  12  29
TORSDOF 5
ENDMDL
