MODEL 1
REMARK VINA RESULT:      -6.6      0.000      0.000
REMARK  Name = *****
REMARK                            x       y       z     vdW  Elec       q    Type
REMARK                         _______ _______ _______ _____ _____    ______ ____
ROOT
ATOM      1  C   LIG    1       25.130 -22.086   7.478  0.00  0.00    -0.014 A 
ATOM      2  C   LIG    1       23.754 -22.267   7.257  0.00  0.00    +0.055 A 
ATOM      3  C   LIG    1       23.291 -23.481   6.763  0.00  0.00    +0.159 A 
ATOM      4  C   LIG    1       24.167 -24.521   6.475  0.00  0.00    +0.158 A 
ATOM      5  C   LIG    1       25.531 -24.362   6.673  0.00  0.00    +0.049 A 
ATOM      6  C   LIG    1       26.006 -23.145   7.172  0.00  0.00    +0.010 A 
ENDROOT
BRANCH   3   7
ATOM      7  O   LIG    1       21.948 -23.650   6.568  0.00  0.00    -0.503 OA
ATOM      8  H   LIG    1       21.890 -24.338   5.874  0.00  0.00    +0.292 HD
ENDBRANCH   3   7
BRANCH   4   9
ATOM      9  O   LIG    1       23.639 -25.691   6.002  0.00  0.00    -0.503 OA
ATOM     10  H   LIG    1       24.337 -26.369   6.033  0.00  0.00    +0.292 HD
ENDBRANCH   4   9
BRANCH   1  11
ATOM     11  C   LIG    1       25.643 -20.769   8.030  0.00  0.00    +0.158 C 
BRANCH  11  12
ATOM     12  O   LIG    1       25.827 -20.875   9.448  0.00  0.00    -0.386 OA
ATOM     13  H   LIG    1       26.675 -21.357   9.545  0.00  0.00    +0.210 HD
ENDBRANCH  11  12
BRANCH  11  14
ATOM     14  C   LIG    1       26.972 -20.298   7.391  0.00  0.00    +0.114 C 
BRANCH  14  15
ATOM     15  N   LIG    1       28.064 -20.221   8.384  0.00  0.00    -0.327 NA
ATOM     16  H   LIG    1       28.139 -19.252   8.702  0.00  0.00    +0.118 HD
ATOM     17  H   LIG    1       27.786 -20.752   9.210  0.00  0.00    +0.118 HD
ENDBRANCH  14  15
ENDBRANCH  11  14
ENDBRANCH   1  11
TORSDOF 6
ENDMDL
MODEL 2
REMARK VINA RESULT:      -6.5      4.856      6.308
REMARK  Name = *****
REMARK                            x       y       z     vdW  Elec       q    Type
REMARK                         _______ _______ _______ _____ _____    ______ ____
ROOT
ATOM      1  C   LIG    1       30.150 -19.706   7.949  0.00  0.00    -0.014 A 
ATOM      2  C   LIG    1       30.088 -18.775   6.899  0.00  0.00    +0.055 A 
ATOM      3  C   LIG    1       29.169 -18.956   5.872  0.00  0.00    +0.159 A 
ATOM      4  C   LIG    1       28.312 -20.050   5.859  0.00  0.00    +0.158 A 
ATOM      5  C   LIG    1       28.364 -20.992   6.877  0.00  0.00    +0.049 A 
ATOM      6  C   LIG    1       29.283 -20.816   7.917  0.00  0.00    +0.010 A 
ENDROOT
BRANCH   3   7
ATOM      7  O   LIG    1       29.106 -18.032   4.865  0.00  0.00    -0.503 OA
ATOM      8  H   LIG    1       28.988 -17.178   5.329  0.00  0.00    +0.292 HD
ENDBRANCH   3   7
BRANCH   4   9
ATOM      9  O   LIG    1       27.426 -20.159   4.822  0.00  0.00    -0.503 OA
ATOM     10  H   LIG    1       27.866 -19.835   4.017  0.00  0.00    +0.292 HD
ENDBRANCH   4   9
BRANCH   1  11
ATOM     11  C   LIG    1       31.140 -19.509   9.081  0.00  0.00    +0.158 C 
BRANCH  11  12
ATOM     12  O   LIG    1       32.083 -20.589   9.097  0.00  0.00    -0.386 OA
ATOM     13  H   LIG    1       32.584 -20.459   9.929  0.00  0.00    +0.210 HD
ENDBRANCH  11  12
BRANCH  11  14
ATOM     14  C   LIG    1       31.919 -18.173   9.006  0.00  0.00    +0.114 C 
BRANCH  14  15
ATOM     15  N   LIG    1       32.366 -17.719  10.339  0.00  0.00    -0.327 NA
ATOM     16  H   LIG    1       33.281 -17.275  10.235  0.00  0.00    +0.118 HD
ATOM     17  H   LIG    1       31.742 -16.974  10.652  0.00  0.00    +0.118 HD
ENDBRANCH  14  15
ENDBRANCH  11  14
ENDBRANCH   1  11
TORSDOF 6
ENDMDL
MODEL 3
REMARK VINA RESULT:      -6.5      4.552      5.952
REMARK  Name = *****
REMARK                            x       y       z     vdW  Elec       q    Type
REMARK                         _______ _______ _______ _____ _____    ______ ____
ROOT
ATOM      1  C   LIG    1       29.919 -20.265   7.629  0.00  0.00    -0.014 A 
ATOM      2  C   LIG    1       30.000 -19.257   6.653  0.00  0.00    +0.055 A 
ATOM      3  C   LIG    1       28.974 -19.112   5.727  0.00  0.00    +0.159 A 
ATOM      4  C   LIG    1       27.868 -19.955   5.742  0.00  0.00    +0.158 A 
ATOM      5  C   LIG    1       27.771 -20.966   6.687  0.00  0.00    +0.049 A 
ATOM      6  C   LIG    1       28.798 -21.117   7.626  0.00  0.00    +0.010 A 
ENDROOT
BRANCH   3   7
ATOM      7  O   LIG    1       29.057 -18.117   4.793  0.00  0.00    -0.503 OA
ATOM      8  H   LIG    1       29.996 -17.841   4.818  0.00  0.00    +0.292 HD
ENDBRANCH   3   7
BRANCH   4   9
ATOM      9  O   LIG    1       26.892 -19.747   4.806  0.00  0.00    -0.503 OA
ATOM     10  H   LIG    1       26.390 -18.955   5.067  0.00  0.00    +0.292 HD
ENDBRANCH   4   9
BRANCH   1  11
ATOM     11  C   LIG    1       31.028 -20.420   8.653  0.00  0.00    +0.158 C 
BRANCH  11  12
ATOM     12  O   LIG    1       30.829 -19.494   9.729  0.00  0.00    -0.386 OA
ATOM     13  H   LIG    1       30.367 -20.018  10.416  0.00  0.00    +0.210 HD
ENDBRANCH  11  12
BRANCH  11  14
ATOM     14  C   LIG    1       31.139 -21.848   9.243  0.00  0.00    +0.114 C 
BRANCH  14  15
ATOM     15  N   LIG    1       32.178 -22.646   8.560  0.00  0.00    -0.327 NA
ATOM     16  H   LIG    1       32.499 -23.371   9.205  0.00  0.00    +0.118 HD
ATOM     17  H   LIG    1       31.742 -23.151   7.788  0.00  0.00    +0.118 HD
ENDBRANCH  14  15
ENDBRANCH  11  14
ENDBRANCH   1  11
TORSDOF 6
ENDMDL
MODEL 4
REMARK VINA RESULT:      -6.3      0.762      1.917
REMARK  Name = *****
REMARK                            x       y       z     vdW  Elec       q    Type
REMARK                         _______ _______ _______ _____ _____    ______ ____
ROOT
ATOM      1  C   LIG    1       25.050 -21.993   7.507  0.00  0.00    -0.014 A 
ATOM      2  C   LIG    1       25.889 -23.075   7.190  0.00  0.00    +0.055 A 
ATOM      3  C   LIG    1       25.338 -24.248   6.689  0.00  0.00    +0.159 A 
ATOM      4  C   LIG    1       23.967 -24.376   6.503  0.00  0.00    +0.158 A 
ATOM      5  C   LIG    1       23.116 -23.327   6.821  0.00  0.00    +0.049 A 
ATOM      6  C   LIG    1       23.662 -22.141   7.323  0.00  0.00    +0.010 A 
ENDROOT
BRANCH   3   7
ATOM      7  O   LIG    1       26.167 -25.288   6.369  0.00  0.00    -0.503 OA
ATOM      8  H   LIG    1       25.560 -26.004   6.092  0.00  0.00    +0.292 HD
ENDBRANCH   3   7
BRANCH   4   9
ATOM      9  O   LIG    1       23.496 -25.557   5.996  0.00  0.00    -0.503 OA
ATOM     10  H   LIG    1       23.186 -25.392   5.089  0.00  0.00    +0.292 HD
ENDBRANCH   4   9
BRANCH   1  11
ATOM     11  C   LIG    1       25.645 -20.703   8.041  0.00  0.00    +0.158 C 
BRANCH  11  12
ATOM     12  O   LIG    1       25.835 -20.805   9.458  0.00  0.00    -0.386 OA
ATOM     13  H   LIG    1       24.974 -21.133   9.793  0.00  0.00    +0.210 HD
ENDBRANCH  11  12
BRANCH  11  14
ATOM     14  C   LIG    1       26.994 -20.317   7.387  0.00  0.00    +0.114 C 
BRANCH  14  15
ATOM     15  N   LIG    1       28.071 -20.177   8.387  0.00  0.00    -0.327 NA
ATOM     16  H   LIG    1       28.298 -19.184   8.476  0.00  0.00    +0.118 HD
ATOM     17  H   LIG    1       27.702 -20.448   9.300  0.00  0.00    +0.118 HD
ENDBRANCH  14  15
ENDBRANCH  11  14
ENDBRANCH   1  11
TORSDOF 6
ENDMDL
MODEL 5
REMARK VINA RESULT:      -6.2      3.788      5.506
REMARK  Name = *****
REMARK                            x       y       z     vdW  Elec       q    Type
REMARK                         _______ _______ _______ _____ _____    ______ ____
ROOT
ATOM      1  C   LIG    1       24.978 -26.136   5.950  0.00  0.00    -0.014 A 
ATOM      2  C   LIG    1       23.690 -25.588   6.070  0.00  0.00    +0.055 A 
ATOM      3  C   LIG    1       23.532 -24.306   6.584  0.00  0.00    +0.159 A 
ATOM      4  C   LIG    1       24.629 -23.556   6.992  0.00  0.00    +0.158 A 
ATOM      5  C   LIG    1       25.910 -24.080   6.897  0.00  0.00    +0.049 A 
ATOM      6  C   LIG    1       26.079 -25.368   6.378  0.00  0.00    +0.010 A 
ENDROOT
BRANCH   3   7
ATOM      7  O   LIG    1       22.274 -23.778   6.678  0.00  0.00    -0.503 OA
ATOM      8  H   LIG    1       21.860 -24.273   7.415  0.00  0.00    +0.292 HD
ENDBRANCH   3   7
BRANCH   4   9
ATOM      9  O   LIG    1       24.399 -22.298   7.479  0.00  0.00    -0.503 OA
ATOM     10  H   LIG    1       23.438 -22.187   7.582  0.00  0.00    +0.292 HD
ENDBRANCH   4   9
BRANCH   1  11
ATOM     11  C   LIG    1       25.161 -27.529   5.377  0.00  0.00    +0.158 C 
BRANCH  11  12
ATOM     12  O   LIG    1       26.557 -27.847   5.307  0.00  0.00    -0.386 OA
ATOM     13  H   LIG    1       26.982 -27.198   5.906  0.00  0.00    +0.210 HD
ENDBRANCH  11  12
BRANCH  11  14
ATOM     14  C   LIG    1       24.440 -28.637   6.183  0.00  0.00    +0.114 C 
BRANCH  14  15
ATOM     15  N   LIG    1       23.403 -29.316   5.380  0.00  0.00    -0.327 NA
ATOM     16  H   LIG    1       22.798 -28.602   4.970  0.00  0.00    +0.118 HD
ATOM     17  H   LIG    1       23.856 -29.770   4.586  0.00  0.00    +0.118 HD
ENDBRANCH  14  15
ENDBRANCH  11  14
ENDBRANCH   1  11
TORSDOF 6
ENDMDL
MODEL 6
REMARK VINA RESULT:      -6.2      3.774      5.126
REMARK  Name = *****
REMARK                            x       y       z     vdW  Elec       q    Type
REMARK                         _______ _______ _______ _____ _____    ______ ____
ROOT
ATOM      1  C   LIG    1       23.588 -21.953   5.935  0.00  0.00    -0.014 A 
ATOM      2  C   LIG    1       24.868 -21.656   5.437  0.00  0.00    +0.055 A 
ATOM      3  C   LIG    1       25.055 -20.526   4.649  0.00  0.00    +0.159 A 
ATOM      4  C   LIG    1       23.993 -19.685   4.336  0.00  0.00    +0.158 A 
ATOM      5  C   LIG    1       22.717 -19.965   4.804  0.00  0.00    +0.049 A 
ATOM      6  C   LIG    1       22.520 -21.098   5.600  0.00  0.00    +0.010 A 
ENDROOT
BRANCH   3   7
ATOM      7  O   LIG    1       26.309 -20.239   4.186  0.00  0.00    -0.503 OA
ATOM      8  H   LIG    1       26.751 -21.111   4.131  0.00  0.00    +0.292 HD
ENDBRANCH   3   7
BRANCH   4   9
ATOM      9  O   LIG    1       24.252 -18.586   3.564  0.00  0.00    -0.503 OA
ATOM     10  H   LIG    1       23.727 -18.661   2.748  0.00  0.00    +0.292 HD
ENDBRANCH   4   9
BRANCH   1  11
ATOM     11  C   LIG    1       23.378 -23.176   6.808  0.00  0.00    +0.158 C 
BRANCH  11  12
ATOM     12  O   LIG    1       22.051 -23.685   6.620  0.00  0.00    -0.386 OA
ATOM     13  H   LIG    1       21.478 -22.892   6.681  0.00  0.00    +0.210 HD
ENDBRANCH  11  12
BRANCH  11  14
ATOM     14  C   LIG    1       24.389 -24.318   6.539  0.00  0.00    +0.114 C 
BRANCH  14  15
ATOM     15  N   LIG    1       23.758 -25.461   5.849  0.00  0.00    -0.327 NA
ATOM     16  H   LIG    1       24.304 -25.670   5.011  0.00  0.00    +0.118 HD
ATOM     17  H   LIG    1       23.852 -26.288   6.442  0.00  0.00    +0.118 HD
ENDBRANCH  14  15
ENDBRANCH  11  14
ENDBRANCH   1  11
TORSDOF 6
ENDMDL
MODEL 7
REMARK VINA RESULT:      -6.1      2.872      4.308
REMARK  Name = *****
REMARK                            x       y       z     vdW  Elec       q    Type
REMARK                         _______ _______ _______ _____ _____    ______ ____
ROOT
ATOM      1  C   LIG    1       27.691 -19.987   6.402  0.00  0.00    -0.014 A 
ATOM      2  C   LIG    1       27.430 -20.183   7.769  0.00  0.00    +0.055 A 
ATOM      3  C   LIG    1       26.165 -20.587   8.178  0.00  0.00    +0.159 A 
ATOM      4  C   LIG    1       25.144 -20.795   7.256  0.00  0.00    +0.158 A 
ATOM      5  C   LIG    1       25.373 -20.595   5.902  0.00  0.00    +0.049 A 
ATOM      6  C   LIG    1       26.645 -20.191   5.482  0.00  0.00    +0.010 A 
ENDROOT
BRANCH   3   7
ATOM      7  O   LIG    1       25.929 -20.791   9.509  0.00  0.00    -0.503 OA
ATOM      8  H   LIG    1       26.709 -21.295   9.818  0.00  0.00    +0.292 HD
ENDBRANCH   3   7
BRANCH   4   9
ATOM      9  O   LIG    1       23.927 -21.202   7.729  0.00  0.00    -0.503 OA
ATOM     10  H   LIG    1       24.046 -21.498   8.649  0.00  0.00    +0.292 HD
ENDBRANCH   4   9
BRANCH   1  11
ATOM     11  C   LIG    1       29.073 -19.560   5.947  0.00  0.00    +0.158 C 
BRANCH  11  12
ATOM     12  O   LIG    1       28.964 -18.478   5.013  0.00  0.00    -0.386 OA
ATOM     13  H   LIG    1       29.796 -18.522   4.496  0.00  0.00    +0.210 HD
ENDBRANCH  11  12
BRANCH  11  14
ATOM     14  C   LIG    1       30.006 -19.124   7.103  0.00  0.00    +0.114 C 
BRANCH  14  15
ATOM     15  N   LIG    1       31.283 -19.866   7.090  0.00  0.00    -0.327 NA
ATOM     16  H   LIG    1       31.775 -19.641   6.223  0.00  0.00    +0.118 HD
ATOM     17  H   LIG    1       31.877 -19.501   7.836  0.00  0.00    +0.118 HD
ENDBRANCH  14  15
ENDBRANCH  11  14
ENDBRANCH   1  11
TORSDOF 6
ENDMDL
MODEL 8
REMARK VINA RESULT:      -6.1      3.821      6.748
REMARK  Name = *****
REMARK                            x       y       z     vdW  Elec       q    Type
REMARK                         _______ _______ _______ _____ _____    ______ ____
ROOT
ATOM      1  C   LIG    1       28.756 -20.755   7.557  0.00  0.00    -0.014 A 
ATOM      2  C   LIG    1       29.851 -21.173   8.333  0.00  0.00    +0.055 A 
ATOM      3  C   LIG    1       30.998 -20.390   8.383  0.00  0.00    +0.159 A 
ATOM      4  C   LIG    1       31.088 -19.200   7.670  0.00  0.00    +0.158 A 
ATOM      5  C   LIG    1       30.026 -18.773   6.885  0.00  0.00    +0.049 A 
ATOM      6  C   LIG    1       28.866 -19.553   6.831  0.00  0.00    +0.010 A 
ENDROOT
BRANCH   3   7
ATOM      7  O   LIG    1       32.049 -20.800   9.156  0.00  0.00    -0.503 OA
ATOM      8  H   LIG    1       32.795 -20.879   8.526  0.00  0.00    +0.292 HD
ENDBRANCH   3   7
BRANCH   4   9
ATOM      9  O   LIG    1       32.244 -18.476   7.774  0.00  0.00    -0.503 OA
ATOM     10  H   LIG    1       32.948 -19.077   8.074  0.00  0.00    +0.292 HD
ENDBRANCH   4   9
BRANCH   1  11
ATOM     11  C   LIG    1       27.495 -21.596   7.508  0.00  0.00    +0.158 C 
BRANCH  11  12
ATOM     12  O   LIG    1       26.922 -21.690   8.818  0.00  0.00    -0.386 OA
ATOM     13  H   LIG    1       26.147 -22.278   8.701  0.00  0.00    +0.210 HD
ENDBRANCH  11  12
BRANCH  11  14
ATOM     14  C   LIG    1       26.419 -21.055   6.534  0.00  0.00    +0.114 C 
BRANCH  14  15
ATOM     15  N   LIG    1       25.684 -22.147   5.864  0.00  0.00    -0.327 NA
ATOM     16  H   LIG    1       25.778 -22.023   4.853  0.00  0.00    +0.118 HD
ATOM     17  H   LIG    1       26.157 -23.028   6.069  0.00  0.00    +0.118 HD
ENDBRANCH  14  15
ENDBRANCH  11  14
ENDBRANCH   1  11
TORSDOF 6
ENDMDL
MODEL 9
REMARK VINA RESULT:      -6.1      3.210      4.124
REMARK  Name = *****
REMARK                            x       y       z     vdW  Elec       q    Type
REMARK                         _______ _______ _______ _____ _____    ______ ____
ROOT
ATOM      1  C   LIG    1       27.806 -20.211   7.321  0.00  0.00    -0.014 A 
ATOM      2  C   LIG    1       27.560 -20.129   5.940  0.00  0.00    +0.055 A 
ATOM      3  C   LIG    1       26.275 -20.339   5.456  0.00  0.00    +0.159 A 
ATOM      4  C   LIG    1       25.223 -20.639   6.315  0.00  0.00    +0.158 A 
ATOM      5  C   LIG    1       25.443 -20.739   7.681  0.00  0.00    +0.049 A 
ATOM      6  C   LIG    1       26.733 -20.526   8.178  0.00  0.00    +0.010 A 
ENDROOT
BRANCH   3   7
ATOM      7  O   LIG    1       26.046 -20.239   4.111  0.00  0.00    -0.503 OA
ATOM      8  H   LIG    1       26.901 -19.935   3.743  0.00  0.00    +0.292 HD
ENDBRANCH   3   7
BRANCH   4   9
ATOM      9  O   LIG    1       23.982 -20.824   5.769  0.00  0.00    -0.503 OA
ATOM     10  H   LIG    1       23.926 -20.283   4.961  0.00  0.00    +0.292 HD
ENDBRANCH   4   9
BRANCH   1  11
ATOM     11  C   LIG    1       29.203 -19.969   7.859  0.00  0.00    +0.158 C 
BRANCH  11  12
ATOM     12  O   LIG    1       29.694 -21.159   8.490  0.00  0.00    -0.386 OA
ATOM     13  H   LIG    1       30.378 -20.837   9.114  0.00  0.00    +0.210 HD
ENDBRANCH  11  12
BRANCH  11  14
ATOM     14  C   LIG    1       30.221 -19.524   6.781  0.00  0.00    +0.114 C 
BRANCH  14  15
ATOM     15  N   LIG    1       31.613 -19.806   7.187  0.00  0.00    -0.327 NA
ATOM     16  H   LIG    1       31.589 -20.368   8.041  0.00  0.00    +0.118 HD
ATOM     17  H   LIG    1       32.039 -20.409   6.482  0.00  0.00    +0.118 HD
ENDBRANCH  14  15
ENDBRANCH  11  14
ENDBRANCH   1  11
TORSDOF 6
ENDMDL
