MODEL 1
REMARK VINA RESULT:      -6.5      0.000      0.000
REMARK  Name = *****
REMARK                            x       y       z     vdW  Elec       q    Type
REMARK                         _______ _______ _______ _____ _____    ______ ____
ROOT
ATOM      1  O   LIG    1       26.060 -18.193   3.261  0.00  0.00    -0.489 OA
ENDROOT
BRANCH   1   2
ATOM      2  C   LIG    1       25.309 -19.114   3.964  0.00  0.00    +0.128 A 
ATOM      3  C   LIG    1       25.979 -19.866   4.970  0.00  0.00    +0.024 A 
ATOM      4  C   LIG    1       25.260 -20.834   5.706  0.00  0.00    -0.014 A 
ATOM      5  C   LIG    1       25.894 -21.571   6.723  0.00  0.00    +0.008 A 
ATOM      6  C   LIG    1       27.232 -21.335   7.038  0.00  0.00    +0.001 A 
ATOM      7  C   LIG    1       27.955 -20.392   6.322  0.00  0.00    +0.001 A 
ATOM      8  C   LIG    1       23.899 -21.053   5.439  0.00  0.00    +0.009 A 
ATOM      9  C   LIG    1       23.244 -20.296   4.471  0.00  0.00    +0.004 A 
ATOM     10  C   LIG    1       27.344 -19.676   5.287  0.00  0.00    +0.012 A 
ATOM     11  C   LIG    1       23.939 -19.336   3.743  0.00  0.00    +0.046 A 
ENDBRANCH   1   2
BRANCH   1  12
ATOM     12  C   LIG    1       25.626 -16.836   3.343  0.00  0.00    +0.261 C 
BRANCH  12  13
ATOM     13  C   LIG    1       26.793 -15.841   3.312  0.00  0.00    +0.166 C 
BRANCH  13  14
ATOM     14  O   LIG    1       27.855 -16.377   4.117  0.00  0.00    -0.387 OA
ATOM     15  H   LIG    1       27.444 -16.683   4.947  0.00  0.00    +0.210 HD
ENDBRANCH  13  14
BRANCH  13  16
ATOM     16  C   LIG    1       26.457 -14.395   3.764  0.00  0.00    +0.115 C 
BRANCH  16  17
ATOM     17  N   LIG    1       26.191 -13.450   2.659  0.00  0.00    -0.311 NA
ATOM     18  H   LIG    1       26.678 -12.575   2.852  0.00  0.00    +0.122 HD
BRANCH  17  20
ATOM     19  C   LIG    1       24.068 -13.277   3.873  0.00  0.00    +0.024 C 
ATOM     20  C   LIG    1       24.751 -13.136   2.508  0.00  0.00    +0.048 C 
ATOM     21  C   LIG    1       24.483 -11.729   1.960  0.00  0.00    +0.024 C 
ENDBRANCH  17  20
ENDBRANCH  16  17
ENDBRANCH  13  16
ENDBRANCH  12  13
ENDBRANCH   1  12
TORSDOF 7
ENDMDL
MODEL 2
REMARK VINA RESULT:      -5.8      0.688      2.513
REMARK  Name = *****
REMARK                            x       y       z     vdW  Elec       q    Type
REMARK                         _______ _______ _______ _____ _____    ______ ____
ROOT
ATOM      1  O   LIG    1       26.044 -18.509   3.291  0.00  0.00    -0.489 OA
ENDROOT
BRANCH   1   2
ATOM      2  C   LIG    1       26.097 -19.318   4.410  0.00  0.00    +0.128 A 
ATOM      3  C   LIG    1       24.873 -19.891   4.854  0.00  0.00    +0.024 A 
ATOM      4  C   LIG    1       24.869 -20.712   6.004  0.00  0.00    -0.014 A 
ATOM      5  C   LIG    1       23.676 -21.311   6.448  0.00  0.00    +0.008 A 
ATOM      6  C   LIG    1       22.487 -21.128   5.741  0.00  0.00    +0.001 A 
ATOM      7  C   LIG    1       22.471 -20.321   4.613  0.00  0.00    +0.001 A 
ATOM      8  C   LIG    1       26.064 -20.950   6.702  0.00  0.00    +0.009 A 
ATOM      9  C   LIG    1       27.262 -20.406   6.247  0.00  0.00    +0.004 A 
ATOM     10  C   LIG    1       23.644 -19.693   4.180  0.00  0.00    +0.012 A 
ATOM     11  C   LIG    1       27.280 -19.601   5.113  0.00  0.00    +0.046 A 
ENDBRANCH   1   2
BRANCH   1  12
ATOM     12  C   LIG    1       25.644 -17.157   3.512  0.00  0.00    +0.261 C 
BRANCH  12  13
ATOM     13  C   LIG    1       26.774 -16.156   3.244  0.00  0.00    +0.166 C 
BRANCH  13  14
ATOM     14  O   LIG    1       27.864 -16.470   4.127  0.00  0.00    -0.387 OA
ATOM     15  H   LIG    1       27.466 -16.856   4.929  0.00  0.00    +0.210 HD
ENDBRANCH  13  14
BRANCH  13  16
ATOM     16  C   LIG    1       26.394 -14.658   3.377  0.00  0.00    +0.115 C 
BRANCH  16  17
ATOM     17  N   LIG    1       26.012 -14.004   2.108  0.00  0.00    -0.311 NA
ATOM     18  H   LIG    1       26.698 -13.281   1.892  0.00  0.00    +0.122 HD
BRANCH  17  20
ATOM     19  C   LIG    1       24.058 -13.646   3.544  0.00  0.00    +0.024 C 
ATOM     20  C   LIG    1       24.682 -13.352   2.176  0.00  0.00    +0.048 C 
ATOM     21  C   LIG    1       24.730 -11.835   1.964  0.00  0.00    +0.024 C 
ENDBRANCH  17  20
ENDBRANCH  16  17
ENDBRANCH  13  16
ENDBRANCH  12  13
ENDBRANCH   1  12
TORSDOF 7
ENDMDL
MODEL 3
REMARK VINA RESULT:      -5.4      1.421      3.025
REMARK  Name = *****
REMARK                            x       y       z     vdW  Elec       q    Type
REMARK                         _______ _______ _______ _____ _____    ______ ____
ROOT
ATOM      1  O   LIG    1       27.044 -16.459   3.360  0.00  0.00    -0.489 OA
ENDROOT
BRANCH   1   2
ATOM      2  C   LIG    1       27.302 -17.593   4.104  0.00  0.00    +0.128 A 
ATOM      3  C   LIG    1       26.276 -18.578   4.164  0.00  0.00    +0.024 A 
ATOM      4  C   LIG    1       26.484 -19.749   4.927  0.00  0.00    -0.014 A 
ATOM      5  C   LIG    1       25.495 -20.748   4.981  0.00  0.00    +0.008 A 
ATOM      6  C   LIG    1       24.310 -20.610   4.257  0.00  0.00    +0.001 A 
ATOM      7  C   LIG    1       24.087 -19.465   3.508  0.00  0.00    +0.001 A 
ATOM      8  C   LIG    1       27.690 -19.931   5.623  0.00  0.00    +0.009 A 
ATOM      9  C   LIG    1       28.698 -18.975   5.539  0.00  0.00    +0.004 A 
ATOM     10  C   LIG    1       25.049 -18.449   3.472  0.00  0.00    +0.012 A 
ATOM     11  C   LIG    1       28.509 -17.821   4.787  0.00  0.00    +0.046 A 
ENDBRANCH   1   2
BRANCH   1  12
ATOM     12  C   LIG    1       27.359 -15.214   3.982  0.00  0.00    +0.261 C 
BRANCH  12  13
ATOM     13  C   LIG    1       27.519 -14.073   2.971  0.00  0.00    +0.166 C 
BRANCH  13  14
ATOM     14  O   LIG    1       28.748 -13.389   3.264  0.00  0.00    -0.387 OA
ATOM     15  H   LIG    1       29.335 -13.537   2.499  0.00  0.00    +0.210 HD
ENDBRANCH  13  14
BRANCH  13  16
ATOM     16  C   LIG    1       26.346 -13.059   2.907  0.00  0.00    +0.115 C 
BRANCH  16  17
ATOM     17  N   LIG    1       25.115 -13.580   2.276  0.00  0.00    -0.311 NA
ATOM     18  H   LIG    1       24.967 -13.092   1.393  0.00  0.00    +0.122 HD
BRANCH  17  20
ATOM     19  C   LIG    1       23.816 -14.499   4.140  0.00  0.00    +0.024 C 
ATOM     20  C   LIG    1       23.909 -13.368   3.111  0.00  0.00    +0.048 C 
ATOM     21  C   LIG    1       23.899 -12.022   3.845  0.00  0.00    +0.024 C 
ENDBRANCH  17  20
ENDBRANCH  16  17
ENDBRANCH  13  16
ENDBRANCH  12  13
ENDBRANCH   1  12
TORSDOF 7
ENDMDL
MODEL 4
REMARK VINA RESULT:      -5.2      2.776      6.828
REMARK  Name = *****
REMARK                            x       y       z     vdW  Elec       q    Type
REMARK                         _______ _______ _______ _____ _____    ______ ____
ROOT
ATOM      1  O   LIG    1       25.348 -16.995   3.259  0.00  0.00    -0.489 OA
ENDROOT
BRANCH   1   2
ATOM      2  C   LIG    1       26.064 -15.872   3.626  0.00  0.00    +0.128 A 
ATOM      3  C   LIG    1       25.319 -14.697   3.927  0.00  0.00    +0.024 A 
ATOM      4  C   LIG    1       26.004 -13.516   4.289  0.00  0.00    -0.014 A 
ATOM      5  C   LIG    1       25.289 -12.349   4.616  0.00  0.00    +0.008 A 
ATOM      6  C   LIG    1       23.894 -12.353   4.616  0.00  0.00    +0.001 A 
ATOM      7  C   LIG    1       23.205 -13.501   4.257  0.00  0.00    +0.001 A 
ATOM      8  C   LIG    1       27.408 -13.505   4.344  0.00  0.00    +0.009 A 
ATOM      9  C   LIG    1       28.128 -14.665   4.072  0.00  0.00    +0.004 A 
ATOM     10  C   LIG    1       23.905 -14.658   3.898  0.00  0.00    +0.012 A 
ATOM     11  C   LIG    1       27.465 -15.836   3.720  0.00  0.00    +0.046 A 
ENDBRANCH   1   2
BRANCH   1  12
ATOM     12  C   LIG    1       26.085 -18.215   3.195  0.00  0.00    +0.261 C 
BRANCH  12  13
ATOM     13  C   LIG    1       25.452 -19.332   4.034  0.00  0.00    +0.166 C 
BRANCH  13  14
ATOM     14  O   LIG    1       26.497 -20.229   4.441  0.00  0.00    -0.387 OA
ATOM     15  H   LIG    1       27.023 -20.420   3.642  0.00  0.00    +0.210 HD
ENDBRANCH  13  14
BRANCH  13  16
ATOM     16  C   LIG    1       24.305 -20.122   3.350  0.00  0.00    +0.115 C 
BRANCH  16  17
ATOM     17  N   LIG    1       23.678 -21.158   4.197  0.00  0.00    -0.311 NA
ATOM     18  H   LIG    1       23.217 -21.839   3.595  0.00  0.00    +0.122 HD
BRANCH  17  20
ATOM     19  C   LIG    1       23.193 -20.656   6.547  0.00  0.00    +0.024 C 
ATOM     20  C   LIG    1       22.653 -20.606   5.114  0.00  0.00    +0.048 C 
ATOM     21  C   LIG    1       22.246 -19.165   4.784  0.00  0.00    +0.024 C 
ENDBRANCH  17  20
ENDBRANCH  16  17
ENDBRANCH  13  16
ENDBRANCH  12  13
ENDBRANCH   1  12
TORSDOF 7
ENDMDL
MODEL 5
REMARK VINA RESULT:      -5.1      1.529      3.185
REMARK  Name = *****
REMARK                            x       y       z     vdW  Elec       q    Type
REMARK                         _______ _______ _______ _____ _____    ______ ____
ROOT
ATOM      1  O   LIG    1       25.629 -18.071   3.307  0.00  0.00    -0.489 OA
ENDROOT
BRANCH   1   2
ATOM      2  C   LIG    1       25.811 -19.036   4.278  0.00  0.00    +0.128 A 
ATOM      3  C   LIG    1       24.651 -19.720   4.738  0.00  0.00    +0.024 A 
ATOM      4  C   LIG    1       24.781 -20.704   5.745  0.00  0.00    -0.014 A 
ATOM      5  C   LIG    1       23.652 -21.412   6.197  0.00  0.00    +0.008 A 
ATOM      6  C   LIG    1       22.397 -21.175   5.637  0.00  0.00    +0.001 A 
ATOM      7  C   LIG    1       22.250 -20.209   4.653  0.00  0.00    +0.001 A 
ATOM      8  C   LIG    1       26.043 -20.994   6.287  0.00  0.00    +0.009 A 
ATOM      9  C   LIG    1       27.176 -20.338   5.814  0.00  0.00    +0.004 A 
ATOM     10  C   LIG    1       23.359 -19.475   4.217  0.00  0.00    +0.012 A 
ATOM     11  C   LIG    1       27.063 -19.372   4.820  0.00  0.00    +0.046 A 
ENDBRANCH   1   2
BRANCH   1  12
ATOM     12  C   LIG    1       26.594 -17.021   3.277  0.00  0.00    +0.261 C 
BRANCH  12  13
ATOM     13  C   LIG    1       25.976 -15.644   3.554  0.00  0.00    +0.166 C 
BRANCH  13  14
ATOM     14  O   LIG    1       24.562 -15.821   3.734  0.00  0.00    -0.387 OA
ATOM     15  H   LIG    1       24.339 -15.401   4.586  0.00  0.00    +0.210 HD
ENDBRANCH  13  14
BRANCH  13  16
ATOM     16  C   LIG    1       26.247 -14.556   2.482  0.00  0.00    +0.115 C 
BRANCH  16  17
ATOM     17  N   LIG    1       26.840 -13.308   3.006  0.00  0.00    -0.311 NA
ATOM     18  H   LIG    1       27.390 -12.870   2.267  0.00  0.00    +0.122 HD
BRANCH  17  20
ATOM     19  C   LIG    1       28.978 -12.646   4.004  0.00  0.00    +0.024 C 
ATOM     20  C   LIG    1       27.743 -13.541   4.157  0.00  0.00    +0.048 C 
ATOM     21  C   LIG    1       27.091 -13.264   5.516  0.00  0.00    +0.024 C 
ENDBRANCH  17  20
ENDBRANCH  16  17
ENDBRANCH  13  16
ENDBRANCH  12  13
ENDBRANCH   1  12
TORSDOF 7
ENDMDL
MODEL 6
REMARK VINA RESULT:      -4.9      2.355      6.371
REMARK  Name = *****
REMARK                            x       y       z     vdW  Elec       q    Type
REMARK                         _______ _______ _______ _____ _____    ______ ____
ROOT
ATOM      1  O   LIG    1       25.327 -17.602   3.284  0.00  0.00    -0.489 OA
ENDROOT
BRANCH   1   2
ATOM      2  C   LIG    1       24.868 -16.371   3.709  0.00  0.00    +0.128 A 
ATOM      3  C   LIG    1       25.835 -15.341   3.876  0.00  0.00    +0.024 A 
ATOM      4  C   LIG    1       25.420 -14.067   4.326  0.00  0.00    -0.014 A 
ATOM      5  C   LIG    1       26.353 -13.025   4.474  0.00  0.00    +0.008 A 
ATOM      6  C   LIG    1       27.695 -13.226   4.149  0.00  0.00    +0.001 A 
ATOM      7  C   LIG    1       28.122 -14.471   3.712  0.00  0.00    +0.001 A 
ATOM      8  C   LIG    1       24.066 -13.828   4.611  0.00  0.00    +0.009 A 
ATOM      9  C   LIG    1       23.122 -14.834   4.421  0.00  0.00    +0.004 A 
ATOM     10  C   LIG    1       27.209 -15.525   3.591  0.00  0.00    +0.012 A 
ATOM     11  C   LIG    1       23.517 -16.090   3.973  0.00  0.00    +0.046 A 
ENDBRANCH   1   2
BRANCH   1  12
ATOM     12  C   LIG    1       24.468 -18.714   3.537  0.00  0.00    +0.261 C 
BRANCH  12  13
ATOM     13  C   LIG    1       25.243 -20.014   3.783  0.00  0.00    +0.166 C 
BRANCH  13  14
ATOM     14  O   LIG    1       24.310 -21.105   3.721  0.00  0.00    -0.387 OA
ATOM     15  H   LIG    1       24.842 -21.923   3.720  0.00  0.00    +0.210 HD
ENDBRANCH  13  14
BRANCH  13  16
ATOM     16  C   LIG    1       26.052 -20.077   5.106  0.00  0.00    +0.115 C 
BRANCH  16  17
ATOM     17  N   LIG    1       27.516 -20.170   4.930  0.00  0.00    -0.311 NA
ATOM     18  H   LIG    1       27.773 -21.152   4.832  0.00  0.00    +0.122 HD
BRANCH  17  20
ATOM     19  C   LIG    1       29.067 -20.757   6.735  0.00  0.00    +0.024 C 
ATOM     20  C   LIG    1       28.269 -19.623   6.083  0.00  0.00    +0.048 C 
ATOM     21  C   LIG    1       29.228 -18.488   5.708  0.00  0.00    +0.024 C 
ENDBRANCH  17  20
ENDBRANCH  16  17
ENDBRANCH  13  16
ENDBRANCH  12  13
ENDBRANCH   1  12
TORSDOF 7
ENDMDL
MODEL 7
REMARK VINA RESULT:      -4.8      1.814      2.207
REMARK  Name = *****
REMARK                            x       y       z     vdW  Elec       q    Type
REMARK                         _______ _______ _______ _____ _____    ______ ____
ROOT
ATOM      1  O   LIG    1       24.408 -18.760   3.555  0.00  0.00    -0.489 OA
ENDROOT
BRANCH   1   2
ATOM      2  C   LIG    1       24.178 -19.675   4.564  0.00  0.00    +0.128 A 
ATOM      3  C   LIG    1       25.311 -20.142   5.286  0.00  0.00    +0.024 A 
ATOM      4  C   LIG    1       25.132 -21.093   6.316  0.00  0.00    -0.014 A 
ATOM      5  C   LIG    1       26.234 -21.551   7.062  0.00  0.00    +0.008 A 
ATOM      6  C   LIG    1       27.513 -21.051   6.814  0.00  0.00    +0.001 A 
ATOM      7  C   LIG    1       27.708 -20.123   5.802  0.00  0.00    +0.001 A 
ATOM      8  C   LIG    1       23.847 -21.571   6.617  0.00  0.00    +0.009 A 
ATOM      9  C   LIG    1       22.740 -21.090   5.922  0.00  0.00    +0.004 A 
ATOM     10  C   LIG    1       26.625 -19.683   5.032  0.00  0.00    +0.012 A 
ATOM     11  C   LIG    1       22.902 -20.151   4.910  0.00  0.00    +0.046 A 
ENDBRANCH   1   2
BRANCH   1  12
ATOM     12  C   LIG    1       23.767 -17.493   3.698  0.00  0.00    +0.261 C 
BRANCH  12  13
ATOM     13  C   LIG    1       24.753 -16.368   4.037  0.00  0.00    +0.166 C 
BRANCH  13  14
ATOM     14  O   LIG    1       24.032 -15.126   4.020  0.00  0.00    -0.387 OA
ATOM     15  H   LIG    1       24.160 -14.721   4.898  0.00  0.00    +0.210 HD
ENDBRANCH  13  14
BRANCH  13  16
ATOM     16  C   LIG    1       26.005 -16.271   3.125  0.00  0.00    +0.115 C 
BRANCH  16  17
ATOM     17  N   LIG    1       27.244 -15.863   3.820  0.00  0.00    -0.311 NA
ATOM     18  H   LIG    1       27.140 -16.056   4.815  0.00  0.00    +0.122 HD
BRANCH  17  20
ATOM     19  C   LIG    1       26.831 -13.898   2.413  0.00  0.00    +0.024 C 
ATOM     20  C   LIG    1       27.533 -14.417   3.672  0.00  0.00    +0.048 C 
ATOM     21  C   LIG    1       27.089 -13.576   4.875  0.00  0.00    +0.024 C 
ENDBRANCH  17  20
ENDBRANCH  16  17
ENDBRANCH  13  16
ENDBRANCH  12  13
ENDBRANCH   1  12
TORSDOF 7
ENDMDL
MODEL 8
REMARK VINA RESULT:      -4.5      2.356      7.059
REMARK  Name = *****
REMARK                            x       y       z     vdW  Elec       q    Type
REMARK                         _______ _______ _______ _____ _____    ______ ____
ROOT
ATOM      1  O   LIG    1       25.330 -17.000   3.267  0.00  0.00    -0.489 OA
ENDROOT
BRANCH   1   2
ATOM      2  C   LIG    1       26.056 -15.879   3.618  0.00  0.00    +0.128 A 
ATOM      3  C   LIG    1       25.321 -14.696   3.910  0.00  0.00    +0.024 A 
ATOM      4  C   LIG    1       26.016 -13.516   4.256  0.00  0.00    -0.014 A 
ATOM      5  C   LIG    1       25.311 -12.340   4.574  0.00  0.00    +0.008 A 
ATOM      6  C   LIG    1       23.917 -12.333   4.581  0.00  0.00    +0.001 A 
ATOM      7  C   LIG    1       23.217 -13.480   4.237  0.00  0.00    +0.001 A 
ATOM      8  C   LIG    1       27.420 -13.515   4.304  0.00  0.00    +0.009 A 
ATOM      9  C   LIG    1       28.131 -14.683   4.042  0.00  0.00    +0.004 A 
ATOM     10  C   LIG    1       23.907 -14.646   3.888  0.00  0.00    +0.012 A 
ATOM     11  C   LIG    1       27.457 -15.852   3.705  0.00  0.00    +0.046 A 
ENDBRANCH   1   2
BRANCH   1  12
ATOM     12  C   LIG    1       26.036 -18.240   3.296  0.00  0.00    +0.261 C 
BRANCH  12  13
ATOM     13  C   LIG    1       25.136 -19.424   3.669  0.00  0.00    +0.166 C 
BRANCH  13  14
ATOM     14  O   LIG    1       23.782 -19.072   3.342  0.00  0.00    -0.387 OA
ATOM     15  H   LIG    1       23.304 -19.000   4.189  0.00  0.00    +0.210 HD
ENDBRANCH  13  14
BRANCH  13  16
ATOM     16  C   LIG    1       25.224 -19.899   5.143  0.00  0.00    +0.115 C 
BRANCH  16  17
ATOM     17  N   LIG    1       26.297 -20.880   5.412  0.00  0.00    -0.311 NA
ATOM     18  H   LIG    1       25.881 -21.716   5.823  0.00  0.00    +0.122 HD
BRANCH  17  20
ATOM     19  C   LIG    1       27.979 -21.565   7.058  0.00  0.00    +0.024 C 
ATOM     20  C   LIG    1       27.312 -20.372   6.364  0.00  0.00    +0.048 C 
ATOM     21  C   LIG    1       28.395 -19.509   5.705  0.00  0.00    +0.024 C 
ENDBRANCH  17  20
ENDBRANCH  16  17
ENDBRANCH  13  16
ENDBRANCH  12  13
ENDBRANCH   1  12
TORSDOF 7
ENDMDL
MODEL 9
REMARK VINA RESULT:      -4.4      2.371      3.843
REMARK  Name = *****
REMARK                            x       y       z     vdW  Elec       q    Type
REMARK                         _______ _______ _______ _____ _____    ______ ____
ROOT
ATOM      1  O   LIG    1       23.379 -15.891   3.841  0.00  0.00    -0.489 OA
ENDROOT
BRANCH   1   2
ATOM      2  C   LIG    1       24.180 -17.013   3.770  0.00  0.00    +0.128 A 
ATOM      3  C   LIG    1       23.587 -18.257   4.124  0.00  0.00    +0.024 A 
ATOM      4  C   LIG    1       24.369 -19.433   4.086  0.00  0.00    -0.014 A 
ATOM      5  C   LIG    1       23.798 -20.679   4.407  0.00  0.00    +0.008 A 
ATOM      6  C   LIG    1       22.446 -20.772   4.737  0.00  0.00    +0.001 A 
ATOM      7  C   LIG    1       21.664 -19.628   4.786  0.00  0.00    +0.001 A 
ATOM      8  C   LIG    1       25.719 -19.369   3.708  0.00  0.00    +0.009 A 
ATOM      9  C   LIG    1       26.286 -18.152   3.338  0.00  0.00    +0.004 A 
ATOM     10  C   LIG    1       22.228 -18.379   4.500  0.00  0.00    +0.012 A 
ATOM     11  C   LIG    1       25.526 -16.988   3.366  0.00  0.00    +0.046 A 
ENDBRANCH   1   2
BRANCH   1  12
ATOM     12  C   LIG    1       23.774 -14.896   4.785  0.00  0.00    +0.261 C 
BRANCH  12  13
ATOM     13  C   LIG    1       23.931 -13.509   4.150  0.00  0.00    +0.166 C 
BRANCH  13  14
ATOM     14  O   LIG    1       23.487 -13.592   2.786  0.00  0.00    -0.387 OA
ATOM     15  H   LIG    1       22.522 -13.729   2.819  0.00  0.00    +0.210 HD
ENDBRANCH  13  14
BRANCH  13  16
ATOM     16  C   LIG    1       25.355 -12.897   4.213  0.00  0.00    +0.115 C 
BRANCH  16  17
ATOM     17  N   LIG    1       26.384 -13.786   4.791  0.00  0.00    -0.311 NA
ATOM     18  H   LIG    1       26.737 -13.365   5.650  0.00  0.00    +0.122 HD
BRANCH  17  20
ATOM     19  C   LIG    1       27.036 -14.016   2.439  0.00  0.00    +0.024 C 
ATOM     20  C   LIG    1       27.540 -13.991   3.886  0.00  0.00    +0.048 C 
ATOM     21  C   LIG    1       28.622 -12.913   4.020  0.00  0.00    +0.024 C 
ENDBRANCH  17  20
ENDBRANCH  16  17
ENDBRANCH  13  16
ENDBRANCH  12  13
ENDBRANCH   1  12
TORSDOF 7
ENDMDL
