MODEL 1
REMARK VINA RESULT:      10.0      0.000      0.000
REMARK  Name = *****
REMARK                            x       y       z     vdW  Elec       q    Type
REMARK                         _______ _______ _______ _____ _____    ______ ____
ROOT
ATOM      1  C   LIG    1       22.687 -16.487   5.357  0.00  0.00    +0.021 C 
ATOM      2  C   LIG    1       23.779 -15.656   4.616  0.00  0.00    +0.003 C 
ATOM      3  C   LIG    1       24.940 -16.540   4.020  0.00  0.00    -0.026 C 
ATOM      4  C   LIG    1       25.924 -16.821   5.184  0.00  0.00    +0.012 C 
ATOM      5  C   LIG    1       25.764 -15.722   2.959  0.00  0.00    +0.009 C 
ATOM      6  C   LIG    1       25.789 -14.225   3.248  0.00  0.00    +0.032 C 
ATOM      7  C   LIG    1       24.377 -13.639   3.202  0.00  0.00    +0.115 C 
ATOM      8  C   LIG    1       24.365 -17.823   3.277  0.00  0.00    +0.001 C 
ATOM      9  C   LIG    1       23.226 -18.602   3.996  0.00  0.00    +0.025 C 
ATOM     10  C   LIG    1       23.804 -19.563   5.052  0.00  0.00    +0.001 C 
ATOM     11  C   LIG    1       24.815 -20.589   4.487  0.00  0.00    -0.026 C 
ATOM     12  C   LIG    1       24.188 -21.571   3.449  0.00  0.00    +0.012 C 
ATOM     13  C   LIG    1       25.934 -19.828   3.776  0.00  0.00    +0.007 C 
ATOM     14  C   LIG    1       25.150 -21.437   5.771  0.00  0.00    -0.002 C 
ATOM     15  C   LIG    1       23.771 -21.455   6.519  0.00  0.00    +0.004 C 
ATOM     16  C   LIG    1       22.841 -20.440   5.834  0.00  0.00    +0.005 C 
ATOM     17  C   LIG    1       25.432 -18.811   2.742  0.00  0.00    +0.005 C 
ATOM     18  C   LIG    1       23.281 -14.657   3.557  0.00  0.00    +0.035 C 
ATOM     19  C   LIG    1       22.135 -17.664   4.539  0.00  0.00    +0.122 C 
ENDROOT
BRANCH   1  21
ATOM     20  C   LIG    1       22.071 -14.352   6.668  0.00  0.00    +0.004 C 
ATOM     21  C   LIG    1       21.564 -15.579   5.918  0.00  0.00    +0.003 C 
ENDBRANCH   1  21
BRANCH   7  22
ATOM     22  O   LIG    1       24.104 -13.144   1.894  0.00  0.00    -0.392 OA
ATOM     23  H   LIG    1       23.915 -13.910   1.326  0.00  0.00    +0.210 HD
ENDBRANCH   7  22
BRANCH  14  24
ATOM     24  C   LIG    1       26.319 -21.015   6.736  0.00  0.00    -0.010 C 
ATOM     25  C   LIG    1       26.472 -19.494   6.917  0.00  0.00    +0.008 C 
BRANCH  24  26
ATOM     26  C   LIG    1       27.711 -21.560   6.268  0.00  0.00    +0.015 C 
BRANCH  26  27
ATOM     27  C   LIG    1       28.910 -20.739   6.748  0.00  0.00    +0.121 C 
BRANCH  27  28
ATOM     28  C   LIG    1       28.999 -19.410   6.035  0.00  0.00    +0.305 C 
ATOM     29  O   LIG    1       28.687 -19.242   4.872  0.00  0.00    -0.251 OA
BRANCH  28  30
ATOM     30  O   LIG    1       29.475 -18.412   6.814  0.00  0.00    -0.481 OA
ATOM     31  H   LIG    1       29.119 -17.530   6.602  0.00  0.00    +0.295 HD
ENDBRANCH  28  30
ENDBRANCH  27  28
ENDBRANCH  26  27
ENDBRANCH  24  26
ENDBRANCH  14  24
BRANCH  19  32
ATOM     32  O   LIG    1       21.303 -17.194   3.479  0.00  0.00    -0.391 OA
ATOM     33  H   LIG    1       20.444 -17.642   3.521  0.00  0.00    +0.210 HD
ENDBRANCH  19  32
TORSDOF 8
ENDMDL
MODEL 2
REMARK VINA RESULT:      11.3      1.941      6.707
REMARK  Name = *****
REMARK                            x       y       z     vdW  Elec       q    Type
REMARK                         _______ _______ _______ _____ _____    ______ ____
ROOT
ATOM      1  C   LIG    1       25.635 -19.129   5.203  0.00  0.00    +0.021 C 
ATOM      2  C   LIG    1       24.081 -19.186   5.083  0.00  0.00    +0.003 C 
ATOM      3  C   LIG    1       23.453 -17.881   4.462  0.00  0.00    -0.026 C 
ATOM      4  C   LIG    1       23.339 -16.853   5.615  0.00  0.00    +0.012 C 
ATOM      5  C   LIG    1       21.976 -18.151   3.992  0.00  0.00    +0.009 C 
ATOM      6  C   LIG    1       21.271 -19.219   4.822  0.00  0.00    +0.032 C 
ATOM      7  C   LIG    1       21.987 -20.564   4.700  0.00  0.00    +0.115 C 
ATOM      8  C   LIG    1       24.269 -17.400   3.184  0.00  0.00    +0.001 C 
ATOM      9  C   LIG    1       25.822 -17.415   3.293  0.00  0.00    +0.025 C 
ATOM     10  C   LIG    1       26.331 -16.149   4.006  0.00  0.00    +0.001 C 
ATOM     11  C   LIG    1       25.903 -14.826   3.326  0.00  0.00    -0.026 C 
ATOM     12  C   LIG    1       26.478 -14.654   1.885  0.00  0.00    +0.012 C 
ATOM     13  C   LIG    1       24.379 -14.808   3.213  0.00  0.00    +0.007 C 
ATOM     14  C   LIG    1       26.624 -13.761   4.234  0.00  0.00    -0.002 C 
ATOM     15  C   LIG    1       27.958 -14.498   4.606  0.00  0.00    +0.004 C 
ATOM     16  C   LIG    1       27.830 -15.968   4.173  0.00  0.00    +0.005 C 
ATOM     17  C   LIG    1       23.791 -16.065   2.558  0.00  0.00    +0.005 C 
ATOM     18  C   LIG    1       23.490 -20.432   4.400  0.00  0.00    +0.035 C 
ATOM     19  C   LIG    1       26.347 -18.726   3.903  0.00  0.00    +0.122 C 
ENDROOT
BRANCH   1  21
ATOM     20  C   LIG    1       27.586 -20.276   6.440  0.00  0.00    +0.004 C 
ATOM     21  C   LIG    1       26.207 -20.434   5.810  0.00  0.00    +0.003 C 
ENDBRANCH   1  21
BRANCH   7  22
ATOM     22  O   LIG    1       21.400 -21.328   3.650  0.00  0.00    -0.392 OA
ATOM     23  H   LIG    1       21.293 -22.238   3.975  0.00  0.00    +0.210 HD
ENDBRANCH   7  22
BRANCH  14  24
ATOM     24  C   LIG    1       25.917 -13.178   5.514  0.00  0.00    -0.010 C 
ATOM     25  C   LIG    1       25.995 -14.091   6.751  0.00  0.00    +0.008 C 
BRANCH  24  26
ATOM     26  C   LIG    1       24.402 -12.866   5.273  0.00  0.00    +0.015 C 
BRANCH  26  27
ATOM     27  C   LIG    1       24.121 -11.473   4.703  0.00  0.00    +0.121 C 
BRANCH  27  28
ATOM     28  C   LIG    1       24.201 -11.461   3.195  0.00  0.00    +0.305 C 
ATOM     29  O   LIG    1       25.245 -11.452   2.570  0.00  0.00    -0.251 OA
BRANCH  28  30
ATOM     30  O   LIG    1       22.991 -11.448   2.591  0.00  0.00    -0.481 OA
ATOM     31  H   LIG    1       22.369 -10.789   2.950  0.00  0.00    +0.295 HD
ENDBRANCH  28  30
ENDBRANCH  27  28
ENDBRANCH  26  27
ENDBRANCH  24  26
ENDBRANCH  14  24
BRANCH  19  32
ATOM     32  O   LIG    1       26.287 -19.784   2.947  0.00  0.00    -0.391 OA
ATOM     33  H   LIG    1       26.258 -20.636   3.410  0.00  0.00    +0.210 HD
ENDBRANCH  19  32
TORSDOF 8
ENDMDL
MODEL 3
REMARK VINA RESULT:      12.9      2.286      6.141
REMARK  Name = *****
REMARK                            x       y       z     vdW  Elec       q    Type
REMARK                         _______ _______ _______ _____ _____    ______ ____
ROOT
ATOM      1  C   LIG    1       25.142 -19.876   5.557  0.00  0.00    +0.021 C 
ATOM      2  C   LIG    1       23.614 -19.721   5.288  0.00  0.00    +0.003 C 
ATOM      3  C   LIG    1       23.246 -18.396   4.517  0.00  0.00    -0.026 C 
ATOM      4  C   LIG    1       23.187 -17.269   5.578  0.00  0.00    +0.012 C 
ATOM      5  C   LIG    1       21.794 -18.491   3.922  0.00  0.00    +0.009 C 
ATOM      6  C   LIG    1       20.865 -19.374   4.750  0.00  0.00    +0.032 C 
ATOM      7  C   LIG    1       21.380 -20.813   4.794  0.00  0.00    +0.115 C 
ATOM      8  C   LIG    1       24.235 -18.145   3.297  0.00  0.00    +0.001 C 
ATOM      9  C   LIG    1       25.752 -18.372   3.561  0.00  0.00    +0.025 C 
ATOM     10  C   LIG    1       26.380 -17.136   4.231  0.00  0.00    +0.001 C 
ATOM     11  C   LIG    1       26.218 -15.827   3.421  0.00  0.00    -0.026 C 
ATOM     12  C   LIG    1       26.937 -15.860   2.037  0.00  0.00    +0.012 C 
ATOM     13  C   LIG    1       24.729 -15.602   3.156  0.00  0.00    +0.007 C 
ATOM     14  C   LIG    1       27.006 -14.803   4.321  0.00  0.00    -0.002 C 
ATOM     15  C   LIG    1       28.177 -15.690   4.874  0.00  0.00    +0.004 C 
ATOM     16  C   LIG    1       27.869 -17.157   4.534  0.00  0.00    +0.005 C 
ATOM     17  C   LIG    1       24.020 -16.813   2.534  0.00  0.00    +0.005 C 
ATOM     18  C   LIG    1       22.906 -20.922   4.637  0.00  0.00    +0.035 C 
ATOM     19  C   LIG    1       26.019 -19.689   4.310  0.00  0.00    +0.122 C 
ENDROOT
BRANCH   1  21
ATOM     20  C   LIG    1       26.790 -21.187   7.047  0.00  0.00    +0.004 C 
ATOM     21  C   LIG    1       25.457 -21.194   6.308  0.00  0.00    +0.003 C 
ENDBRANCH   1  21
BRANCH   7  22
ATOM     22  O   LIG    1       20.780 -21.571   3.746  0.00  0.00    -0.392 OA
ATOM     23  H   LIG    1       20.615 -20.964   3.005  0.00  0.00    +0.210 HD
ENDBRANCH   7  22
BRANCH  14  24
ATOM     24  C   LIG    1       26.284 -14.021   5.479  0.00  0.00    -0.010 C 
ATOM     25  C   LIG    1       24.824 -13.642   5.172  0.00  0.00    +0.008 C 
BRANCH  24  26
ATOM     26  C   LIG    1       27.027 -12.696   5.863  0.00  0.00    +0.015 C 
BRANCH  26  27
ATOM     27  C   LIG    1       28.428 -12.556   5.264  0.00  0.00    +0.121 C 
BRANCH  27  28
ATOM     28  C   LIG    1       28.390 -12.514   3.755  0.00  0.00    +0.305 C 
ATOM     29  O   LIG    1       27.476 -12.034   3.112  0.00  0.00    -0.251 OA
BRANCH  28  30
ATOM     30  O   LIG    1       29.474 -13.076   3.173  0.00  0.00    -0.481 OA
ATOM     31  H   LIG    1       30.060 -12.445   2.719  0.00  0.00    +0.295 HD
ENDBRANCH  28  30
ENDBRANCH  27  28
ENDBRANCH  26  27
ENDBRANCH  24  26
ENDBRANCH  14  24
BRANCH  19  32
ATOM     32  O   LIG    1       25.886 -20.803   3.429  0.00  0.00    -0.391 OA
ATOM     33  H   LIG    1       26.269 -20.580   2.567  0.00  0.00    +0.210 HD
ENDBRANCH  19  32
TORSDOF 8
ENDMDL
MODEL 4
REMARK VINA RESULT:      13.0      1.154      1.386
REMARK  Name = *****
REMARK                            x       y       z     vdW  Elec       q    Type
REMARK                         _______ _______ _______ _____ _____    ______ ____
ROOT
ATOM      1  C   LIG    1       23.535 -15.477   5.397  0.00  0.00    +0.021 C 
ATOM      2  C   LIG    1       24.634 -14.899   4.452  0.00  0.00    +0.003 C 
ATOM      3  C   LIG    1       25.317 -15.993   3.546  0.00  0.00    -0.026 C 
ATOM      4  C   LIG    1       26.404 -16.673   4.416  0.00  0.00    +0.012 C 
ATOM      5  C   LIG    1       26.092 -15.315   2.357  0.00  0.00    +0.009 C 
ATOM      6  C   LIG    1       26.626 -13.929   2.705  0.00  0.00    +0.032 C 
ATOM      7  C   LIG    1       25.479 -12.973   3.038  0.00  0.00    +0.115 C 
ATOM      8  C   LIG    1       24.237 -16.967   2.903  0.00  0.00    +0.001 C 
ATOM      9  C   LIG    1       23.105 -17.480   3.841  0.00  0.00    +0.025 C 
ATOM     10  C   LIG    1       23.588 -18.682   4.673  0.00  0.00    +0.001 C 
ATOM     11  C   LIG    1       24.097 -19.873   3.826  0.00  0.00    -0.026 C 
ATOM     12  C   LIG    1       22.993 -20.512   2.926  0.00  0.00    +0.012 C 
ATOM     13  C   LIG    1       25.207 -19.373   2.901  0.00  0.00    +0.007 C 
ATOM     14  C   LIG    1       24.439 -20.928   4.944  0.00  0.00    -0.002 C 
ATOM     15  C   LIG    1       23.317 -20.652   6.006  0.00  0.00    +0.004 C 
ATOM     16  C   LIG    1       22.605 -19.345   5.623  0.00  0.00    +0.005 C 
ATOM     17  C   LIG    1       24.815 -18.141   2.074  0.00  0.00    +0.005 C 
ATOM     18  C   LIG    1       24.236 -13.682   3.600  0.00  0.00    +0.035 C 
ATOM     19  C   LIG    1       22.491 -16.348   4.682  0.00  0.00    +0.122 C 
ENDROOT
BRANCH   1  21
ATOM     20  C   LIG    1       21.398 -14.569   6.520  0.00  0.00    +0.004 C 
ATOM     21  C   LIG    1       22.887 -14.367   6.261  0.00  0.00    +0.003 C 
ENDBRANCH   1  21
BRANCH   7  22
ATOM     22  O   LIG    1       25.084 -12.269   1.863  0.00  0.00    -0.392 OA
ATOM     23  H   LIG    1       25.363 -12.798   1.097  0.00  0.00    +0.210 HD
ENDBRANCH   7  22
BRANCH  14  24
ATOM     24  C   LIG    1       25.863 -20.966   5.612  0.00  0.00    -0.010 C 
ATOM     25  C   LIG    1       25.882 -21.572   7.027  0.00  0.00    +0.008 C 
BRANCH  24  26
ATOM     26  C   LIG    1       26.516 -19.547   5.715  0.00  0.00    +0.015 C 
BRANCH  26  27
ATOM     27  C   LIG    1       28.043 -19.538   5.596  0.00  0.00    +0.121 C 
BRANCH  27  28
ATOM     28  C   LIG    1       28.541 -18.296   4.896  0.00  0.00    +0.305 C 
ATOM     29  O   LIG    1       28.299 -18.027   3.735  0.00  0.00    -0.251 OA
BRANCH  28  30
ATOM     30  O   LIG    1       29.303 -17.503   5.684  0.00  0.00    -0.481 OA
ATOM     31  H   LIG    1       30.260 -17.565   5.513  0.00  0.00    +0.295 HD
ENDBRANCH  28  30
ENDBRANCH  27  28
ENDBRANCH  26  27
ENDBRANCH  24  26
ENDBRANCH  14  24
BRANCH  19  32
ATOM     32  O   LIG    1       21.625 -15.542   3.884  0.00  0.00    -0.391 OA
ATOM     33  H   LIG    1       21.741 -15.774   2.949  0.00  0.00    +0.210 HD
ENDBRANCH  19  32
TORSDOF 8
ENDMDL
