MODEL 1
REMARK VINA RESULT:      -5.7      0.000      0.000
REMARK  Name = *****
REMARK                            x       y       z     vdW  Elec       q    Type
REMARK                         _______ _______ _______ _____ _____    ______ ____
ROOT
ATOM      1  C   LIG    1       25.158 -23.057   7.152  0.00  0.00    +0.096 C 
ENDROOT
BRANCH   1   2
ATOM      2  N   LIG    1       26.478 -22.584   6.725  0.00  0.00    -0.310 NA
ATOM      3  H   LIG    1       27.032 -23.417   6.524  0.00  0.00    +0.122 HD
BRANCH   2   4
ATOM      4  CA  LIG    1       27.168 -21.738   7.721  0.00  0.00    +0.079 C 
BRANCH   4   6
ATOM      5  C   LIG    1       29.028 -19.940   7.669  0.00  0.00    +0.005 C 
ATOM      6  C   LIG    1       28.520 -21.274   7.132  0.00  0.00    +0.017 C 
ENDBRANCH   4   6
BRANCH   4   7
ATOM      7  C   LIG    1       26.368 -20.461   8.103  0.00  0.00    +0.174 C 
BRANCH   7   8
ATOM      8  O   LIG    1       25.886 -20.498   9.446  0.00  0.00    -0.394 OA
ATOM      9  H   LIG    1       25.030 -20.036   9.445  0.00  0.00    +0.209 HD
ENDBRANCH   7   8
ENDBRANCH   4   7
ENDBRANCH   2   4
ENDBRANCH   1   2
BRANCH   1  10
ATOM     10  C   LIG    1       24.131 -22.901   6.008  0.00  0.00    +0.096 C 
BRANCH  10  11
ATOM     11  N   LIG    1       24.705 -22.389   4.746  0.00  0.00    -0.310 NA
ATOM     12  H   LIG    1       24.559 -23.097   4.025  0.00  0.00    +0.122 HD
BRANCH  11  13
ATOM     13  CA  LIG    1       24.029 -21.134   4.318  0.00  0.00    +0.079 C 
BRANCH  13  14
ATOM     14  C   LIG    1       23.035 -20.575   5.365  0.00  0.00    +0.017 C 
ATOM     15  C   LIG    1       22.444 -19.207   5.057  0.00  0.00    +0.005 C 
ENDBRANCH  13  14
BRANCH  13  16
ATOM     16  C   LIG    1       25.097 -20.086   3.926  0.00  0.00    +0.174 C 
BRANCH  16  17
ATOM     17  O   LIG    1       26.376 -20.396   4.479  0.00  0.00    -0.394 OA
ATOM     18  H   LIG    1       26.996 -19.776   4.049  0.00  0.00    +0.209 HD
ENDBRANCH  16  17
ENDBRANCH  13  16
ENDBRANCH  11  13
ENDBRANCH  10  11
ENDBRANCH   1  10
TORSDOF 11
ENDMDL
MODEL 2
REMARK VINA RESULT:      -5.5      2.811      5.977
REMARK  Name = *****
REMARK                            x       y       z     vdW  Elec       q    Type
REMARK                         _______ _______ _______ _____ _____    ______ ____
ROOT
ATOM      1  C   LIG    1       28.022 -20.037   6.082  0.00  0.00    +0.096 C 
ENDROOT
BRANCH   1   2
ATOM      2  N   LIG    1       26.881 -20.957   6.112  0.00  0.00    -0.310 NA
ATOM      3  H   LIG    1       26.556 -21.045   5.149  0.00  0.00    +0.122 HD
BRANCH   2   4
ATOM      4  CA  LIG    1       25.774 -20.519   6.987  0.00  0.00    +0.079 C 
BRANCH   4   6
ATOM      5  C   LIG    1       23.379 -21.494   7.102  0.00  0.00    +0.005 C 
ATOM      6  C   LIG    1       24.432 -20.776   6.263  0.00  0.00    +0.017 C 
ENDBRANCH   4   6
BRANCH   4   7
ATOM      7  C   LIG    1       25.722 -21.281   8.341  0.00  0.00    +0.174 C 
BRANCH   7   8
ATOM      8  O   LIG    1       26.072 -20.453   9.449  0.00  0.00    -0.394 OA
ATOM      9  H   LIG    1       26.487 -19.655   9.078  0.00  0.00    +0.209 HD
ENDBRANCH   7   8
ENDBRANCH   4   7
ENDBRANCH   2   4
ENDBRANCH   1   2
BRANCH   1  10
ATOM     10  C   LIG    1       29.096 -20.474   7.104  0.00  0.00    +0.096 C 
BRANCH  10  11
ATOM     11  N   LIG    1       29.057 -19.726   8.378  0.00  0.00    -0.310 NA
ATOM     12  H   LIG    1       29.283 -20.378   9.131  0.00  0.00    +0.122 HD
BRANCH  11  13
ATOM     13  CA  LIG    1       30.063 -18.629   8.388  0.00  0.00    +0.079 C 
BRANCH  13  14
ATOM     14  C   LIG    1       30.080 -17.812   9.702  0.00  0.00    +0.017 C 
ATOM     15  C   LIG    1       31.021 -16.616   9.730  0.00  0.00    +0.005 C 
ENDBRANCH  13  14
BRANCH  13  16
ATOM     16  C   LIG    1       31.458 -19.212   8.057  0.00  0.00    +0.174 C 
BRANCH  16  17
ATOM     17  O   LIG    1       32.028 -19.893   9.174  0.00  0.00    -0.394 OA
ATOM     18  H   LIG    1       31.579 -20.761   9.199  0.00  0.00    +0.209 HD
ENDBRANCH  16  17
ENDBRANCH  13  16
ENDBRANCH  11  13
ENDBRANCH  10  11
ENDBRANCH   1  10
TORSDOF 11
ENDMDL
MODEL 3
REMARK VINA RESULT:      -5.5      2.884      4.453
REMARK  Name = *****
REMARK                            x       y       z     vdW  Elec       q    Type
REMARK                         _______ _______ _______ _____ _____    ______ ____
ROOT
ATOM      1  C   LIG    1       29.256 -20.371   7.139  0.00  0.00    +0.096 C 
ENDROOT
BRANCH   1   2
ATOM      2  N   LIG    1       29.172 -19.556   8.354  0.00  0.00    -0.310 NA
ATOM      3  H   LIG    1       28.220 -19.191   8.392  0.00  0.00    +0.122 HD
BRANCH   2   4
ATOM      4  CA  LIG    1       30.147 -18.447   8.408  0.00  0.00    +0.079 C 
BRANCH   4   6
ATOM      5  C   LIG    1       30.972 -16.566   9.981  0.00  0.00    +0.005 C 
ATOM      6  C   LIG    1       30.090 -17.798   9.810  0.00  0.00    +0.017 C 
ENDBRANCH   4   6
BRANCH   4   7
ATOM      7  C   LIG    1       31.613 -18.907   8.171  0.00  0.00    +0.174 C 
BRANCH   7   8
ATOM      8  O   LIG    1       32.087 -19.779   9.196  0.00  0.00    -0.394 OA
ATOM      9  H   LIG    1       32.626 -20.458   8.755  0.00  0.00    +0.209 HD
ENDBRANCH   7   8
ENDBRANCH   4   7
ENDBRANCH   2   4
ENDBRANCH   1   2
BRANCH   1  10
ATOM     10  C   LIG    1       28.099 -20.027   6.174  0.00  0.00    +0.096 C 
BRANCH  10  11
ATOM     11  N   LIG    1       27.009 -21.024   6.158  0.00  0.00    -0.310 NA
ATOM     12  H   LIG    1       27.376 -21.895   6.543  0.00  0.00    +0.122 HD
BRANCH  11  13
ATOM     13  CA  LIG    1       25.864 -20.582   7.001  0.00  0.00    +0.079 C 
BRANCH  13  14
ATOM     14  C   LIG    1       24.490 -20.711   6.300  0.00  0.00    +0.017 C 
ATOM     15  C   LIG    1       23.349 -21.231   7.163  0.00  0.00    +0.005 C 
ENDBRANCH  13  14
BRANCH  13  16
ATOM     16  C   LIG    1       25.895 -21.346   8.346  0.00  0.00    +0.174 C 
BRANCH  16  17
ATOM     17  O   LIG    1       25.970 -20.458   9.461  0.00  0.00    -0.394 OA
ATOM     18  H   LIG    1       26.902 -20.495   9.752  0.00  0.00    +0.209 HD
ENDBRANCH  16  17
ENDBRANCH  13  16
ENDBRANCH  11  13
ENDBRANCH  10  11
ENDBRANCH   1  10
TORSDOF 11
ENDMDL
MODEL 4
REMARK VINA RESULT:      -5.5      3.294      4.849
REMARK  Name = *****
REMARK                            x       y       z     vdW  Elec       q    Type
REMARK                         _______ _______ _______ _____ _____    ______ ____
ROOT
ATOM      1  C   LIG    1       23.645 -24.382   6.584  0.00  0.00    +0.096 C 
ENDROOT
BRANCH   1   2
ATOM      2  N   LIG    1       23.794 -25.623   5.819  0.00  0.00    -0.310 NA
ATOM      3  H   LIG    1       23.008 -26.219   6.080  0.00  0.00    +0.122 HD
BRANCH   2   4
ATOM      4  CA  LIG    1       25.071 -26.329   6.053  0.00  0.00    +0.079 C 
BRANCH   4   6
ATOM      5  C   LIG    1       24.128 -28.727   5.817  0.00  0.00    +0.005 C 
ATOM      6  C   LIG    1       24.775 -27.688   6.727  0.00  0.00    +0.017 C 
ENDBRANCH   4   6
BRANCH   4   7
ATOM      7  C   LIG    1       25.859 -26.623   4.746  0.00  0.00    +0.174 C 
BRANCH   7   8
ATOM      8  O   LIG    1       27.179 -27.102   4.998  0.00  0.00    -0.394 OA
ATOM      9  H   LIG    1       27.125 -27.653   5.798  0.00  0.00    +0.209 HD
ENDBRANCH   7   8
ENDBRANCH   4   7
ENDBRANCH   2   4
ENDBRANCH   1   2
BRANCH   1  10
ATOM     10  C   LIG    1       24.730 -23.360   6.176  0.00  0.00    +0.096 C 
BRANCH  10  11
ATOM     11  N   LIG    1       24.605 -22.869   4.788  0.00  0.00    -0.310 NA
ATOM     12  H   LIG    1       23.808 -23.342   4.359  0.00  0.00    +0.122 HD
BRANCH  11  13
ATOM     13  CA  LIG    1       24.354 -21.402   4.757  0.00  0.00    +0.079 C 
BRANCH  13  14
ATOM     14  C   LIG    1       22.949 -21.000   5.267  0.00  0.00    +0.017 C 
ATOM     15  C   LIG    1       22.590 -19.527   5.135  0.00  0.00    +0.005 C 
ENDBRANCH  13  14
BRANCH  13  16
ATOM     16  C   LIG    1       25.476 -20.676   5.536  0.00  0.00    +0.174 C 
BRANCH  16  17
ATOM     17  O   LIG    1       26.540 -20.265   4.679  0.00  0.00    -0.394 OA
ATOM     18  H   LIG    1       26.251 -19.409   4.308  0.00  0.00    +0.209 HD
ENDBRANCH  16  17
ENDBRANCH  13  16
ENDBRANCH  11  13
ENDBRANCH  10  11
ENDBRANCH   1  10
TORSDOF 11
ENDMDL
MODEL 5
REMARK VINA RESULT:      -5.4      2.699      5.267
REMARK  Name = *****
REMARK                            x       y       z     vdW  Elec       q    Type
REMARK                         _______ _______ _______ _____ _____    ______ ____
ROOT
ATOM      1  C   LIG    1       25.511 -21.531   7.892  0.00  0.00    +0.096 C 
ENDROOT
BRANCH   1   2
ATOM      2  N   LIG    1       24.198 -20.881   7.856  0.00  0.00    -0.310 NA
ATOM      3  H   LIG    1       23.857 -20.864   8.817  0.00  0.00    +0.122 HD
BRANCH   2   4
ATOM      4  CA  LIG    1       23.216 -21.550   6.977  0.00  0.00    +0.079 C 
BRANCH   4   6
ATOM      5  C   LIG    1       22.609 -19.644   5.335  0.00  0.00    +0.005 C 
ATOM      6  C   LIG    1       23.340 -20.965   5.551  0.00  0.00    +0.017 C 
ENDBRANCH   4   6
BRANCH   4   7
ATOM      7  C   LIG    1       23.435 -23.085   6.868  0.00  0.00    +0.174 C 
BRANCH   7   8
ATOM      8  O   LIG    1       22.218 -23.798   6.648  0.00  0.00    -0.394 OA
ATOM      9  H   LIG    1       21.985 -24.214   7.496  0.00  0.00    +0.209 HD
ENDBRANCH   7   8
ENDBRANCH   4   7
ENDBRANCH   2   4
ENDBRANCH   1   2
BRANCH   1  10
ATOM     10  C   LIG    1       26.638 -20.484   7.744  0.00  0.00    +0.096 C 
BRANCH  10  11
ATOM     11  N   LIG    1       27.945 -20.926   8.273  0.00  0.00    -0.310 NA
ATOM     12  H   LIG    1       27.892 -21.931   8.441  0.00  0.00    +0.122 HD
BRANCH  11  13
ATOM     13  CA  LIG    1       29.036 -20.669   7.293  0.00  0.00    +0.079 C 
BRANCH  13  14
ATOM     14  C   LIG    1       28.584 -19.849   6.061  0.00  0.00    +0.017 C 
ATOM     15  C   LIG    1       29.366 -18.570   5.790  0.00  0.00    +0.005 C 
ENDBRANCH  13  14
BRANCH  13  16
ATOM     16  C   LIG    1       30.229 -20.002   8.020  0.00  0.00    +0.174 C 
BRANCH  16  17
ATOM     17  O   LIG    1       31.467 -20.638   7.704  0.00  0.00    -0.394 OA
ATOM     18  H   LIG    1       31.907 -20.777   8.565  0.00  0.00    +0.209 HD
ENDBRANCH  16  17
ENDBRANCH  13  16
ENDBRANCH  11  13
ENDBRANCH  10  11
ENDBRANCH   1  10
TORSDOF 11
ENDMDL
MODEL 6
REMARK VINA RESULT:      -5.4      2.717      6.315
REMARK  Name = *****
REMARK                            x       y       z     vdW  Elec       q    Type
REMARK                         _______ _______ _______ _____ _____    ______ ____
ROOT
ATOM      1  C   LIG    1       27.127 -20.300   6.356  0.00  0.00    +0.096 C 
ENDROOT
BRANCH   1   2
ATOM      2  N   LIG    1       26.850 -20.282   4.917  0.00  0.00    -0.310 NA
ATOM      3  H   LIG    1       27.176 -19.380   4.571  0.00  0.00    +0.122 HD
BRANCH   2   4
ATOM      4  CA  LIG    1       25.426 -20.476   4.573  0.00  0.00    +0.079 C 
BRANCH   4   6
ATOM      5  C   LIG    1       23.112 -20.221   5.702  0.00  0.00    +0.005 C 
ATOM      6  C   LIG    1       24.597 -20.520   5.877  0.00  0.00    +0.017 C 
ENDBRANCH   4   6
BRANCH   4   7
ATOM      7  C   LIG    1       24.845 -19.333   3.694  0.00  0.00    +0.174 C 
BRANCH   7   8
ATOM      8  O   LIG    1       25.842 -18.403   3.276  0.00  0.00    -0.394 OA
ATOM      9  H   LIG    1       26.579 -18.928   2.918  0.00  0.00    +0.209 HD
ENDBRANCH   7   8
ENDBRANCH   4   7
ENDBRANCH   2   4
ENDBRANCH   1   2
BRANCH   1  10
ATOM     10  C   LIG    1       28.634 -20.524   6.614  0.00  0.00    +0.096 C 
BRANCH  10  11
ATOM     11  N   LIG    1       29.073 -20.163   7.978  0.00  0.00    -0.310 NA
ATOM     12  H   LIG    1       28.654 -20.828   8.629  0.00  0.00    +0.122 HD
BRANCH  11  13
ATOM     13  CA  LIG    1       30.554 -20.250   8.106  0.00  0.00    +0.079 C 
BRANCH  13  14
ATOM     14  C   LIG    1       31.200 -18.985   8.724  0.00  0.00    +0.017 C 
ATOM     15  C   LIG    1       30.241 -18.000   9.377  0.00  0.00    +0.005 C 
ENDBRANCH  13  14
BRANCH  13  16
ATOM     16  C   LIG    1       30.925 -21.527   8.898  0.00  0.00    +0.174 C 
BRANCH  16  17
ATOM     17  O   LIG    1       32.223 -21.432   9.483  0.00  0.00    -0.394 OA
ATOM     18  H   LIG    1       32.443 -22.343   9.761  0.00  0.00    +0.209 HD
ENDBRANCH  16  17
ENDBRANCH  13  16
ENDBRANCH  11  13
ENDBRANCH  10  11
ENDBRANCH   1  10
TORSDOF 11
ENDMDL
MODEL 7
REMARK VINA RESULT:      -5.4      2.692      3.369
REMARK  Name = *****
REMARK                            x       y       z     vdW  Elec       q    Type
REMARK                         _______ _______ _______ _____ _____    ______ ____
ROOT
ATOM      1  C   LIG    1       26.711 -20.703   7.618  0.00  0.00    +0.096 C 
ENDROOT
BRANCH   1   2
ATOM      2  N   LIG    1       27.949 -21.065   8.313  0.00  0.00    -0.310 NA
ATOM      3  H   LIG    1       28.020 -20.444   9.120  0.00  0.00    +0.122 HD
BRANCH   2   4
ATOM      4  CA  LIG    1       29.165 -20.959   7.480  0.00  0.00    +0.079 C 
BRANCH   4   6
ATOM      5  C   LIG    1       29.588 -18.777   6.155  0.00  0.00    +0.005 C 
ATOM      6  C   LIG    1       28.843 -20.106   6.232  0.00  0.00    +0.017 C 
ENDBRANCH   4   6
BRANCH   4   7
ATOM      7  C   LIG    1       30.355 -20.277   8.212  0.00  0.00    +0.174 C 
BRANCH   7   8
ATOM      8  O   LIG    1       31.537 -21.075   8.197  0.00  0.00    -0.394 OA
ATOM      9  H   LIG    1       32.273 -20.476   7.983  0.00  0.00    +0.209 HD
ENDBRANCH   7   8
ENDBRANCH   4   7
ENDBRANCH   2   4
ENDBRANCH   1   2
BRANCH   1  10
ATOM     10  C   LIG    1       25.588 -21.710   7.952  0.00  0.00    +0.096 C 
BRANCH  10  11
ATOM     11  N   LIG    1       24.246 -21.102   8.069  0.00  0.00    -0.310 NA
ATOM     12  H   LIG    1       24.349 -20.092   7.959  0.00  0.00    +0.122 HD
BRANCH  11  13
ATOM     13  CA  LIG    1       23.336 -21.601   7.002  0.00  0.00    +0.079 C 
BRANCH  13  14
ATOM     14  C   LIG    1       23.539 -20.903   5.635  0.00  0.00    +0.017 C 
ATOM     15  C   LIG    1       22.654 -19.694   5.367  0.00  0.00    +0.005 C 
ENDBRANCH  13  14
BRANCH  13  16
ATOM     16  C   LIG    1       23.476 -23.137   6.888  0.00  0.00    +0.174 C 
BRANCH  16  17
ATOM     17  O   LIG    1       22.217 -23.772   6.667  0.00  0.00    -0.394 OA
ATOM     18  H   LIG    1       21.830 -23.884   7.557  0.00  0.00    +0.209 HD
ENDBRANCH  16  17
ENDBRANCH  13  16
ENDBRANCH  11  13
ENDBRANCH  10  11
ENDBRANCH   1  10
TORSDOF 11
ENDMDL
MODEL 8
REMARK VINA RESULT:      -5.4      2.731      3.532
REMARK  Name = *****
REMARK                            x       y       z     vdW  Elec       q    Type
REMARK                         _______ _______ _______ _____ _____    ______ ____
ROOT
ATOM      1  C   LIG    1       28.279 -21.215   7.528  0.00  0.00    +0.096 C 
ENDROOT
BRANCH   1   2
ATOM      2  N   LIG    1       29.004 -20.098   8.140  0.00  0.00    -0.310 NA
ATOM      3  H   LIG    1       28.767 -19.267   7.598  0.00  0.00    +0.122 HD
BRANCH   2   4
ATOM      4  CA  LIG    1       30.470 -20.279   8.182  0.00  0.00    +0.079 C 
BRANCH   4   6
ATOM      5  C   LIG    1       30.300 -17.817   8.960  0.00  0.00    +0.005 C 
ATOM      6  C   LIG    1       31.095 -19.119   8.990  0.00  0.00    +0.017 C 
ENDBRANCH   4   6
BRANCH   4   7
ATOM      7  C   LIG    1       30.906 -21.606   8.866  0.00  0.00    +0.174 C 
BRANCH   7   8
ATOM      8  O   LIG    1       32.197 -21.514   9.465  0.00  0.00    -0.394 OA
ATOM      9  H   LIG    1       32.814 -21.259   8.757  0.00  0.00    +0.209 HD
ENDBRANCH   7   8
ENDBRANCH   4   7
ENDBRANCH   2   4
ENDBRANCH   1   2
BRANCH   1  10
ATOM     10  C   LIG    1       27.106 -20.692   6.668  0.00  0.00    +0.096 C 
BRANCH  10  11
ATOM     11  N   LIG    1       25.832 -20.556   7.404  0.00  0.00    -0.310 NA
ATOM     12  H   LIG    1       25.590 -19.565   7.431  0.00  0.00    +0.122 HD
BRANCH  11  13
ATOM     13  CA  LIG    1       24.734 -21.290   6.718  0.00  0.00    +0.079 C 
BRANCH  13  14
ATOM     14  C   LIG    1       23.347 -20.618   6.868  0.00  0.00    +0.017 C 
ATOM     15  C   LIG    1       22.769 -19.997   5.604  0.00  0.00    +0.005 C 
ENDBRANCH  13  14
BRANCH  13  16
ATOM     16  C   LIG    1       25.111 -21.501   5.232  0.00  0.00    +0.174 C 
BRANCH  16  17
ATOM     17  O   LIG    1       24.773 -22.811   4.778  0.00  0.00    -0.394 OA
ATOM     18  H   LIG    1       25.605 -23.179   4.422  0.00  0.00    +0.209 HD
ENDBRANCH  16  17
ENDBRANCH  13  16
ENDBRANCH  11  13
ENDBRANCH  10  11
ENDBRANCH   1  10
TORSDOF 11
ENDMDL
MODEL 9
REMARK VINA RESULT:      -5.4      3.008      5.923
REMARK  Name = *****
REMARK                            x       y       z     vdW  Elec       q    Type
REMARK                         _______ _______ _______ _____ _____    ______ ____
ROOT
ATOM      1  C   LIG    1       26.522 -21.764   7.368  0.00  0.00    +0.096 C 
ENDROOT
BRANCH   1   2
ATOM      2  N   LIG    1       25.861 -22.048   6.092  0.00  0.00    -0.310 NA
ATOM      3  H   LIG    1       25.280 -21.236   5.879  0.00  0.00    +0.122 HD
BRANCH   2   4
ATOM      4  CA  LIG    1       25.039 -23.276   6.096  0.00  0.00    +0.079 C 
BRANCH   4   6
ATOM      5  C   LIG    1       26.017 -25.667   6.249  0.00  0.00    +0.005 C 
ATOM      6  C   LIG    1       25.742 -24.346   6.962  0.00  0.00    +0.017 C 
ENDBRANCH   4   6
BRANCH   4   7
ATOM      7  C   LIG    1       23.618 -23.062   6.690  0.00  0.00    +0.174 C 
BRANCH   7   8
ATOM      8  O   LIG    1       22.804 -24.230   6.599  0.00  0.00    -0.394 OA
ATOM      9  H   LIG    1       22.051 -24.091   7.200  0.00  0.00    +0.209 HD
ENDBRANCH   7   8
ENDBRANCH   4   7
ENDBRANCH   2   4
ENDBRANCH   1   2
BRANCH   1  10
ATOM     10  C   LIG    1       27.992 -21.350   7.137  0.00  0.00    +0.096 C 
BRANCH  10  11
ATOM     11  N   LIG    1       28.753 -21.101   8.379  0.00  0.00    -0.310 NA
ATOM     12  H   LIG    1       28.536 -21.853   9.034  0.00  0.00    +0.122 HD
BRANCH  11  13
ATOM     13  CA  LIG    1       30.219 -21.108   8.122  0.00  0.00    +0.079 C 
BRANCH  13  14
ATOM     14  C   LIG    1       30.830 -19.694   7.969  0.00  0.00    +0.017 C 
ATOM     15  C   LIG    1       30.052 -18.559   8.620  0.00  0.00    +0.005 C 
ENDBRANCH  13  14
BRANCH  13  16
ATOM     16  C   LIG    1       30.928 -21.922   9.231  0.00  0.00    +0.174 C 
BRANCH  16  17
ATOM     17  O   LIG    1       32.265 -21.472   9.449  0.00  0.00    -0.394 OA
ATOM     18  H   LIG    1       32.520 -21.024   8.619  0.00  0.00    +0.209 HD
ENDBRANCH  16  17
ENDBRANCH  13  16
ENDBRANCH  11  13
ENDBRANCH  10  11
ENDBRANCH   1  10
TORSDOF 11
ENDMDL
