MODEL 1
REMARK VINA RESULT:      -9.6      0.000      0.000
REMARK  Name = *****
REMARK                            x       y       z     vdW  Elec       q    Type
REMARK                         _______ _______ _______ _____ _____    ______ ____
ROOT
ATOM      1  C   LIG    1       25.611 -22.037   6.766  0.00  0.00    +0.179 C 
ENDROOT
BRANCH   1   2
ATOM      2  C   LIG    1       24.653 -21.225   5.884  0.00  0.00    -0.015 A 
ATOM      3  C   LIG    1       24.886 -20.986   4.516  0.00  0.00    +0.006 A 
ATOM      4  C   LIG    1       24.037 -20.148   3.781  0.00  0.00    +0.000 A 
ATOM      5  C   LIG    1       22.953 -19.526   4.396  0.00  0.00    +0.000 A 
ATOM      6  C   LIG    1       22.689 -19.771   5.739  0.00  0.00    +0.000 A 
ATOM      7  C   LIG    1       23.520 -20.625   6.466  0.00  0.00    +0.006 A 
ENDBRANCH   1   2
BRANCH   1   8
ATOM      8  C   LIG    1       26.954 -21.322   6.890  0.00  0.00    -0.015 A 
ATOM      9  C   LIG    1       27.953 -21.755   7.779  0.00  0.00    +0.006 A 
ATOM     10  C   LIG    1       29.204 -21.133   7.788  0.00  0.00    +0.000 A 
ATOM     11  C   LIG    1       29.486 -20.095   6.904  0.00  0.00    +0.000 A 
ATOM     12  C   LIG    1       28.506 -19.652   6.016  0.00  0.00    +0.000 A 
ATOM     13  C   LIG    1       27.250 -20.255   6.024  0.00  0.00    +0.006 A 
ENDBRANCH   1   8
BRANCH   1  14
ATOM     14  O   LIG    1       25.720 -23.378   6.280  0.00  0.00    -0.364 OA
BRANCH  14  19
ATOM     15  C   LIG    1       24.437 -28.306   5.610  0.00  0.00    +0.105 C 
ATOM     16  N   LIG    1       24.301 -26.854   5.454  0.00  0.00    -0.299 NA
ATOM     17  C   LIG    1       24.366 -26.154   6.753  0.00  0.00    +0.059 C 
ATOM     18  C   LIG    1       23.776 -24.746   6.499  0.00  0.00    +0.050 C 
ATOM     19  C   LIG    1       24.624 -23.915   5.515  0.00  0.00    +0.122 C 
ATOM     20  C   LIG    1       25.012 -24.811   4.316  0.00  0.00    +0.050 C 
ATOM     21  C   LIG    1       25.864 -26.156   7.095  0.00  0.00    +0.020 C 
ATOM     22  C   LIG    1       26.573 -26.229   5.738  0.00  0.00    +0.020 C 
ATOM     23  C   LIG    1       25.431 -26.245   4.721  0.00  0.00    +0.059 C 
ENDBRANCH  14  19
ENDBRANCH   1  14
TORSDOF 4
ENDMDL
MODEL 2
REMARK VINA RESULT:      -9.1      2.358      6.091
REMARK  Name = *****
REMARK                            x       y       z     vdW  Elec       q    Type
REMARK                         _______ _______ _______ _____ _____    ______ ____
ROOT
ATOM      1  C   LIG    1       25.342 -21.540   6.844  0.00  0.00    +0.179 C 
ENDROOT
BRANCH   1   2
ATOM      2  C   LIG    1       24.996 -23.029   6.709  0.00  0.00    -0.015 A 
ATOM      3  C   LIG    1       25.965 -24.024   6.477  0.00  0.00    +0.006 A 
ATOM      4  C   LIG    1       25.586 -25.354   6.255  0.00  0.00    +0.000 A 
ATOM      5  C   LIG    1       24.240 -25.713   6.245  0.00  0.00    +0.000 A 
ATOM      6  C   LIG    1       23.269 -24.751   6.500  0.00  0.00    +0.000 A 
ATOM      7  C   LIG    1       23.647 -23.430   6.747  0.00  0.00    +0.006 A 
ENDBRANCH   1   2
BRANCH   1   8
ATOM      8  C   LIG    1       24.588 -20.722   5.798  0.00  0.00    -0.015 A 
ATOM      9  C   LIG    1       23.259 -20.307   5.987  0.00  0.00    +0.006 A 
ATOM     10  C   LIG    1       22.642 -19.476   5.048  0.00  0.00    +0.000 A 
ATOM     11  C   LIG    1       23.339 -19.029   3.930  0.00  0.00    +0.000 A 
ATOM     12  C   LIG    1       24.658 -19.433   3.726  0.00  0.00    +0.000 A 
ATOM     13  C   LIG    1       25.266 -20.282   4.648  0.00  0.00    +0.006 A 
ENDBRANCH   1   8
BRANCH   1  14
ATOM     14  O   LIG    1       26.760 -21.352   6.803  0.00  0.00    -0.364 OA
BRANCH  14  19
ATOM     15  C   LIG    1       31.017 -18.799   8.123  0.00  0.00    +0.105 C 
ATOM     16  N   LIG    1       29.895 -19.724   8.319  0.00  0.00    -0.299 NA
ATOM     17  C   LIG    1       28.604 -19.108   7.952  0.00  0.00    +0.059 C 
ATOM     18  C   LIG    1       27.517 -19.990   8.611  0.00  0.00    +0.050 C 
ATOM     19  C   LIG    1       27.490 -21.423   8.042  0.00  0.00    +0.122 C 
ATOM     20  C   LIG    1       28.943 -21.943   7.941  0.00  0.00    +0.050 C 
ATOM     21  C   LIG    1       28.602 -19.148   6.416  0.00  0.00    +0.020 C 
ATOM     22  C   LIG    1       29.508 -20.332   6.057  0.00  0.00    +0.020 C 
ATOM     23  C   LIG    1       29.946 -20.890   7.411  0.00  0.00    +0.059 C 
ENDBRANCH  14  19
ENDBRANCH   1  14
TORSDOF 4
ENDMDL
MODEL 3
REMARK VINA RESULT:      -9.0      2.213      6.097
REMARK  Name = *****
REMARK                            x       y       z     vdW  Elec       q    Type
REMARK                         _______ _______ _______ _____ _____    ______ ____
ROOT
ATOM      1  C   LIG    1       25.073 -22.170   7.094  0.00  0.00    +0.179 C 
ENDROOT
BRANCH   1   2
ATOM      2  C   LIG    1       25.044 -23.671   6.779  0.00  0.00    -0.015 A 
ATOM      3  C   LIG    1       26.209 -24.443   6.612  0.00  0.00    +0.006 A 
ATOM      4  C   LIG    1       26.128 -25.785   6.218  0.00  0.00    +0.000 A 
ATOM      5  C   LIG    1       24.891 -26.375   5.970  0.00  0.00    +0.000 A 
ATOM      6  C   LIG    1       23.726 -25.638   6.156  0.00  0.00    +0.000 A 
ATOM      7  C   LIG    1       23.805 -24.308   6.573  0.00  0.00    +0.006 A 
ENDBRANCH   1   2
BRANCH   1   8
ATOM      8  C   LIG    1       24.247 -21.394   6.071  0.00  0.00    -0.015 A 
ATOM      9  C   LIG    1       23.217 -20.516   6.451  0.00  0.00    +0.006 A 
ATOM     10  C   LIG    1       22.554 -19.752   5.487  0.00  0.00    +0.000 A 
ATOM     11  C   LIG    1       22.918 -19.830   4.146  0.00  0.00    +0.000 A 
ATOM     12  C   LIG    1       23.937 -20.698   3.752  0.00  0.00    +0.000 A 
ATOM     13  C   LIG    1       24.581 -21.479   4.709  0.00  0.00    +0.006 A 
ENDBRANCH   1   8
BRANCH   1  14
ATOM     14  O   LIG    1       26.424 -21.710   7.204  0.00  0.00    -0.364 OA
BRANCH  14  19
ATOM     15  C   LIG    1       30.912 -19.214   7.111  0.00  0.00    +0.105 C 
ATOM     16  N   LIG    1       29.452 -19.342   7.176  0.00  0.00    -0.299 NA
ATOM     17  C   LIG    1       28.929 -20.206   6.098  0.00  0.00    +0.059 C 
ATOM     18  C   LIG    1       27.415 -19.896   6.012  0.00  0.00    +0.050 C 
ATOM     19  C   LIG    1       26.653 -20.291   7.293  0.00  0.00    +0.122 C 
ATOM     20  C   LIG    1       27.465 -19.813   8.519  0.00  0.00    +0.050 C 
ATOM     21  C   LIG    1       29.253 -21.629   6.580  0.00  0.00    +0.020 C 
ATOM     22  C   LIG    1       29.304 -21.520   8.108  0.00  0.00    +0.020 C 
ATOM     23  C   LIG    1       28.989 -20.051   8.388  0.00  0.00    +0.059 C 
ENDBRANCH  14  19
ENDBRANCH   1  14
TORSDOF 4
ENDMDL
MODEL 4
REMARK VINA RESULT:      -9.0      0.964      3.934
REMARK  Name = *****
REMARK                            x       y       z     vdW  Elec       q    Type
REMARK                         _______ _______ _______ _____ _____    ______ ____
ROOT
ATOM      1  C   LIG    1       25.760 -21.345   5.347  0.00  0.00    +0.179 C 
ENDROOT
BRANCH   1   2
ATOM      2  C   LIG    1       26.826 -20.670   6.220  0.00  0.00    -0.015 A 
ATOM      3  C   LIG    1       27.949 -20.010   5.686  0.00  0.00    +0.006 A 
ATOM      4  C   LIG    1       28.949 -19.503   6.527  0.00  0.00    +0.000 A 
ATOM      5  C   LIG    1       28.854 -19.658   7.909  0.00  0.00    +0.000 A 
ATOM      6  C   LIG    1       27.739 -20.282   8.458  0.00  0.00    +0.000 A 
ATOM      7  C   LIG    1       26.731 -20.764   7.621  0.00  0.00    +0.006 A 
ENDBRANCH   1   2
BRANCH   1   8
ATOM      8  C   LIG    1       24.647 -20.357   5.006  0.00  0.00    -0.015 A 
ATOM      9  C   LIG    1       24.683 -19.558   3.850  0.00  0.00    +0.006 A 
ATOM     10  C   LIG    1       23.596 -18.742   3.526  0.00  0.00    +0.000 A 
ATOM     11  C   LIG    1       22.458 -18.726   4.325  0.00  0.00    +0.000 A 
ATOM     12  C   LIG    1       22.406 -19.512   5.476  0.00  0.00    +0.000 A 
ATOM     13  C   LIG    1       23.499 -20.307   5.815  0.00  0.00    +0.006 A 
ENDBRANCH   1   8
BRANCH   1  14
ATOM     14  O   LIG    1       25.289 -22.543   5.973  0.00  0.00    -0.364 OA
BRANCH  14  19
ATOM     15  C   LIG    1       24.438 -27.606   6.128  0.00  0.00    +0.105 C 
ATOM     16  N   LIG    1       24.179 -26.216   5.738  0.00  0.00    -0.299 NA
ATOM     17  C   LIG    1       24.176 -25.309   6.904  0.00  0.00    +0.059 C 
ATOM     18  C   LIG    1       23.469 -24.018   6.428  0.00  0.00    +0.050 C 
ATOM     19  C   LIG    1       24.248 -23.289   5.314  0.00  0.00    +0.122 C 
ATOM     20  C   LIG    1       24.719 -24.333   4.276  0.00  0.00    +0.050 C 
ATOM     21  C   LIG    1       25.667 -25.127   7.230  0.00  0.00    +0.020 C 
ATOM     22  C   LIG    1       26.387 -25.360   5.897  0.00  0.00    +0.020 C 
ATOM     23  C   LIG    1       25.257 -25.640   4.906  0.00  0.00    +0.059 C 
ENDBRANCH  14  19
ENDBRANCH   1  14
TORSDOF 4
ENDMDL
MODEL 5
REMARK VINA RESULT:      -8.7      2.253      6.139
REMARK  Name = *****
REMARK                            x       y       z     vdW  Elec       q    Type
REMARK                         _______ _______ _______ _____ _____    ______ ____
ROOT
ATOM      1  C   LIG    1       25.074 -21.905   7.035  0.00  0.00    +0.179 C 
ENDROOT
BRANCH   1   2
ATOM      2  C   LIG    1       24.960 -23.393   6.680  0.00  0.00    -0.015 A 
ATOM      3  C   LIG    1       23.726 -24.053   6.528  0.00  0.00    +0.006 A 
ATOM      4  C   LIG    1       23.676 -25.436   6.309  0.00  0.00    +0.000 A 
ATOM      5  C   LIG    1       24.849 -26.185   6.254  0.00  0.00    +0.000 A 
ATOM      6  C   LIG    1       26.080 -25.548   6.373  0.00  0.00    +0.000 A 
ATOM      7  C   LIG    1       26.130 -24.167   6.565  0.00  0.00    +0.006 A 
ENDBRANCH   1   2
BRANCH   1   8
ATOM      8  C   LIG    1       24.376 -21.050   5.980  0.00  0.00    -0.015 A 
ATOM      9  C   LIG    1       24.762 -21.065   4.629  0.00  0.00    +0.006 A 
ATOM     10  C   LIG    1       24.031 -20.344   3.681  0.00  0.00    +0.000 A 
ATOM     11  C   LIG    1       22.900 -19.624   4.055  0.00  0.00    +0.000 A 
ATOM     12  C   LIG    1       22.504 -19.598   5.392  0.00  0.00    +0.000 A 
ATOM     13  C   LIG    1       23.247 -20.295   6.342  0.00  0.00    +0.006 A 
ENDBRANCH   1   8
BRANCH   1  14
ATOM     14  O   LIG    1       26.443 -21.546   7.246  0.00  0.00    -0.364 OA
BRANCH  14  19
ATOM     15  C   LIG    1       31.104 -19.392   7.119  0.00  0.00    +0.105 C 
ATOM     16  N   LIG    1       29.638 -19.410   7.182  0.00  0.00    -0.299 NA
ATOM     17  C   LIG    1       29.053 -20.252   6.119  0.00  0.00    +0.059 C 
ATOM     18  C   LIG    1       27.567 -19.832   6.023  0.00  0.00    +0.050 C 
ATOM     19  C   LIG    1       26.777 -20.147   7.310  0.00  0.00    +0.122 C 
ATOM     20  C   LIG    1       27.621 -19.708   8.529  0.00  0.00    +0.050 C 
ATOM     21  C   LIG    1       29.271 -21.686   6.626  0.00  0.00    +0.020 C 
ATOM     22  C   LIG    1       29.328 -21.554   8.152  0.00  0.00    +0.020 C 
ATOM     23  C   LIG    1       29.123 -20.061   8.406  0.00  0.00    +0.059 C 
ENDBRANCH  14  19
ENDBRANCH   1  14
TORSDOF 4
ENDMDL
MODEL 6
REMARK VINA RESULT:      -8.7      0.809      3.825
REMARK  Name = *****
REMARK                            x       y       z     vdW  Elec       q    Type
REMARK                         _______ _______ _______ _____ _____    ______ ____
ROOT
ATOM      1  C   LIG    1       25.751 -21.699   5.462  0.00  0.00    +0.179 C 
ENDROOT
BRANCH   1   2
ATOM      2  C   LIG    1       26.759 -21.010   6.391  0.00  0.00    -0.015 A 
ATOM      3  C   LIG    1       26.605 -20.963   7.789  0.00  0.00    +0.006 A 
ATOM      4  C   LIG    1       27.497 -20.229   8.583  0.00  0.00    +0.000 A 
ATOM      5  C   LIG    1       28.544 -19.521   7.998  0.00  0.00    +0.000 A 
ATOM      6  C   LIG    1       28.731 -19.578   6.621  0.00  0.00    +0.000 A 
ATOM      7  C   LIG    1       27.857 -20.329   5.833  0.00  0.00    +0.006 A 
ENDBRANCH   1   2
BRANCH   1   8
ATOM      8  C   LIG    1       24.620 -20.739   5.099  0.00  0.00    -0.015 A 
ATOM      9  C   LIG    1       23.521 -20.521   5.947  0.00  0.00    +0.006 A 
ATOM     10  C   LIG    1       22.561 -19.560   5.621  0.00  0.00    +0.000 A 
ATOM     11  C   LIG    1       22.690 -18.791   4.469  0.00  0.00    +0.000 A 
ATOM     12  C   LIG    1       23.773 -18.996   3.615  0.00  0.00    +0.000 A 
ATOM     13  C   LIG    1       24.718 -19.972   3.925  0.00  0.00    +0.006 A 
ENDBRANCH   1   8
BRANCH   1  14
ATOM     14  O   LIG    1       25.295 -22.925   6.041  0.00  0.00    -0.364 OA
BRANCH  14  19
ATOM     15  C   LIG    1       24.588 -28.012   5.981  0.00  0.00    +0.105 C 
ATOM     16  N   LIG    1       24.294 -26.615   5.645  0.00  0.00    -0.299 NA
ATOM     17  C   LIG    1       24.252 -25.758   6.846  0.00  0.00    +0.059 C 
ATOM     18  C   LIG    1       23.513 -24.468   6.414  0.00  0.00    +0.050 C 
ATOM     19  C   LIG    1       24.284 -23.673   5.341  0.00  0.00    +0.122 C 
ATOM     20  C   LIG    1       24.795 -24.660   4.266  0.00  0.00    +0.050 C 
ATOM     21  C   LIG    1       25.733 -25.547   7.197  0.00  0.00    +0.020 C 
ATOM     22  C   LIG    1       26.475 -25.705   5.865  0.00  0.00    +0.020 C 
ATOM     23  C   LIG    1       25.364 -25.976   4.850  0.00  0.00    +0.059 C 
ENDBRANCH  14  19
ENDBRANCH   1  14
TORSDOF 4
ENDMDL
MODEL 7
REMARK VINA RESULT:      -7.9      2.320      5.399
REMARK  Name = *****
REMARK                            x       y       z     vdW  Elec       q    Type
REMARK                         _______ _______ _______ _____ _____    ______ ____
ROOT
ATOM      1  C   LIG    1       25.377 -21.127   5.539  0.00  0.00    +0.179 C 
ENDROOT
BRANCH   1   2
ATOM      2  C   LIG    1       24.320 -20.200   4.925  0.00  0.00    -0.015 A 
ATOM      3  C   LIG    1       24.561 -19.408   3.786  0.00  0.00    +0.006 A 
ATOM      4  C   LIG    1       23.599 -18.498   3.329  0.00  0.00    +0.000 A 
ATOM      5  C   LIG    1       22.389 -18.351   4.006  0.00  0.00    +0.000 A 
ATOM      6  C   LIG    1       22.120 -19.143   5.116  0.00  0.00    +0.000 A 
ATOM      7  C   LIG    1       23.068 -20.068   5.556  0.00  0.00    +0.006 A 
ENDBRANCH   1   2
BRANCH   1   8
ATOM      8  C   LIG    1       24.746 -22.454   5.952  0.00  0.00    -0.015 A 
ATOM      9  C   LIG    1       23.550 -22.518   6.688  0.00  0.00    +0.006 A 
ATOM     10  C   LIG    1       22.955 -23.754   6.957  0.00  0.00    +0.000 A 
ATOM     11  C   LIG    1       23.523 -24.932   6.483  0.00  0.00    +0.000 A 
ATOM     12  C   LIG    1       24.711 -24.887   5.752  0.00  0.00    +0.000 A 
ATOM     13  C   LIG    1       25.318 -23.658   5.505  0.00  0.00    +0.006 A 
ENDBRANCH   1   8
BRANCH   1  14
ATOM     14  O   LIG    1       26.063 -20.464   6.605  0.00  0.00    -0.364 OA
BRANCH  14  19
ATOM     15  C   LIG    1       30.836 -20.467   8.501  0.00  0.00    +0.105 C 
ATOM     16  N   LIG    1       29.432 -20.880   8.409  0.00  0.00    -0.299 NA
ATOM     17  C   LIG    1       28.518 -19.720   8.387  0.00  0.00    +0.059 C 
ATOM     18  C   LIG    1       27.120 -20.281   8.737  0.00  0.00    +0.050 C 
ATOM     19  C   LIG    1       26.593 -21.268   7.676  0.00  0.00    +0.122 C 
ATOM     20  C   LIG    1       27.735 -22.237   7.291  0.00  0.00    +0.050 C 
ATOM     21  C   LIG    1       28.640 -19.184   6.951  0.00  0.00    +0.020 C 
ATOM     22  C   LIG    1       29.047 -20.404   6.116  0.00  0.00    +0.020 C 
ATOM     23  C   LIG    1       29.110 -21.546   7.129  0.00  0.00    +0.059 C 
ENDBRANCH  14  19
ENDBRANCH   1  14
TORSDOF 4
ENDMDL
MODEL 8
REMARK VINA RESULT:      -7.9      2.225      5.696
REMARK  Name = *****
REMARK                            x       y       z     vdW  Elec       q    Type
REMARK                         _______ _______ _______ _____ _____    ______ ____
ROOT
ATOM      1  C   LIG    1       25.874 -22.354   5.765  0.00  0.00    +0.179 C 
ENDROOT
BRANCH   1   2
ATOM      2  C   LIG    1       24.671 -21.464   5.425  0.00  0.00    -0.015 A 
ATOM      3  C   LIG    1       24.517 -20.825   4.180  0.00  0.00    +0.006 A 
ATOM      4  C   LIG    1       23.456 -19.938   3.957  0.00  0.00    +0.000 A 
ATOM      5  C   LIG    1       22.542 -19.661   4.972  0.00  0.00    +0.000 A 
ATOM      6  C   LIG    1       22.660 -20.303   6.200  0.00  0.00    +0.000 A 
ATOM      7  C   LIG    1       23.703 -21.206   6.413  0.00  0.00    +0.006 A 
ENDBRANCH   1   2
BRANCH   1   8
ATOM      8  C   LIG    1       25.433 -23.807   5.924  0.00  0.00    -0.015 A 
ATOM      9  C   LIG    1       24.658 -24.465   4.954  0.00  0.00    +0.006 A 
ATOM     10  C   LIG    1       24.362 -25.824   5.092  0.00  0.00    +0.000 A 
ATOM     11  C   LIG    1       24.849 -26.548   6.176  0.00  0.00    +0.000 A 
ATOM     12  C   LIG    1       25.619 -25.911   7.149  0.00  0.00    +0.000 A 
ATOM     13  C   LIG    1       25.893 -24.550   7.025  0.00  0.00    +0.006 A 
ENDBRANCH   1   8
BRANCH   1  14
ATOM     14  O   LIG    1       26.568 -21.840   6.906  0.00  0.00    -0.364 OA
BRANCH  14  19
ATOM     15  C   LIG    1       30.731 -18.887   7.477  0.00  0.00    +0.105 C 
ATOM     16  N   LIG    1       29.297 -19.170   7.351  0.00  0.00    -0.299 NA
ATOM     17  C   LIG    1       29.007 -20.026   6.184  0.00  0.00    +0.059 C 
ATOM     18  C   LIG    1       27.490 -19.872   5.919  0.00  0.00    +0.050 C 
ATOM     19  C   LIG    1       26.627 -20.411   7.078  0.00  0.00    +0.122 C 
ATOM     20  C   LIG    1       27.227 -19.916   8.414  0.00  0.00    +0.050 C 
ATOM     21  C   LIG    1       29.425 -21.431   6.646  0.00  0.00    +0.020 C 
ATOM     22  C   LIG    1       29.279 -21.398   8.172  0.00  0.00    +0.020 C 
ATOM     23  C   LIG    1       28.772 -19.986   8.467  0.00  0.00    +0.059 C 
ENDBRANCH  14  19
ENDBRANCH   1  14
TORSDOF 4
ENDMDL
MODEL 9
REMARK VINA RESULT:      -7.8      2.086      5.769
REMARK  Name = *****
REMARK                            x       y       z     vdW  Elec       q    Type
REMARK                         _______ _______ _______ _____ _____    ______ ____
ROOT
ATOM      1  C   LIG    1       24.575 -23.452   6.865  0.00  0.00    +0.179 C 
ENDROOT
BRANCH   1   2
ATOM      2  C   LIG    1       25.652 -22.480   7.363  0.00  0.00    -0.015 A 
ATOM      3  C   LIG    1       25.471 -21.639   8.478  0.00  0.00    +0.006 A 
ATOM      4  C   LIG    1       26.443 -20.693   8.826  0.00  0.00    +0.000 A 
ATOM      5  C   LIG    1       27.602 -20.558   8.065  0.00  0.00    +0.000 A 
ATOM      6  C   LIG    1       27.814 -21.398   6.977  0.00  0.00    +0.000 A 
ATOM      7  C   LIG    1       26.856 -22.358   6.645  0.00  0.00    +0.006 A 
ENDBRANCH   1   2
BRANCH   1   8
ATOM      8  C   LIG    1       25.213 -24.752   6.382  0.00  0.00    -0.015 A 
ATOM      9  C   LIG    1       25.806 -25.670   7.266  0.00  0.00    +0.006 A 
ATOM     10  C   LIG    1       26.289 -26.892   6.792  0.00  0.00    +0.000 A 
ATOM     11  C   LIG    1       26.169 -27.228   5.447  0.00  0.00    +0.000 A 
ATOM     12  C   LIG    1       25.584 -26.329   4.555  0.00  0.00    +0.000 A 
ATOM     13  C   LIG    1       25.126 -25.099   5.022  0.00  0.00    +0.006 A 
ENDBRANCH   1   8
BRANCH   1  14
ATOM     14  O   LIG    1       23.750 -22.821   5.881  0.00  0.00    -0.364 OA
BRANCH  14  19
ATOM     15  C   LIG    1       22.382 -18.180   4.157  0.00  0.00    +0.105 C 
ATOM     16  N   LIG    1       22.282 -19.381   4.994  0.00  0.00    -0.299 NA
ATOM     17  C   LIG    1       22.323 -20.617   4.188  0.00  0.00    +0.059 C 
ATOM     18  C   LIG    1       21.771 -21.734   5.107  0.00  0.00    +0.050 C 
ATOM     19  C   LIG    1       22.667 -21.988   6.336  0.00  0.00    +0.122 C 
ATOM     20  C   LIG    1       23.072 -20.625   6.944  0.00  0.00    +0.050 C 
ATOM     21  C   LIG    1       23.810 -20.773   3.831  0.00  0.00    +0.020 C 
ATOM     22  C   LIG    1       24.558 -20.056   4.960  0.00  0.00    +0.020 C 
ATOM     23  C   LIG    1       23.448 -19.559   5.887  0.00  0.00    +0.059 C 
ENDBRANCH  14  19
ENDBRANCH   1  14
TORSDOF 4
ENDMDL
