MODEL 1
REMARK VINA RESULT:      -4.8      0.000      0.000
REMARK  Name = *****
REMARK                            x       y       z     vdW  Elec       q    Type
REMARK                         _______ _______ _______ _____ _____    ______ ____
ROOT
ATOM      1  C   LIG    1       23.230 -21.565   6.966  0.00  0.00    +0.185 C 
ENDROOT
BRANCH   1   2
ATOM      2  C   LIG    1       22.845 -20.791   5.742  0.00  0.00    +0.395 C 
ATOM      3  F   LIG    1       21.748 -21.346   5.173  0.00  0.00    -0.171 F 
ATOM      4  F   LIG    1       23.825 -20.798   4.814  0.00  0.00    -0.171 F 
ATOM      5  F   LIG    1       22.543 -19.513   6.032  0.00  0.00    -0.171 F 
ENDBRANCH   1   2
BRANCH   1   7
ATOM      6  F   LIG    1       24.394 -23.543   7.325  0.00  0.00    -0.209 F 
ATOM      7  C   LIG    1       23.374 -23.013   6.597  0.00  0.00    +0.350 C 
ATOM      8  F   LIG    1       22.264 -23.703   6.941  0.00  0.00    -0.209 F 
ENDBRANCH   1   7
TORSDOF 2
ENDMDL
MODEL 2
REMARK VINA RESULT:      -4.8      0.029      1.336
REMARK  Name = *****
REMARK                            x       y       z     vdW  Elec       q    Type
REMARK                         _______ _______ _______ _____ _____    ______ ____
ROOT
ATOM      1  C   LIG    1       23.226 -21.561   6.940  0.00  0.00    +0.185 C 
ENDROOT
BRANCH   1   2
ATOM      2  C   LIG    1       22.821 -20.808   5.709  0.00  0.00    +0.395 C 
ATOM      3  F   LIG    1       22.540 -19.522   6.026  0.00  0.00    -0.171 F 
ATOM      4  F   LIG    1       21.715 -21.332   5.141  0.00  0.00    -0.171 F 
ATOM      5  F   LIG    1       23.802 -20.789   4.789  0.00  0.00    -0.171 F 
ENDBRANCH   1   2
BRANCH   1   7
ATOM      6  F   LIG    1       24.384 -23.536   7.334  0.00  0.00    -0.209 F 
ATOM      7  C   LIG    1       23.369 -23.014   6.593  0.00  0.00    +0.350 C 
ATOM      8  F   LIG    1       22.255 -23.697   6.940  0.00  0.00    -0.209 F 
ENDBRANCH   1   7
TORSDOF 2
ENDMDL
MODEL 3
REMARK VINA RESULT:      -4.7      1.061      1.921
REMARK  Name = *****
REMARK                            x       y       z     vdW  Elec       q    Type
REMARK                         _______ _______ _______ _____ _____    ______ ____
ROOT
ATOM      1  C   LIG    1       22.778 -21.791   5.877  0.00  0.00    +0.185 C 
ENDROOT
BRANCH   1   2
ATOM      2  C   LIG    1       23.260 -20.434   6.293  0.00  0.00    +0.395 C 
ATOM      3  F   LIG    1       24.499 -20.211   5.794  0.00  0.00    -0.171 F 
ATOM      4  F   LIG    1       23.341 -20.319   7.636  0.00  0.00    -0.171 F 
ATOM      5  F   LIG    1       22.460 -19.456   5.832  0.00  0.00    -0.171 F 
ENDBRANCH   1   2
BRANCH   1   7
ATOM      6  F   LIG    1       22.257 -23.860   6.797  0.00  0.00    -0.209 F 
ATOM      7  C   LIG    1       23.028 -22.757   6.999  0.00  0.00    +0.350 C 
ATOM      8  F   LIG    1       24.311 -23.182   6.983  0.00  0.00    -0.209 F 
ENDBRANCH   1   7
TORSDOF 2
ENDMDL
MODEL 4
REMARK VINA RESULT:      -4.7      2.209      3.788
REMARK  Name = *****
REMARK                            x       y       z     vdW  Elec       q    Type
REMARK                         _______ _______ _______ _____ _____    ______ ____
ROOT
ATOM      1  C   LIG    1       24.164 -20.259   4.993  0.00  0.00    +0.185 C 
ENDROOT
BRANCH   1   2
ATOM      2  C   LIG    1       22.871 -20.176   5.747  0.00  0.00    +0.395 C 
ATOM      3  F   LIG    1       22.313 -18.955   5.572  0.00  0.00    -0.171 F 
ATOM      4  F   LIG    1       23.051 -20.349   7.073  0.00  0.00    -0.171 F 
ATOM      5  F   LIG    1       21.982 -21.089   5.316  0.00  0.00    -0.171 F 
ENDBRANCH   1   2
BRANCH   1   7
ATOM      6  F   LIG    1       24.918 -18.595   3.557  0.00  0.00    -0.209 F 
ATOM      7  C   LIG    1       23.992 -19.586   3.662  0.00  0.00    +0.350 C 
ATOM      8  F   LIG    1       24.246 -20.452   2.656  0.00  0.00    -0.209 F 
ENDBRANCH   1   7
TORSDOF 2
ENDMDL
MODEL 5
REMARK VINA RESULT:      -4.7      2.473      3.144
REMARK  Name = *****
REMARK                            x       y       z     vdW  Elec       q    Type
REMARK                         _______ _______ _______ _____ _____    ______ ____
ROOT
ATOM      1  C   LIG    1       23.795 -19.778   4.249  0.00  0.00    +0.185 C 
ENDROOT
BRANCH   1   2
ATOM      2  C   LIG    1       22.600 -19.660   5.146  0.00  0.00    +0.395 C 
ATOM      3  F   LIG    1       22.935 -20.014   6.409  0.00  0.00    -0.171 F 
ATOM      4  F   LIG    1       21.596 -20.473   4.755  0.00  0.00    -0.171 F 
ATOM      5  F   LIG    1       22.132 -18.401   5.193  0.00  0.00    -0.171 F 
ENDBRANCH   1   2
BRANCH   1   7
ATOM      6  F   LIG    1       24.805 -21.857   4.487  0.00  0.00    -0.209 F 
ATOM      7  C   LIG    1       24.851 -20.580   4.954  0.00  0.00    +0.350 C 
ATOM      8  F   LIG    1       26.082 -20.110   4.654  0.00  0.00    -0.209 F 
ENDBRANCH   1   7
TORSDOF 2
ENDMDL
MODEL 6
REMARK VINA RESULT:      -4.7      1.583      2.416
REMARK  Name = *****
REMARK                            x       y       z     vdW  Elec       q    Type
REMARK                         _______ _______ _______ _____ _____    ______ ____
ROOT
ATOM      1  C   LIG    1       23.810 -20.740   5.716  0.00  0.00    +0.185 C 
ENDROOT
BRANCH   1   2
ATOM      2  C   LIG    1       22.715 -20.009   5.002  0.00  0.00    +0.395 C 
ATOM      3  F   LIG    1       22.297 -18.959   5.748  0.00  0.00    -0.171 F 
ATOM      4  F   LIG    1       21.642 -20.798   4.785  0.00  0.00    -0.171 F 
ATOM      5  F   LIG    1       23.127 -19.520   3.819  0.00  0.00    -0.171 F 
ENDBRANCH   1   2
BRANCH   1   7
ATOM      6  F   LIG    1       23.024 -21.945   7.540  0.00  0.00    -0.209 F 
ATOM      7  C   LIG    1       23.519 -20.728   7.189  0.00  0.00    +0.350 C 
ATOM      8  F   LIG    1       24.658 -20.563   7.897  0.00  0.00    -0.209 F 
ENDBRANCH   1   7
TORSDOF 2
ENDMDL
MODEL 7
REMARK VINA RESULT:      -4.7      0.844      3.363
REMARK  Name = *****
REMARK                            x       y       z     vdW  Elec       q    Type
REMARK                         _______ _______ _______ _____ _____    ______ ____
ROOT
ATOM      1  C   LIG    1       23.271 -21.564   7.102  0.00  0.00    +0.185 C 
ENDROOT
BRANCH   1   2
ATOM      2  C   LIG    1       23.832 -22.915   6.776  0.00  0.00    +0.395 C 
ATOM      3  F   LIG    1       24.285 -22.931   5.500  0.00  0.00    -0.171 F 
ATOM      4  F   LIG    1       22.900 -23.885   6.883  0.00  0.00    -0.171 F 
ATOM      5  F   LIG    1       24.868 -23.232   7.573  0.00  0.00    -0.171 F 
ENDBRANCH   1   2
BRANCH   1   7
ATOM      6  F   LIG    1       21.817 -21.446   5.294  0.00  0.00    -0.209 F 
ATOM      7  C   LIG    1       22.927 -20.861   5.820  0.00  0.00    +0.350 C 
ATOM      8  F   LIG    1       22.601 -19.572   6.058  0.00  0.00    -0.209 F 
ENDBRANCH   1   7
TORSDOF 2
ENDMDL
MODEL 8
REMARK VINA RESULT:      -4.5      2.970      4.821
REMARK  Name = *****
REMARK                            x       y       z     vdW  Elec       q    Type
REMARK                         _______ _______ _______ _____ _____    ______ ____
ROOT
ATOM      1  C   LIG    1       24.104 -25.655   6.220  0.00  0.00    +0.185 C 
ENDROOT
BRANCH   1   2
ATOM      2  C   LIG    1       25.204 -25.821   5.215  0.00  0.00    +0.395 C 
ATOM      3  F   LIG    1       26.401 -25.569   5.796  0.00  0.00    -0.171 F 
ATOM      4  F   LIG    1       25.072 -24.965   4.180  0.00  0.00    -0.171 F 
ATOM      5  F   LIG    1       25.250 -27.073   4.727  0.00  0.00    -0.171 F 
ENDBRANCH   1   2
BRANCH   1   7
ATOM      6  F   LIG    1       22.611 -24.031   6.949  0.00  0.00    -0.209 F 
ATOM      7  C   LIG    1       23.859 -24.189   6.431  0.00  0.00    +0.350 C 
ATOM      8  F   LIG    1       24.718 -23.692   7.349  0.00  0.00    -0.209 F 
ENDBRANCH   1   7
TORSDOF 2
ENDMDL
MODEL 9
REMARK VINA RESULT:      -4.5      1.849      2.729
REMARK  Name = *****
REMARK                            x       y       z     vdW  Elec       q    Type
REMARK                         _______ _______ _______ _____ _____    ______ ____
ROOT
ATOM      1  C   LIG    1       24.339 -20.482   5.368  0.00  0.00    +0.185 C 
ENDROOT
BRANCH   1   2
ATOM      2  C   LIG    1       22.971 -20.384   5.973  0.00  0.00    +0.395 C 
ATOM      3  F   LIG    1       23.042 -20.589   7.309  0.00  0.00    -0.171 F 
ATOM      4  F   LIG    1       22.132 -21.313   5.469  0.00  0.00    -0.171 F 
ATOM      5  F   LIG    1       22.425 -19.170   5.781  0.00  0.00    -0.171 F 
ENDBRANCH   1   2
BRANCH   1   7
ATOM      6  F   LIG    1       25.777 -22.144   6.119  0.00  0.00    -0.209 F 
ATOM      7  C   LIG    1       25.309 -20.907   6.433  0.00  0.00    +0.350 C 
ATOM      8  F   LIG    1       26.383 -20.087   6.451  0.00  0.00    -0.209 F 
ENDBRANCH   1   7
TORSDOF 2
ENDMDL
