MODEL 1
REMARK VINA RESULT:      -5.3      0.000      0.000
REMARK  Name = *****
REMARK                            x       y       z     vdW  Elec       q    Type
REMARK                         _______ _______ _______ _____ _____    ______ ____
ROOT
ATOM      1  C   LIG    1       28.085 -18.586   5.056  0.00  0.00    +0.124 A 
ATOM      2  C   LIG    1       27.083 -19.550   5.320  0.00  0.00    +0.000 A 
ATOM      3  C   LIG    1       25.786 -19.543   4.545  0.00  0.00    +0.073 C 
ATOM      4  C   LIG    1       25.034 -20.878   4.604  0.00  0.00    +0.148 C 
ATOM      5  C   LIG    1       24.909 -21.379   6.044  0.00  0.00    +0.147 C 
ATOM      6  C   LIG    1       26.285 -21.571   6.679  0.00  0.00    +0.069 C 
ATOM      7  C   LIG    1       27.295 -20.493   6.346  0.00  0.00    -0.038 A 
ATOM      8  C   LIG    1       28.500 -20.491   7.062  0.00  0.00    +0.004 A 
ATOM      9  C   LIG    1       29.474 -19.524   6.804  0.00  0.00    +0.004 A 
ATOM     10  C   LIG    1       29.253 -18.570   5.822  0.00  0.00    +0.046 A 
ENDROOT
BRANCH   5  11
ATOM     11  O   LIG    1       24.106 -20.450   6.791  0.00  0.00    -0.389 OA
ATOM     12  H   LIG    1       23.180 -20.580   6.523  0.00  0.00    +0.210 HD
ENDBRANCH   5  11
BRANCH   4  13
ATOM     13  O   LIG    1       23.719 -20.712   4.059  0.00  0.00    -0.389 OA
ATOM     14  H   LIG    1       23.135 -21.232   4.649  0.00  0.00    +0.210 HD
ENDBRANCH   4  13
BRANCH   1  15
ATOM     15  O   LIG    1       27.842 -17.678   4.056  0.00  0.00    -0.489 OA
BRANCH  15  16
ATOM     16  C   LIG    1       28.013 -16.302   4.432  0.00  0.00    +0.261 C 
BRANCH  16  17
ATOM     17  C   LIG    1       27.097 -15.407   3.588  0.00  0.00    +0.166 C 
BRANCH  17  18
ATOM     18  O   LIG    1       26.096 -16.189   2.922  0.00  0.00    -0.387 OA
ATOM     19  H   LIG    1       25.236 -15.922   3.289  0.00  0.00    +0.210 HD
ENDBRANCH  17  18
BRANCH  17  20
ATOM     20  C   LIG    1       26.433 -14.302   4.439  0.00  0.00    +0.116 C 
BRANCH  20  21
ATOM     21  N   LIG    1       25.857 -13.217   3.618  0.00  0.00    -0.309 NA
ATOM     22  H   LIG    1       26.269 -12.325   3.876  0.00  0.00    +0.122 HD
BRANCH  21  24
ATOM     23  C   LIG    1       23.732 -14.335   4.308  0.00  0.00    +0.027 C 
ATOM     24  C   LIG    1       24.388 -13.085   3.702  0.00  0.00    +0.011 C 
ATOM     25  C   LIG    1       23.991 -11.832   4.498  0.00  0.00    +0.027 C 
ATOM     26  C   LIG    1       23.864 -12.928   2.259  0.00  0.00    +0.027 C 
ENDBRANCH  21  24
ENDBRANCH  20  21
ENDBRANCH  17  20
ENDBRANCH  16  17
ENDBRANCH  15  16
ENDBRANCH   1  15
TORSDOF 9
ENDMDL
MODEL 2
REMARK VINA RESULT:      -4.9      2.934      7.014
REMARK  Name = *****
REMARK                            x       y       z     vdW  Elec       q    Type
REMARK                         _______ _______ _______ _____ _____    ______ ____
ROOT
ATOM      1  C   LIG    1       25.207 -16.129   3.553  0.00  0.00    +0.124 A 
ATOM      2  C   LIG    1       25.918 -14.934   3.816  0.00  0.00    +0.000 A 
ATOM      3  C   LIG    1       27.398 -14.841   3.530  0.00  0.00    +0.073 C 
ATOM      4  C   LIG    1       27.907 -13.399   3.417  0.00  0.00    +0.148 C 
ATOM      5  C   LIG    1       27.435 -12.552   4.600  0.00  0.00    +0.147 C 
ATOM      6  C   LIG    1       25.910 -12.522   4.679  0.00  0.00    +0.069 C 
ATOM      7  C   LIG    1       25.232 -13.843   4.387  0.00  0.00    -0.038 A 
ATOM      8  C   LIG    1       23.858 -13.940   4.651  0.00  0.00    +0.004 A 
ATOM      9  C   LIG    1       23.172 -15.129   4.404  0.00  0.00    +0.004 A 
ATOM     10  C   LIG    1       23.851 -16.219   3.879  0.00  0.00    +0.046 A 
ENDROOT
BRANCH   5  11
ATOM     11  O   LIG    1       28.018 -13.074   5.807  0.00  0.00    -0.389 OA
ATOM     12  H   LIG    1       28.780 -12.512   6.032  0.00  0.00    +0.210 HD
ENDBRANCH   5  11
BRANCH   4  13
ATOM     13  O   LIG    1       29.340 -13.396   3.391  0.00  0.00    -0.389 OA
ATOM     14  H   LIG    1       29.590 -14.332   3.244  0.00  0.00    +0.210 HD
ENDBRANCH   4  13
BRANCH   1  15
ATOM     15  O   LIG    1       25.908 -17.175   3.005  0.00  0.00    -0.489 OA
BRANCH  15  16
ATOM     16  C   LIG    1       26.480 -18.087   3.956  0.00  0.00    +0.261 C 
BRANCH  16  17
ATOM     17  C   LIG    1       26.024 -19.520   3.652  0.00  0.00    +0.166 C 
BRANCH  17  18
ATOM     18  O   LIG    1       26.585 -20.443   4.595  0.00  0.00    -0.387 OA
ATOM     19  H   LIG    1       26.362 -21.336   4.286  0.00  0.00    +0.210 HD
ENDBRANCH  17  18
BRANCH  17  20
ATOM     20  C   LIG    1       24.485 -19.642   3.636  0.00  0.00    +0.116 C 
BRANCH  20  21
ATOM     21  N   LIG    1       23.998 -20.832   4.363  0.00  0.00    -0.309 NA
ATOM     22  H   LIG    1       23.725 -21.558   3.706  0.00  0.00    +0.122 HD
BRANCH  21  24
ATOM     23  C   LIG    1       21.679 -21.523   4.982  0.00  0.00    +0.027 C 
ATOM     24  C   LIG    1       22.861 -20.585   5.272  0.00  0.00    +0.011 C 
ATOM     25  C   LIG    1       23.293 -20.708   6.742  0.00  0.00    +0.027 C 
ATOM     26  C   LIG    1       22.388 -19.137   5.026  0.00  0.00    +0.027 C 
ENDBRANCH  21  24
ENDBRANCH  20  21
ENDBRANCH  17  20
ENDBRANCH  16  17
ENDBRANCH  15  16
ENDBRANCH   1  15
TORSDOF 9
ENDMDL
MODEL 3
REMARK VINA RESULT:      -4.8      1.640      3.284
REMARK  Name = *****
REMARK                            x       y       z     vdW  Elec       q    Type
REMARK                         _______ _______ _______ _____ _____    ______ ____
ROOT
ATOM      1  C   LIG    1       25.588 -19.222   3.808  0.00  0.00    +0.124 A 
ATOM      2  C   LIG    1       26.335 -19.678   4.920  0.00  0.00    +0.000 A 
ATOM      3  C   LIG    1       27.665 -19.049   5.263  0.00  0.00    +0.073 C 
ATOM      4  C   LIG    1       28.108 -19.309   6.707  0.00  0.00    +0.148 C 
ATOM      5  C   LIG    1       27.998 -20.792   7.061  0.00  0.00    +0.147 C 
ATOM      6  C   LIG    1       26.563 -21.290   6.899  0.00  0.00    +0.069 C 
ATOM      7  C   LIG    1       25.839 -20.755   5.682  0.00  0.00    -0.038 A 
ATOM      8  C   LIG    1       24.604 -21.334   5.355  0.00  0.00    +0.004 A 
ATOM      9  C   LIG    1       23.885 -20.888   4.245  0.00  0.00    +0.004 A 
ATOM     10  C   LIG    1       24.388 -19.853   3.470  0.00  0.00    +0.046 A 
ENDROOT
BRANCH   5  11
ATOM     11  O   LIG    1       28.913 -21.535   6.238  0.00  0.00    -0.389 OA
ATOM     12  H   LIG    1       28.490 -22.384   6.020  0.00  0.00    +0.210 HD
ENDBRANCH   5  11
BRANCH   4  13
ATOM     13  O   LIG    1       29.470 -18.895   6.874  0.00  0.00    -0.389 OA
ATOM     14  H   LIG    1       29.918 -19.665   7.280  0.00  0.00    +0.210 HD
ENDBRANCH   4  13
BRANCH   1  15
ATOM     15  O   LIG    1       26.104 -18.177   3.084  0.00  0.00    -0.489 OA
BRANCH  15  16
ATOM     16  C   LIG    1       25.381 -16.942   3.201  0.00  0.00    +0.261 C 
BRANCH  16  17
ATOM     17  C   LIG    1       26.304 -15.838   3.731  0.00  0.00    +0.166 C 
BRANCH  17  18
ATOM     18  O   LIG    1       27.678 -16.240   3.647  0.00  0.00    -0.387 OA
ATOM     19  H   LIG    1       27.691 -17.211   3.659  0.00  0.00    +0.210 HD
ENDBRANCH  17  18
BRANCH  17  20
ATOM     20  C   LIG    1       26.092 -14.504   2.983  0.00  0.00    +0.116 C 
BRANCH  20  21
ATOM     21  N   LIG    1       25.900 -13.359   3.898  0.00  0.00    -0.309 NA
ATOM     22  H   LIG    1       26.151 -13.622   4.847  0.00  0.00    +0.122 HD
BRANCH  21  24
ATOM     23  C   LIG    1       24.350 -11.775   5.050  0.00  0.00    +0.027 C 
ATOM     24  C   LIG    1       24.532 -12.802   3.922  0.00  0.00    +0.011 C 
ATOM     25  C   LIG    1       24.167 -12.178   2.565  0.00  0.00    +0.027 C 
ATOM     26  C   LIG    1       23.568 -13.977   4.190  0.00  0.00    +0.027 C 
ENDBRANCH  21  24
ENDBRANCH  20  21
ENDBRANCH  17  20
ENDBRANCH  16  17
ENDBRANCH  15  16
ENDBRANCH   1  15
TORSDOF 9
ENDMDL
MODEL 4
REMARK VINA RESULT:      -3.5      1.961      3.960
REMARK  Name = *****
REMARK                            x       y       z     vdW  Elec       q    Type
REMARK                         _______ _______ _______ _____ _____    ______ ____
ROOT
ATOM      1  C   LIG    1       24.352 -19.940   4.879  0.00  0.00    +0.124 A 
ATOM      2  C   LIG    1       25.682 -19.932   5.364  0.00  0.00    +0.000 A 
ATOM      3  C   LIG    1       26.738 -19.081   4.698  0.00  0.00    +0.073 C 
ATOM      4  C   LIG    1       27.958 -18.818   5.589  0.00  0.00    +0.148 C 
ATOM      5  C   LIG    1       28.484 -20.116   6.203  0.00  0.00    +0.147 C 
ATOM      6  C   LIG    1       27.409 -20.799   7.047  0.00  0.00    +0.069 C 
ATOM      7  C   LIG    1       26.017 -20.762   6.452  0.00  0.00    -0.038 A 
ATOM      8  C   LIG    1       25.031 -21.551   7.062  0.00  0.00    +0.004 A 
ATOM      9  C   LIG    1       23.727 -21.563   6.564  0.00  0.00    +0.004 A 
ATOM     10  C   LIG    1       23.402 -20.777   5.468  0.00  0.00    +0.046 A 
ENDROOT
BRANCH   5  11
ATOM     11  O   LIG    1       28.954 -20.973   5.148  0.00  0.00    -0.389 OA
ATOM     12  H   LIG    1       29.458 -21.696   5.560  0.00  0.00    +0.210 HD
ENDBRANCH   5  11
BRANCH   4  13
ATOM     13  O   LIG    1       29.002 -18.222   4.809  0.00  0.00    -0.389 OA
ATOM     14  H   LIG    1       29.552 -17.735   5.456  0.00  0.00    +0.210 HD
ENDBRANCH   4  13
BRANCH   1  15
ATOM     15  O   LIG    1       24.063 -19.126   3.812  0.00  0.00    -0.489 OA
BRANCH  15  16
ATOM     16  C   LIG    1       22.723 -18.610   3.789  0.00  0.00    +0.261 C 
BRANCH  16  17
ATOM     17  C   LIG    1       22.738 -17.095   4.032  0.00  0.00    +0.166 C 
BRANCH  17  18
ATOM     18  O   LIG    1       22.141 -16.777   5.297  0.00  0.00    -0.387 OA
ATOM     19  H   LIG    1       22.764 -16.200   5.768  0.00  0.00    +0.210 HD
ENDBRANCH  17  18
BRANCH  17  20
ATOM     20  C   LIG    1       24.167 -16.515   3.955  0.00  0.00    +0.116 C 
BRANCH  20  21
ATOM     21  N   LIG    1       24.189 -15.039   4.012  0.00  0.00    -0.309 NA
ATOM     22  H   LIG    1       23.523 -14.652   3.349  0.00  0.00    +0.122 HD
BRANCH  21  24
ATOM     23  C   LIG    1       26.054 -13.690   4.982  0.00  0.00    +0.027 C 
ATOM     24  C   LIG    1       25.507 -14.425   3.749  0.00  0.00    +0.011 C 
ATOM     25  C   LIG    1       26.517 -15.475   3.260  0.00  0.00    +0.027 C 
ATOM     26  C   LIG    1       25.308 -13.385   2.627  0.00  0.00    +0.027 C 
ENDBRANCH  21  24
ENDBRANCH  20  21
ENDBRANCH  17  20
ENDBRANCH  16  17
ENDBRANCH  15  16
ENDBRANCH   1  15
TORSDOF 9
ENDMDL
MODEL 5
REMARK VINA RESULT:      -3.2      2.340      4.561
REMARK  Name = *****
REMARK                            x       y       z     vdW  Elec       q    Type
REMARK                         _______ _______ _______ _____ _____    ______ ____
ROOT
ATOM      1  C   LIG    1       23.319 -17.018   4.069  0.00  0.00    +0.124 A 
ATOM      2  C   LIG    1       23.805 -18.339   4.214  0.00  0.00    +0.000 A 
ATOM      3  C   LIG    1       25.289 -18.620   4.185  0.00  0.00    +0.073 C 
ATOM      4  C   LIG    1       25.666 -19.968   4.809  0.00  0.00    +0.148 C 
ATOM      5  C   LIG    1       24.796 -21.097   4.254  0.00  0.00    +0.147 C 
ATOM      6  C   LIG    1       23.317 -20.835   4.528  0.00  0.00    +0.069 C 
ATOM      7  C   LIG    1       22.882 -19.396   4.346  0.00  0.00    -0.038 A 
ATOM      8  C   LIG    1       21.506 -19.126   4.369  0.00  0.00    +0.004 A 
ATOM      9  C   LIG    1       21.039 -17.822   4.208  0.00  0.00    +0.004 A 
ATOM     10  C   LIG    1       21.942 -16.783   4.039  0.00  0.00    +0.046 A 
ENDROOT
BRANCH   5  11
ATOM     11  O   LIG    1       25.058 -21.237   2.847  0.00  0.00    -0.389 OA
ATOM     12  H   LIG    1       26.016 -21.125   2.713  0.00  0.00    +0.210 HD
ENDBRANCH   5  11
BRANCH   4  13
ATOM     13  O   LIG    1       27.039 -20.262   4.523  0.00  0.00    -0.389 OA
ATOM     14  H   LIG    1       27.171 -19.973   3.597  0.00  0.00    +0.210 HD
ENDBRANCH   4  13
BRANCH   1  15
ATOM     15  O   LIG    1       24.245 -16.014   3.934  0.00  0.00    -0.489 OA
BRANCH  15  16
ATOM     16  C   LIG    1       23.789 -14.711   4.329  0.00  0.00    +0.261 C 
BRANCH  16  17
ATOM     17  C   LIG    1       24.032 -13.701   3.200  0.00  0.00    +0.166 C 
BRANCH  17  18
ATOM     18  O   LIG    1       23.919 -12.357   3.686  0.00  0.00    -0.387 OA
ATOM     19  H   LIG    1       24.007 -11.769   2.918  0.00  0.00    +0.210 HD
ENDBRANCH  17  18
BRANCH  17  20
ATOM     20  C   LIG    1       25.406 -13.913   2.528  0.00  0.00    +0.116 C 
BRANCH  20  21
ATOM     21  N   LIG    1       26.450 -13.017   3.066  0.00  0.00    -0.309 NA
ATOM     22  H   LIG    1       27.004 -12.626   2.309  0.00  0.00    +0.122 HD
BRANCH  21  24
ATOM     23  C   LIG    1       26.965 -13.365   5.486  0.00  0.00    +0.027 C 
ATOM     24  C   LIG    1       27.374 -13.646   4.032  0.00  0.00    +0.011 C 
ATOM     25  C   LIG    1       27.479 -15.160   3.788  0.00  0.00    +0.027 C 
ATOM     26  C   LIG    1       28.766 -13.021   3.802  0.00  0.00    +0.027 C 
ENDBRANCH  21  24
ENDBRANCH  20  21
ENDBRANCH  17  20
ENDBRANCH  16  17
ENDBRANCH  15  16
ENDBRANCH   1  15
TORSDOF 9
ENDMDL
MODEL 6
REMARK VINA RESULT:      -2.7      3.010      6.414
REMARK  Name = *****
REMARK                            x       y       z     vdW  Elec       q    Type
REMARK                         _______ _______ _______ _____ _____    ______ ____
ROOT
ATOM      1  C   LIG    1       27.294 -15.479   3.831  0.00  0.00    +0.124 A 
ATOM      2  C   LIG    1       26.068 -14.785   3.970  0.00  0.00    +0.000 A 
ATOM      3  C   LIG    1       24.756 -15.533   3.959  0.00  0.00    +0.073 C 
ATOM      4  C   LIG    1       23.598 -14.740   4.575  0.00  0.00    +0.148 C 
ATOM      5  C   LIG    1       23.527 -13.327   3.995  0.00  0.00    +0.147 C 
ATOM      6  C   LIG    1       24.825 -12.563   4.250  0.00  0.00    +0.069 C 
ATOM      7  C   LIG    1       26.087 -13.380   4.077  0.00  0.00    -0.038 A 
ATOM      8  C   LIG    1       27.310 -12.694   4.083  0.00  0.00    +0.004 A 
ATOM      9  C   LIG    1       28.511 -13.387   3.928  0.00  0.00    +0.004 A 
ATOM     10  C   LIG    1       28.495 -14.767   3.783  0.00  0.00    +0.046 A 
ENDROOT
BRANCH   5  11
ATOM     11  O   LIG    1       23.230 -13.415   2.591  0.00  0.00    -0.389 OA
ATOM     12  H   LIG    1       23.020 -14.344   2.392  0.00  0.00    +0.210 HD
ENDBRANCH   5  11
BRANCH   4  13
ATOM     13  O   LIG    1       22.360 -15.411   4.306  0.00  0.00    -0.389 OA
ATOM     14  H   LIG    1       22.527 -16.347   4.538  0.00  0.00    +0.210 HD
ENDBRANCH   4  13
BRANCH   1  15
ATOM     15  O   LIG    1       27.239 -16.846   3.720  0.00  0.00    -0.489 OA
BRANCH  15  16
ATOM     16  C   LIG    1       26.001 -17.364   3.211  0.00  0.00    +0.261 C 
BRANCH  16  17
ATOM     17  C   LIG    1       25.934 -18.882   3.427  0.00  0.00    +0.166 C 
BRANCH  17  18
ATOM     18  O   LIG    1       26.734 -19.270   4.552  0.00  0.00    -0.387 OA
ATOM     19  H   LIG    1       26.338 -18.858   5.338  0.00  0.00    +0.210 HD
ENDBRANCH  17  18
BRANCH  17  20
ATOM     20  C   LIG    1       24.482 -19.372   3.609  0.00  0.00    +0.116 C 
BRANCH  20  21
ATOM     21  N   LIG    1       24.354 -20.406   4.657  0.00  0.00    -0.309 NA
ATOM     22  H   LIG    1       24.432 -21.333   4.249  0.00  0.00    +0.122 HD
BRANCH  21  24
ATOM     23  C   LIG    1       22.099 -21.427   4.988  0.00  0.00    +0.027 C 
ATOM     24  C   LIG    1       23.100 -20.352   5.436  0.00  0.00    +0.011 C 
ATOM     25  C   LIG    1       23.381 -20.477   6.942  0.00  0.00    +0.027 C 
ATOM     26  C   LIG    1       22.462 -18.972   5.175  0.00  0.00    +0.027 C 
ENDBRANCH  21  24
ENDBRANCH  20  21
ENDBRANCH  17  20
ENDBRANCH  16  17
ENDBRANCH  15  16
ENDBRANCH   1  15
TORSDOF 9
ENDMDL
MODEL 7
REMARK VINA RESULT:      -2.3      2.245      3.599
REMARK  Name = *****
REMARK                            x       y       z     vdW  Elec       q    Type
REMARK                         _______ _______ _______ _____ _____    ______ ____
ROOT
ATOM      1  C   LIG    1       24.478 -16.960   3.697  0.00  0.00    +0.124 A 
ATOM      2  C   LIG    1       24.246 -18.268   4.184  0.00  0.00    +0.000 A 
ATOM      3  C   LIG    1       25.318 -19.328   4.080  0.00  0.00    +0.073 C 
ATOM      4  C   LIG    1       25.105 -20.505   5.040  0.00  0.00    +0.148 C 
ATOM      5  C   LIG    1       23.675 -21.038   4.952  0.00  0.00    +0.147 C 
ATOM      6  C   LIG    1       22.661 -19.948   5.293  0.00  0.00    +0.069 C 
ATOM      7  C   LIG    1       22.985 -18.581   4.730  0.00  0.00    -0.038 A 
ATOM      8  C   LIG    1       21.996 -17.591   4.820  0.00  0.00    +0.004 A 
ATOM      9  C   LIG    1       22.231 -16.309   4.321  0.00  0.00    +0.004 A 
ATOM     10  C   LIG    1       23.457 -16.008   3.746  0.00  0.00    +0.046 A 
ENDROOT
BRANCH   5  11
ATOM     11  O   LIG    1       23.458 -21.572   3.635  0.00  0.00    -0.389 OA
ATOM     12  H   LIG    1       22.778 -22.263   3.706  0.00  0.00    +0.210 HD
ENDBRANCH   5  11
BRANCH   4  13
ATOM     13  O   LIG    1       26.013 -21.563   4.710  0.00  0.00    -0.389 OA
ATOM     14  H   LIG    1       26.861 -21.115   4.513  0.00  0.00    +0.210 HD
ENDBRANCH   4  13
BRANCH   1  15
ATOM     15  O   LIG    1       25.715 -16.692   3.163  0.00  0.00    -0.489 OA
BRANCH  15  16
ATOM     16  C   LIG    1       26.582 -15.915   4.003  0.00  0.00    +0.261 C 
BRANCH  16  17
ATOM     17  C   LIG    1       27.146 -14.723   3.218  0.00  0.00    +0.166 C 
BRANCH  17  18
ATOM     18  O   LIG    1       26.624 -14.701   1.883  0.00  0.00    -0.387 OA
ATOM     19  H   LIG    1       25.757 -14.265   1.923  0.00  0.00    +0.210 HD
ENDBRANCH  17  18
BRANCH  17  20
ATOM     20  C   LIG    1       26.857 -13.382   3.926  0.00  0.00    +0.116 C 
BRANCH  20  21
ATOM     21  N   LIG    1       25.476 -13.294   4.444  0.00  0.00    -0.309 NA
ATOM     22  H   LIG    1       25.074 -14.223   4.534  0.00  0.00    +0.122 HD
BRANCH  21  24
ATOM     23  C   LIG    1       23.591 -13.338   2.806  0.00  0.00    +0.027 C 
ATOM     24  C   LIG    1       24.556 -12.473   3.631  0.00  0.00    +0.011 C 
ATOM     25  C   LIG    1       23.772 -11.487   4.512  0.00  0.00    +0.027 C 
ATOM     26  C   LIG    1       25.422 -11.660   2.647  0.00  0.00    +0.027 C 
ENDBRANCH  21  24
ENDBRANCH  20  21
ENDBRANCH  17  20
ENDBRANCH  16  17
ENDBRANCH  15  16
ENDBRANCH   1  15
TORSDOF 9
ENDMDL
