MODEL 1
REMARK VINA RESULT:      -5.9      0.000      0.000
REMARK  Name = *****
REMARK                            x       y       z     vdW  Elec       q    Type
REMARK                         _______ _______ _______ _____ _____    ______ ____
ROOT
ATOM      1  O   LIG    1       23.690 -32.254   8.716  0.00  0.00    -0.339 OA
ENDROOT
BRANCH   1   7
ATOM      2  C   LIG    1       24.428 -31.247  11.120  0.00  0.00    +0.218 C 
ATOM      3  C   LIG    1       22.985 -31.262  11.595  0.00  0.00    +0.177 C 
ATOM      4  C   LIG    1       22.635 -32.729  11.445  0.00  0.00    +0.160 C 
ATOM      5  C   LIG    1       21.944 -33.553  12.500  0.00  0.00    +0.041 C 
ATOM      6  O   LIG    1       23.713 -33.416  10.775  0.00  0.00    -0.342 OA
ATOM      7  C   LIG    1       24.363 -32.410  10.017  0.00  0.00    +0.283 C 
BRANCH   3   8
ATOM      8  O   LIG    1       22.601 -30.738  12.852  0.00  0.00    -0.376 OA
ATOM      9  H   LIG    1       22.983 -31.375  13.500  0.00  0.00    +0.211 HD
ENDBRANCH   3   8
BRANCH   3  10
ATOM     10  C   LIG    1       22.138 -30.393  10.661  0.00  0.00    +0.263 C 
ATOM     11  O   LIG    1       21.071 -30.816  10.206  0.00  0.00    -0.298 OA
ENDBRANCH   3  10
BRANCH   2  12
ATOM     12  O   LIG    1       25.403 -31.367  12.244  0.00  0.00    -0.338 OA
BRANCH  12  14
ATOM     13  C   LIG    1       27.345 -29.900  13.243  0.00  0.00    +0.141 C 
ATOM     14  C   LIG    1       25.773 -30.267  13.137  0.00  0.00    +0.271 C 
ATOM     15  O   LIG    1       25.112 -29.035  12.826  0.00  0.00    -0.342 OA
ATOM     16  C   LIG    1       25.742 -27.974  12.073  0.00  0.00    +0.178 C 
ATOM     17  C   LIG    1       26.951 -28.355  11.209  0.00  0.00    +0.175 C 
ATOM     18  C   LIG    1       27.776 -29.528  11.794  0.00  0.00    +0.167 C 
BRANCH  13  20
ATOM     19  C   LIG    1       27.612 -31.376  15.284  0.00  0.00    +0.101 C 
ATOM     20  N   LIG    1       28.257 -30.758  14.089  0.00  0.00    -0.310 NA
ATOM     21  H   LIG    1       28.487 -31.565  13.505  0.00  0.00    +0.122 HD
ENDBRANCH  13  20
BRANCH  17  22
ATOM     22  O   LIG    1       26.607 -28.594   9.834  0.00  0.00    -0.387 OA
ATOM     23  H   LIG    1       27.378 -28.962   9.364  0.00  0.00    +0.210 HD
ENDBRANCH  17  22
BRANCH  18  24
ATOM     24  O   LIG    1       29.151 -29.117  11.763  0.00  0.00    -0.387 OA
ATOM     25  H   LIG    1       29.585 -29.691  11.108  0.00  0.00    +0.210 HD
ENDBRANCH  18  24
BRANCH  16  26
ATOM     26  C   LIG    1       26.201 -26.789  12.969  0.00  0.00    +0.190 C 
BRANCH  26  27
ATOM     27  O   LIG    1       27.448 -26.240  12.581  0.00  0.00    -0.392 OA
ATOM     28  H   LIG    1       28.037 -26.310  13.351  0.00  0.00    +0.209 HD
ENDBRANCH  26  27
ENDBRANCH  16  26
ENDBRANCH  12  14
ENDBRANCH   2  12
ENDBRANCH   1   7
BRANCH   1  29
ATOM     29  C   LIG    1       24.209 -32.748   7.430  0.00  0.00    +0.192 C 
ATOM     30  C   LIG    1       25.767 -32.754   7.098  0.00  0.00    +0.208 C 
ATOM     31  C   LIG    1       26.320 -31.328   7.054  0.00  0.00    +0.193 C 
ATOM     32  C   LIG    1       25.227 -30.323   6.652  0.00  0.00    +0.207 C 
ATOM     33  C   LIG    1       24.114 -30.923   5.799  0.00  0.00    +0.185 C 
ATOM     34  C   LIG    1       23.424 -32.174   6.248  0.00  0.00    +0.178 C 
BRANCH  30  35
ATOM     35  N   LIG    1       26.243 -33.666   6.010  0.00  0.00    -0.268 N 
ATOM     36  H   LIG    1       25.503 -34.318   5.737  0.00  0.00    +0.258 HD
BRANCH  35  37
ATOM     37  C   LIG    1       26.990 -33.440   4.884  0.00  0.00    +0.377 C 
ATOM     38  N   LIG    1       28.205 -33.741   4.738  0.00  0.00    -0.130 NA
ATOM     39  H   LIG    1       28.498 -33.385   3.809  0.00  0.00    +0.306 HD
BRANCH  37  40
ATOM     40  N   LIG    1       26.344 -32.851   3.861  0.00  0.00    -0.289 N 
ATOM     41  H   LIG    1       26.590 -31.878   3.684  0.00  0.00    +0.255 HD
ATOM     42  H   LIG    1       26.758 -33.233   3.044  0.00  0.00    +0.255 HD
ENDBRANCH  37  40
ENDBRANCH  35  37
ENDBRANCH  30  35
BRANCH  31  43
ATOM     43  O   LIG    1       26.758 -31.042   8.416  0.00  0.00    -0.385 OA
ATOM     44  H   LIG    1       26.028 -31.171   9.040  0.00  0.00    +0.210 HD
ENDBRANCH  31  43
BRANCH  32  45
ATOM     45  N   LIG    1       25.801 -29.138   5.969  0.00  0.00    -0.268 N 
ATOM     46  H   LIG    1       26.815 -29.245   5.947  0.00  0.00    +0.258 HD
BRANCH  45  47
ATOM     47  C   LIG    1       25.519 -27.842   6.164  0.00  0.00    +0.377 C 
ATOM     48  N   LIG    1       24.604 -26.991   5.669  0.00  0.00    -0.130 NA
ATOM     49  H   LIG    1       23.884 -27.380   5.112  0.00  0.00    +0.306 HD
BRANCH  47  50
ATOM     50  N   LIG    1       26.292 -27.237   7.030  0.00  0.00    -0.289 N 
ATOM     51  H   LIG    1       27.207 -27.668   7.077  0.00  0.00    +0.255 HD
ATOM     52  H   LIG    1       25.904 -26.967   7.939  0.00  0.00    +0.255 HD
ENDBRANCH  47  50
ENDBRANCH  45  47
ENDBRANCH  32  45
BRANCH  33  53
ATOM     53  O   LIG    1       23.126 -29.922   5.562  0.00  0.00    -0.386 OA
ATOM     54  H   LIG    1       22.493 -30.286   4.922  0.00  0.00    +0.210 HD
ENDBRANCH  33  53
BRANCH  34  55
ATOM     55  O   LIG    1       23.353 -33.012   5.060  0.00  0.00    -0.386 OA
ATOM     56  H   LIG    1       22.667 -32.697   4.432  0.00  0.00    +0.210 HD
ENDBRANCH  34  55
ENDBRANCH   1  29
TORSDOF 20
ENDMDL
MODEL 2
REMARK VINA RESULT:      -4.8      2.828      5.665
REMARK  Name = *****
REMARK                            x       y       z     vdW  Elec       q    Type
REMARK                         _______ _______ _______ _____ _____    ______ ____
ROOT
ATOM      1  O   LIG    1       23.346 -30.556   9.430  0.00  0.00    -0.339 OA
ENDROOT
BRANCH   1   7
ATOM      2  C   LIG    1       22.459 -31.792  11.670  0.00  0.00    +0.218 C 
ATOM      3  C   LIG    1       23.359 -30.926  12.533  0.00  0.00    +0.177 C 
ATOM      4  C   LIG    1       22.874 -29.536  12.172  0.00  0.00    +0.160 C 
ATOM      5  C   LIG    1       22.553 -28.458  13.174  0.00  0.00    +0.041 C 
ATOM      6  O   LIG    1       21.934 -29.622  11.081  0.00  0.00    -0.342 OA
ATOM      7  C   LIG    1       22.276 -30.822  10.406  0.00  0.00    +0.283 C 
BRANCH   3   8
ATOM      8  O   LIG    1       23.472 -31.116  13.931  0.00  0.00    -0.376 OA
ATOM      9  H   LIG    1       24.214 -30.521  14.190  0.00  0.00    +0.211 HD
ENDBRANCH   3   8
BRANCH   3  10
ATOM     10  C   LIG    1       24.815 -31.130  12.106  0.00  0.00    +0.263 C 
ATOM     11  O   LIG    1       25.517 -30.167  11.785  0.00  0.00    -0.298 OA
ENDBRANCH   3  10
BRANCH   2  12
ATOM     12  O   LIG    1       21.246 -32.267  12.401  0.00  0.00    -0.338 OA
BRANCH  12  14
ATOM     13  C   LIG    1       18.770 -33.151  12.317  0.00  0.00    +0.141 C 
ATOM     14  C   LIG    1       20.326 -33.289  11.898  0.00  0.00    +0.271 C 
ATOM     15  O   LIG    1       20.330 -33.405  10.470  0.00  0.00    -0.342 OA
ATOM     16  C   LIG    1       19.323 -32.798   9.630  0.00  0.00    +0.178 C 
ATOM     17  C   LIG    1       18.516 -31.642  10.234  0.00  0.00    +0.175 C 
ATOM     18  C   LIG    1       18.320 -31.767  11.766  0.00  0.00    +0.167 C 
BRANCH  13  20
ATOM     19  C   LIG    1       18.888 -32.769  14.818  0.00  0.00    +0.101 C 
ATOM     20  N   LIG    1       18.327 -33.577  13.697  0.00  0.00    -0.310 NA
ATOM     21  H   LIG    1       17.327 -33.368  13.737  0.00  0.00    +0.122 HD
ENDBRANCH  13  20
BRANCH  17  22
ATOM     22  O   LIG    1       19.032 -30.349   9.878  0.00  0.00    -0.387 OA
ATOM     23  H   LIG    1       18.591 -29.663  10.413  0.00  0.00    +0.210 HD
ENDBRANCH  17  22
BRANCH  18  24
ATOM     24  O   LIG    1       16.924 -31.548  12.020  0.00  0.00    -0.387 OA
ATOM     25  H   LIG    1       16.470 -32.353  11.717  0.00  0.00    +0.210 HD
ENDBRANCH  18  24
BRANCH  16  26
ATOM     26  C   LIG    1       18.285 -33.825   9.097  0.00  0.00    +0.190 C 
BRANCH  26  27
ATOM     27  O   LIG    1       17.419 -33.289   8.112  0.00  0.00    -0.392 OA
ATOM     28  H   LIG    1       17.026 -32.484   8.492  0.00  0.00    +0.209 HD
ENDBRANCH  26  27
ENDBRANCH  16  26
ENDBRANCH  12  14
ENDBRANCH   2  12
ENDBRANCH   1   7
BRANCH   1  29
ATOM     29  C   LIG    1       23.974 -31.570   8.565  0.00  0.00    +0.192 C 
ATOM     30  C   LIG    1       25.556 -31.690   8.423  0.00  0.00    +0.208 C 
ATOM     31  C   LIG    1       26.144 -30.428   7.789  0.00  0.00    +0.193 C 
ATOM     32  C   LIG    1       25.118 -29.741   6.871  0.00  0.00    +0.207 C 
ATOM     33  C   LIG    1       24.078 -30.688   6.282  0.00  0.00    +0.185 C 
ATOM     34  C   LIG    1       23.319 -31.614   7.183  0.00  0.00    +0.178 C 
BRANCH  30  35
ATOM     35  N   LIG    1       26.112 -32.987   7.920  0.00  0.00    -0.268 N 
ATOM     36  H   LIG    1       25.437 -33.744   8.051  0.00  0.00    +0.258 HD
BRANCH  35  37
ATOM     37  C   LIG    1       26.830 -33.303   6.797  0.00  0.00    +0.377 C 
ATOM     38  N   LIG    1       28.083 -33.238   6.686  0.00  0.00    -0.130 NA
ATOM     39  H   LIG    1       28.315 -33.477   5.704  0.00  0.00    +0.306 HD
BRANCH  37  40
ATOM     40  N   LIG    1       26.110 -33.721   5.740  0.00  0.00    -0.289 N 
ATOM     41  H   LIG    1       25.255 -33.199   5.553  0.00  0.00    +0.255 HD
ATOM     42  H   LIG    1       26.618 -33.412   4.946  0.00  0.00    +0.255 HD
ENDBRANCH  37  40
ENDBRANCH  35  37
ENDBRANCH  30  35
BRANCH  31  43
ATOM     43  O   LIG    1       26.456 -29.544   8.907  0.00  0.00    -0.385 OA
ATOM     44  H   LIG    1       25.789 -28.845   8.982  0.00  0.00    +0.210 HD
ENDBRANCH  31  43
BRANCH  32  45
ATOM     45  N   LIG    1       25.782 -28.984   5.783  0.00  0.00    -0.268 N 
ATOM     46  H   LIG    1       26.724 -29.357   5.666  0.00  0.00    +0.258 HD
BRANCH  45  47
ATOM     47  C   LIG    1       25.829 -27.657   5.595  0.00  0.00    +0.377 C 
ATOM     48  N   LIG    1       26.816 -26.747   5.532  0.00  0.00    -0.130 NA
ATOM     49  H   LIG    1       27.743 -27.092   5.506  0.00  0.00    +0.306 HD
BRANCH  47  50
ATOM     50  N   LIG    1       24.662 -27.086   5.430  0.00  0.00    -0.289 N 
ATOM     51  H   LIG    1       23.904 -27.745   5.554  0.00  0.00    +0.255 HD
ATOM     52  H   LIG    1       24.535 -26.435   4.649  0.00  0.00    +0.255 HD
ENDBRANCH  47  50
ENDBRANCH  45  47
ENDBRANCH  32  45
BRANCH  33  53
ATOM     53  O   LIG    1       23.141 -29.928   5.522  0.00  0.00    -0.386 OA
ATOM     54  H   LIG    1       23.454 -29.010   5.511  0.00  0.00    +0.210 HD
ENDBRANCH  33  53
BRANCH  34  55
ATOM     55  O   LIG    1       23.343 -32.902   6.505  0.00  0.00    -0.386 OA
ATOM     56  H   LIG    1       24.020 -32.927   5.794  0.00  0.00    +0.210 HD
ENDBRANCH  34  55
ENDBRANCH   1  29
TORSDOF 20
ENDMDL
MODEL 3
REMARK VINA RESULT:      -4.7      2.540      5.253
REMARK  Name = *****
REMARK                            x       y       z     vdW  Elec       q    Type
REMARK                         _______ _______ _______ _____ _____    ______ ____
ROOT
ATOM      1  O   LIG    1       25.829 -31.397  11.493  0.00  0.00    -0.339 OA
ENDROOT
BRANCH   1   7
ATOM      2  C   LIG    1       24.347 -29.982  13.265  0.00  0.00    +0.218 C 
ATOM      3  C   LIG    1       25.599 -29.338  13.834  0.00  0.00    +0.177 C 
ATOM      4  C   LIG    1       26.179 -28.670  12.603  0.00  0.00    +0.160 C 
ATOM      5  C   LIG    1       26.674 -27.249  12.558  0.00  0.00    +0.041 C 
ATOM      6  O   LIG    1       25.424 -29.067  11.439  0.00  0.00    -0.342 OA
ATOM      7  C   LIG    1       24.864 -30.323  11.785  0.00  0.00    +0.283 C 
BRANCH   3   8
ATOM      8  O   LIG    1       25.559 -28.473  14.953  0.00  0.00    -0.376 OA
ATOM      9  H   LIG    1       25.041 -28.978  15.623  0.00  0.00    +0.211 HD
ENDBRANCH   3   8
BRANCH   3  10
ATOM     10  C   LIG    1       26.533 -30.431  14.361  0.00  0.00    +0.263 C 
ATOM     11  O   LIG    1       27.694 -30.516  13.952  0.00  0.00    -0.298 OA
ENDBRANCH   3  10
BRANCH   2  12
ATOM     12  O   LIG    1       23.135 -29.125  13.430  0.00  0.00    -0.338 OA
BRANCH  12  14
ATOM     13  C   LIG    1       20.517 -29.386  13.419  0.00  0.00    +0.141 C 
ATOM     14  C   LIG    1       21.939 -29.523  14.178  0.00  0.00    +0.271 C 
ATOM     15  O   LIG    1       21.990 -30.871  14.657  0.00  0.00    -0.342 OA
ATOM     16  C   LIG    1       21.327 -31.968  13.989  0.00  0.00    +0.178 C 
ATOM     17  C   LIG    1       20.960 -31.765  12.513  0.00  0.00    +0.175 C 
ATOM     18  C   LIG    1       20.637 -30.292  12.160  0.00  0.00    +0.167 C 
BRANCH  13  20
ATOM     19  C   LIG    1       20.304 -27.022  14.305  0.00  0.00    +0.101 C 
ATOM     20  N   LIG    1       19.864 -28.029  13.295  0.00  0.00    -0.310 NA
ATOM     21  H   LIG    1       20.212 -27.642  12.415  0.00  0.00    +0.122 HD
ENDBRANCH  13  20
BRANCH  17  22
ATOM     22  O   LIG    1       21.932 -32.318  11.610  0.00  0.00    -0.387 OA
ATOM     23  H   LIG    1       22.817 -31.979  11.837  0.00  0.00    +0.210 HD
ENDBRANCH  17  22
BRANCH  18  24
ATOM     24  O   LIG    1       19.403 -30.308  11.426  0.00  0.00    -0.387 OA
ATOM     25  H   LIG    1       19.626 -30.013  10.526  0.00  0.00    +0.210 HD
ENDBRANCH  18  24
BRANCH  16  26
ATOM     26  C   LIG    1       20.022 -32.411  14.708  0.00  0.00    +0.190 C 
BRANCH  26  27
ATOM     27  O   LIG    1       19.061 -32.975  13.833  0.00  0.00    -0.392 OA
ATOM     28  H   LIG    1       19.211 -32.578  12.958  0.00  0.00    +0.209 HD
ENDBRANCH  26  27
ENDBRANCH  16  26
ENDBRANCH  12  14
ENDBRANCH   2  12
ENDBRANCH   1   7
BRANCH   1  29
ATOM     29  C   LIG    1       25.854 -32.199  10.259  0.00  0.00    +0.192 C 
ATOM     30  C   LIG    1       26.856 -31.873   9.065  0.00  0.00    +0.208 C 
ATOM     31  C   LIG    1       26.555 -30.501   8.459  0.00  0.00    +0.193 C 
ATOM     32  C   LIG    1       25.071 -30.135   8.633  0.00  0.00    +0.207 C 
ATOM     33  C   LIG    1       24.141 -31.339   8.735  0.00  0.00    +0.185 C 
ATOM     34  C   LIG    1       24.445 -32.434   9.710  0.00  0.00    +0.178 C 
BRANCH  30  35
ATOM     35  N   LIG    1       27.146 -32.965   8.081  0.00  0.00    -0.268 N 
ATOM     36  H   LIG    1       26.908 -33.878   8.477  0.00  0.00    +0.258 HD
BRANCH  35  37
ATOM     37  C   LIG    1       26.934 -33.064   6.732  0.00  0.00    +0.377 C 
ATOM     38  N   LIG    1       25.814 -33.009   6.158  0.00  0.00    -0.130 NA
ATOM     39  H   LIG    1       25.979 -33.180   5.149  0.00  0.00    +0.306 HD
BRANCH  37  40
ATOM     40  N   LIG    1       28.037 -33.227   5.977  0.00  0.00    -0.289 N 
ATOM     41  H   LIG    1       28.743 -32.497   6.063  0.00  0.00    +0.255 HD
ATOM     42  H   LIG    1       28.550 -33.947   6.427  0.00  0.00    +0.255 HD
ENDBRANCH  37  40
ENDBRANCH  35  37
ENDBRANCH  30  35
BRANCH  31  43
ATOM     43  O   LIG    1       27.374 -29.558   9.213  0.00  0.00    -0.385 OA
ATOM     44  H   LIG    1       26.823 -28.855   9.587  0.00  0.00    +0.210 HD
ENDBRANCH  31  43
BRANCH  32  45
ATOM     45  N   LIG    1       24.604 -29.229   7.555  0.00  0.00    -0.268 N 
ATOM     46  H   LIG    1       23.805 -28.702   7.907  0.00  0.00    +0.258 HD
BRANCH  45  47
ATOM     47  C   LIG    1       24.386 -29.510   6.262  0.00  0.00    +0.377 C 
ATOM     48  N   LIG    1       23.293 -29.591   5.486  0.00  0.00    -0.130 NA
ATOM     49  H   LIG    1       22.439 -29.279   5.879  0.00  0.00    +0.306 HD
BRANCH  47  50
ATOM     50  N   LIG    1       25.466 -29.769   5.568  0.00  0.00    -0.289 N 
ATOM     51  H   LIG    1       25.247 -30.242   4.700  0.00  0.00    +0.255 HD
ATOM     52  H   LIG    1       26.292 -30.134   6.053  0.00  0.00    +0.255 HD
ENDBRANCH  47  50
ENDBRANCH  45  47
ENDBRANCH  32  45
BRANCH  33  53
ATOM     53  O   LIG    1       22.813 -30.876   8.975  0.00  0.00    -0.386 OA
ATOM     54  H   LIG    1       22.762 -30.612   9.907  0.00  0.00    +0.210 HD
ENDBRANCH  33  53
BRANCH  34  55
ATOM     55  O   LIG    1       24.247 -33.668   8.964  0.00  0.00    -0.386 OA
ATOM     56  H   LIG    1       24.727 -34.421   9.373  0.00  0.00    +0.210 HD
ENDBRANCH  34  55
ENDBRANCH   1  29
TORSDOF 20
ENDMDL
MODEL 4
REMARK VINA RESULT:      -4.7      1.543      3.640
REMARK  Name = *****
REMARK                            x       y       z     vdW  Elec       q    Type
REMARK                         _______ _______ _______ _____ _____    ______ ____
ROOT
ATOM      1  O   LIG    1       23.681 -30.837   9.189  0.00  0.00    -0.339 OA
ENDROOT
BRANCH   1   7
ATOM      2  C   LIG    1       23.575 -31.266  11.862  0.00  0.00    +0.218 C 
ATOM      3  C   LIG    1       22.069 -31.452  11.795  0.00  0.00    +0.177 C 
ATOM      4  C   LIG    1       21.952 -32.607  10.820  0.00  0.00    +0.160 C 
ATOM      5  C   LIG    1       21.090 -33.823  11.039  0.00  0.00    +0.041 C 
ATOM      6  O   LIG    1       23.250 -32.900  10.262  0.00  0.00    -0.342 OA
ATOM      7  C   LIG    1       23.967 -31.681  10.362  0.00  0.00    +0.283 C 
BRANCH   3   8
ATOM      8  O   LIG    1       21.282 -31.639  12.956  0.00  0.00    -0.376 OA
ATOM      9  H   LIG    1       21.340 -32.608  13.127  0.00  0.00    +0.211 HD
ENDBRANCH   3   8
BRANCH   3  10
ATOM     10  C   LIG    1       21.428 -30.183  11.227  0.00  0.00    +0.263 C 
ATOM     11  O   LIG    1       20.546 -30.256  10.367  0.00  0.00    -0.298 OA
ENDBRANCH   3  10
BRANCH   2  12
ATOM     12  O   LIG    1       24.194 -32.003  13.003  0.00  0.00    -0.338 OA
BRANCH  12  14
ATOM     13  C   LIG    1       26.355 -31.192  14.268  0.00  0.00    +0.141 C 
ATOM     14  C   LIG    1       24.747 -31.359  14.198  0.00  0.00    +0.271 C 
ATOM     15  O   LIG    1       24.215 -30.052  14.438  0.00  0.00    -0.342 OA
ATOM     16  C   LIG    1       24.913 -28.840  14.072  0.00  0.00    +0.178 C 
ATOM     17  C   LIG    1       26.010 -28.962  13.007  0.00  0.00    +0.175 C 
ATOM     18  C   LIG    1       26.730 -30.334  13.025  0.00  0.00    +0.167 C 
BRANCH  13  20
ATOM     19  C   LIG    1       26.461 -33.602  15.042  0.00  0.00    +0.101 C 
ATOM     20  N   LIG    1       27.213 -32.380  14.634  0.00  0.00    -0.310 NA
ATOM     21  H   LIG    1       27.666 -32.665  13.763  0.00  0.00    +0.122 HD
ENDBRANCH  13  20
BRANCH  17  22
ATOM     22  O   LIG    1       25.552 -28.631  11.686  0.00  0.00    -0.387 OA
ATOM     23  H   LIG    1       26.319 -28.471  11.105  0.00  0.00    +0.210 HD
ENDBRANCH  17  22
BRANCH  18  24
ATOM     24  O   LIG    1       28.139 -30.058  13.005  0.00  0.00    -0.387 OA
ATOM     25  H   LIG    1       28.276 -29.336  13.642  0.00  0.00    +0.210 HD
ENDBRANCH  18  24
BRANCH  16  26
ATOM     26  C   LIG    1       25.564 -28.128  15.291  0.00  0.00    +0.190 C 
BRANCH  26  27
ATOM     27  O   LIG    1       26.903 -27.729  15.061  0.00  0.00    -0.392 OA
ATOM     28  H   LIG    1       27.437 -28.112  15.777  0.00  0.00    +0.209 HD
ENDBRANCH  26  27
ENDBRANCH  16  26
ENDBRANCH  12  14
ENDBRANCH   2  12
ENDBRANCH   1   7
BRANCH   1  29
ATOM     29  C   LIG    1       24.623 -29.878   8.587  0.00  0.00    +0.192 C 
ATOM     30  C   LIG    1       24.437 -29.340   7.099  0.00  0.00    +0.208 C 
ATOM     31  C   LIG    1       24.567 -30.480   6.087  0.00  0.00    +0.193 C 
ATOM     32  C   LIG    1       25.473 -31.599   6.629  0.00  0.00    +0.207 C 
ATOM     33  C   LIG    1       26.507 -31.125   7.644  0.00  0.00    +0.185 C 
ATOM     34  C   LIG    1       26.076 -30.297   8.815  0.00  0.00    +0.178 C 
BRANCH  30  35
ATOM     35  N   LIG    1       25.130 -28.064   6.730  0.00  0.00    -0.268 N 
ATOM     36  H   LIG    1       26.146 -28.183   6.765  0.00  0.00    +0.258 HD
BRANCH  35  37
ATOM     37  C   LIG    1       24.885 -27.137   5.752  0.00  0.00    +0.377 C 
ATOM     38  N   LIG    1       23.884 -26.374   5.699  0.00  0.00    -0.130 NA
ATOM     39  H   LIG    1       23.953 -25.840   4.813  0.00  0.00    +0.306 HD
BRANCH  37  40
ATOM     40  N   LIG    1       25.813 -27.051   4.781  0.00  0.00    -0.289 N 
ATOM     41  H   LIG    1       25.945 -27.891   4.219  0.00  0.00    +0.255 HD
ATOM     42  H   LIG    1       25.392 -26.496   4.074  0.00  0.00    +0.255 HD
ENDBRANCH  37  40
ENDBRANCH  35  37
ENDBRANCH  30  35
BRANCH  31  43
ATOM     43  O   LIG    1       23.214 -30.998   5.915  0.00  0.00    -0.385 OA
ATOM     44  H   LIG    1       23.218 -31.768   5.327  0.00  0.00    +0.210 HD
ENDBRANCH  31  43
BRANCH  32  45
ATOM     45  N   LIG    1       26.146 -32.333   5.530  0.00  0.00    -0.268 N 
ATOM     46  H   LIG    1       27.055 -31.901   5.370  0.00  0.00    +0.258 HD
BRANCH  45  47
ATOM     47  C   LIG    1       25.644 -32.708   4.344  0.00  0.00    +0.377 C 
ATOM     48  N   LIG    1       24.438 -33.119   3.918  0.00  0.00    -0.130 NA
ATOM     49  H   LIG    1       23.686 -33.045   4.558  0.00  0.00    +0.306 HD
BRANCH  47  50
ATOM     50  N   LIG    1       26.499 -32.678   3.353  0.00  0.00    -0.289 N 
ATOM     51  H   LIG    1       27.418 -32.388   3.663  0.00  0.00    +0.255 HD
ATOM     52  H   LIG    1       26.207 -32.273   2.458  0.00  0.00    +0.255 HD
ENDBRANCH  47  50
ENDBRANCH  45  47
ENDBRANCH  32  45
BRANCH  33  53
ATOM     53  O   LIG    1       27.226 -32.257   8.130  0.00  0.00    -0.386 OA
ATOM     54  H   LIG    1       28.111 -32.231   7.732  0.00  0.00    +0.210 HD
ENDBRANCH  33  53
BRANCH  34  55
ATOM     55  O   LIG    1       27.049 -29.216   8.890  0.00  0.00    -0.386 OA
ATOM     56  H   LIG    1       27.969 -29.557   8.939  0.00  0.00    +0.210 HD
ENDBRANCH  34  55
ENDBRANCH   1  29
TORSDOF 20
ENDMDL
MODEL 5
REMARK VINA RESULT:      -4.7      4.313      7.366
REMARK  Name = *****
REMARK                            x       y       z     vdW  Elec       q    Type
REMARK                         _______ _______ _______ _____ _____    ______ ____
ROOT
ATOM      1  O   LIG    1       22.798 -31.797  12.575  0.00  0.00    -0.339 OA
ENDROOT
BRANCH   1   7
ATOM      2  C   LIG    1       25.091 -31.068  11.331  0.00  0.00    +0.218 C 
ATOM      3  C   LIG    1       25.579 -30.371  12.588  0.00  0.00    +0.177 C 
ATOM      4  C   LIG    1       25.569 -31.512  13.587  0.00  0.00    +0.160 C 
ATOM      5  C   LIG    1       26.703 -31.833  14.525  0.00  0.00    +0.041 C 
ATOM      6  O   LIG    1       24.956 -32.672  12.987  0.00  0.00    -0.342 OA
ATOM      7  C   LIG    1       24.101 -32.148  11.985  0.00  0.00    +0.283 C 
BRANCH   3   8
ATOM      8  O   LIG    1       26.786 -29.632  12.620  0.00  0.00    -0.376 OA
ATOM      9  H   LIG    1       26.810 -29.183  11.743  0.00  0.00    +0.211 HD
ENDBRANCH   3   8
BRANCH   3  10
ATOM     10  C   LIG    1       24.577 -29.283  12.984  0.00  0.00    +0.263 C 
ATOM     11  O   LIG    1       24.022 -28.596  12.121  0.00  0.00    -0.298 OA
ENDBRANCH   3  10
BRANCH   2  12
ATOM     12  O   LIG    1       26.211 -31.542  10.465  0.00  0.00    -0.338 OA
BRANCH  12  14
ATOM     13  C   LIG    1       26.386 -32.224   7.930  0.00  0.00    +0.141 C 
ATOM     14  C   LIG    1       26.436 -31.095   9.088  0.00  0.00    +0.271 C 
ATOM     15  O   LIG    1       25.527 -30.072   8.666  0.00  0.00    -0.342 OA
ATOM     16  C   LIG    1       24.359 -30.344   7.859  0.00  0.00    +0.178 C 
ATOM     17  C   LIG    1       23.840 -31.787   7.846  0.00  0.00    +0.175 C 
ATOM     18  C   LIG    1       24.961 -32.842   8.024  0.00  0.00    +0.167 C 
BRANCH  13  20
ATOM     19  C   LIG    1       28.088 -33.190   6.322  0.00  0.00    +0.101 C 
ATOM     20  N   LIG    1       27.574 -33.133   7.722  0.00  0.00    -0.310 NA
ATOM     21  H   LIG    1       28.343 -32.694   8.233  0.00  0.00    +0.122 HD
ENDBRANCH  13  20
BRANCH  17  22
ATOM     22  O   LIG    1       22.765 -32.007   8.775  0.00  0.00    -0.387 OA
ATOM     23  H   LIG    1       21.912 -31.845   8.330  0.00  0.00    +0.210 HD
ENDBRANCH  17  22
BRANCH  18  24
ATOM     24  O   LIG    1       24.765 -33.825   6.996  0.00  0.00    -0.387 OA
ATOM     25  H   LIG    1       25.608 -34.304   6.923  0.00  0.00    +0.210 HD
ENDBRANCH  18  24
BRANCH  16  26
ATOM     26  C   LIG    1       24.547 -29.933   6.371  0.00  0.00    +0.190 C 
BRANCH  26  27
ATOM     27  O   LIG    1       23.325 -29.780   5.671  0.00  0.00    -0.392 OA
ATOM     28  H   LIG    1       23.442 -29.028   5.065  0.00  0.00    +0.209 HD
ENDBRANCH  26  27
ENDBRANCH  16  26
ENDBRANCH  12  14
ENDBRANCH   2  12
ENDBRANCH   1   7
BRANCH   1  29
ATOM     29  C   LIG    1       21.487 -32.122  11.988  0.00  0.00    +0.192 C 
ATOM     30  C   LIG    1       20.624 -31.036  11.205  0.00  0.00    +0.208 C 
ATOM     31  C   LIG    1       20.201 -29.900  12.138  0.00  0.00    +0.193 C 
ATOM     32  C   LIG    1       20.089 -30.392  13.591  0.00  0.00    +0.207 C 
ATOM     33  C   LIG    1       19.776 -31.878  13.723  0.00  0.00    +0.185 C 
ATOM     34  C   LIG    1       20.600 -32.882  12.977  0.00  0.00    +0.178 C 
BRANCH  30  35
ATOM     35  N   LIG    1       19.567 -31.533  10.267  0.00  0.00    -0.268 N 
ATOM     36  H   LIG    1       19.696 -32.529  10.073  0.00  0.00    +0.258 HD
BRANCH  35  37
ATOM     37  C   LIG    1       18.219 -31.299  10.199  0.00  0.00    +0.377 C 
ATOM     38  N   LIG    1       17.645 -30.557   9.359  0.00  0.00    -0.130 NA
ATOM     39  H   LIG    1       16.638 -30.536   9.608  0.00  0.00    +0.306 HD
BRANCH  37  40
ATOM     40  N   LIG    1       17.467 -31.937  11.115  0.00  0.00    -0.289 N 
ATOM     41  H   LIG    1       16.848 -32.661  10.754  0.00  0.00    +0.255 HD
ATOM     42  H   LIG    1       18.098 -32.540  11.588  0.00  0.00    +0.255 HD
ENDBRANCH  37  40
ENDBRANCH  35  37
ENDBRANCH  30  35
BRANCH  31  43
ATOM     43  O   LIG    1       21.267 -28.909  12.047  0.00  0.00    -0.385 OA
ATOM     44  H   LIG    1       22.133 -29.334  12.128  0.00  0.00    +0.210 HD
ENDBRANCH  31  43
BRANCH  32  45
ATOM     45  N   LIG    1       19.097 -29.599  14.359  0.00  0.00    -0.268 N 
ATOM     46  H   LIG    1       19.033 -29.994  15.296  0.00  0.00    +0.258 HD
BRANCH  45  47
ATOM     47  C   LIG    1       17.872 -29.203  13.984  0.00  0.00    +0.377 C 
ATOM     48  N   LIG    1       16.863 -29.774  13.304  0.00  0.00    -0.130 NA
ATOM     49  H   LIG    1       16.947 -30.740  13.104  0.00  0.00    +0.306 HD
BRANCH  47  50
ATOM     50  N   LIG    1       17.554 -27.986  14.347  0.00  0.00    -0.289 N 
ATOM     51  H   LIG    1       16.921 -27.986  15.137  0.00  0.00    +0.255 HD
ATOM     52  H   LIG    1       17.330 -27.295  13.625  0.00  0.00    +0.255 HD
ENDBRANCH  47  50
ENDBRANCH  45  47
ENDBRANCH  32  45
BRANCH  33  53
ATOM     53  O   LIG    1       19.778 -32.229  15.105  0.00  0.00    -0.386 OA
ATOM     54  H   LIG    1       19.017 -31.791  15.516  0.00  0.00    +0.210 HD
ENDBRANCH  33  53
BRANCH  34  55
ATOM     55  O   LIG    1       19.636 -33.803  12.393  0.00  0.00    -0.386 OA
ATOM     56  H   LIG    1       19.785 -34.725  12.695  0.00  0.00    +0.210 HD
ENDBRANCH  34  55
ENDBRANCH   1  29
TORSDOF 20
ENDMDL
MODEL 6
REMARK VINA RESULT:      -4.6      2.746      5.132
REMARK  Name = *****
REMARK                            x       y       z     vdW  Elec       q    Type
REMARK                         _______ _______ _______ _____ _____    ______ ____
ROOT
ATOM      1  O   LIG    1       25.687 -31.807  11.404  0.00  0.00    -0.339 OA
ENDROOT
BRANCH   1   7
ATOM      2  C   LIG    1       23.488 -32.020  12.971  0.00  0.00    +0.218 C 
ATOM      3  C   LIG    1       24.354 -32.105  14.216  0.00  0.00    +0.177 C 
ATOM      4  C   LIG    1       25.123 -30.801  14.135  0.00  0.00    +0.160 C 
ATOM      5  C   LIG    1       25.306 -29.847  15.285  0.00  0.00    +0.041 C 
ATOM      6  O   LIG    1       24.847 -30.156  12.874  0.00  0.00    -0.342 OA
ATOM      7  C   LIG    1       24.479 -31.213  12.003  0.00  0.00    +0.283 C 
BRANCH   3   8
ATOM      8  O   LIG    1       23.806 -32.333  15.500  0.00  0.00    -0.376 OA
ATOM      9  H   LIG    1       22.920 -32.722  15.313  0.00  0.00    +0.211 HD
ENDBRANCH   3   8
BRANCH   3  10
ATOM     10  C   LIG    1       25.293 -33.308  14.096  0.00  0.00    +0.263 C 
ATOM     11  O   LIG    1       26.514 -33.165  14.203  0.00  0.00    -0.298 OA
ENDBRANCH   3  10
BRANCH   2  12
ATOM     12  O   LIG    1       22.132 -31.460  13.252  0.00  0.00    -0.338 OA
BRANCH  12  14
ATOM     13  C   LIG    1       20.245 -30.214  11.906  0.00  0.00    +0.141 C 
ATOM     14  C   LIG    1       21.641 -30.185  12.724  0.00  0.00    +0.271 C 
ATOM     15  O   LIG    1       21.475 -29.178  13.729  0.00  0.00    -0.342 OA
ATOM     16  C   LIG    1       20.194 -28.858  14.316  0.00  0.00    +0.178 C 
ATOM     17  C   LIG    1       19.089 -29.915  14.198  0.00  0.00    +0.175 C 
ATOM     18  C   LIG    1       19.196 -30.771  12.912  0.00  0.00    +0.167 C 
BRANCH  13  20
ATOM     19  C   LIG    1       20.276 -32.179  10.307  0.00  0.00    +0.101 C 
ATOM     20  N   LIG    1       20.228 -30.697  10.475  0.00  0.00    -0.310 NA
ATOM     21  H   LIG    1       19.301 -30.453  10.118  0.00  0.00    +0.122 HD
ENDBRANCH  13  20
BRANCH  17  22
ATOM     22  O   LIG    1       18.976 -30.744  15.368  0.00  0.00    -0.387 OA
ATOM     23  H   LIG    1       19.558 -30.399  16.069  0.00  0.00    +0.210 HD
ENDBRANCH  17  22
BRANCH  18  24
ATOM     24  O   LIG    1       17.887 -30.788  12.322  0.00  0.00    -0.387 OA
ATOM     25  H   LIG    1       17.831 -29.984  11.777  0.00  0.00    +0.210 HD
ENDBRANCH  18  24
BRANCH  16  26
ATOM     26  C   LIG    1       19.593 -27.534  13.764  0.00  0.00    +0.190 C 
BRANCH  26  27
ATOM     27  O   LIG    1       20.336 -26.983  12.691  0.00  0.00    -0.392 OA
ATOM     28  H   LIG    1       20.700 -26.138  13.006  0.00  0.00    +0.209 HD
ENDBRANCH  26  27
ENDBRANCH  16  26
ENDBRANCH  12  14
ENDBRANCH   2  12
ENDBRANCH   1   7
BRANCH   1  29
ATOM     29  C   LIG    1       25.730 -32.519  10.116  0.00  0.00    +0.192 C 
ATOM     30  C   LIG    1       26.832 -32.193   9.012  0.00  0.00    +0.208 C 
ATOM     31  C   LIG    1       26.681 -30.760   8.497  0.00  0.00    +0.193 C 
ATOM     32  C   LIG    1       25.223 -30.284   8.609  0.00  0.00    +0.207 C 
ATOM     33  C   LIG    1       24.195 -31.410   8.562  0.00  0.00    +0.185 C 
ATOM     34  C   LIG    1       24.346 -32.594   9.467  0.00  0.00    +0.178 C 
BRANCH  30  35
ATOM     35  N   LIG    1       27.098 -33.232   7.967  0.00  0.00    -0.268 N 
ATOM     36  H   LIG    1       26.681 -34.128   8.235  0.00  0.00    +0.258 HD
BRANCH  35  37
ATOM     37  C   LIG    1       27.065 -33.187   6.599  0.00  0.00    +0.377 C 
ATOM     38  N   LIG    1       28.070 -33.156   5.841  0.00  0.00    -0.130 NA
ATOM     39  H   LIG    1       27.718 -33.059   4.870  0.00  0.00    +0.306 HD
BRANCH  37  40
ATOM     40  N   LIG    1       25.838 -33.182   6.043  0.00  0.00    -0.289 N 
ATOM     41  H   LIG    1       25.745 -33.702   5.172  0.00  0.00    +0.255 HD
ATOM     42  H   LIG    1       25.299 -33.793   6.610  0.00  0.00    +0.255 HD
ENDBRANCH  37  40
ENDBRANCH  35  37
ENDBRANCH  30  35
BRANCH  31  43
ATOM     43  O   LIG    1       27.520 -29.947   9.369  0.00  0.00    -0.385 OA
ATOM     44  H   LIG    1       27.213 -30.006  10.286  0.00  0.00    +0.210 HD
ENDBRANCH  31  43
BRANCH  32  45
ATOM     45  N   LIG    1       24.901 -29.267   7.578  0.00  0.00    -0.268 N 
ATOM     46  H   LIG    1       24.262 -28.589   7.990  0.00  0.00    +0.258 HD
BRANCH  45  47
ATOM     47  C   LIG    1       24.547 -29.457   6.298  0.00  0.00    +0.377 C 
ATOM     48  N   LIG    1       23.384 -29.686   5.666  0.00  0.00    -0.130 NA
ATOM     49  H   LIG    1       22.557 -29.599   6.202  0.00  0.00    +0.306 HD
BRANCH  47  50
ATOM     50  N   LIG    1       25.538 -29.414   5.443  0.00  0.00    -0.289 N 
ATOM     51  H   LIG    1       25.329 -28.806   4.661  0.00  0.00    +0.255 HD
ATOM     52  H   LIG    1       26.010 -30.286   5.187  0.00  0.00    +0.255 HD
ENDBRANCH  47  50
ENDBRANCH  45  47
ENDBRANCH  32  45
BRANCH  33  53
ATOM     53  O   LIG    1       22.895 -30.856   8.757  0.00  0.00    -0.386 OA
ATOM     54  H   LIG    1       22.965 -29.899   8.617  0.00  0.00    +0.210 HD
ENDBRANCH  33  53
BRANCH  34  55
ATOM     55  O   LIG    1       24.101 -33.751   8.618  0.00  0.00    -0.386 OA
ATOM     56  H   LIG    1       24.872 -34.358   8.597  0.00  0.00    +0.210 HD
ENDBRANCH  34  55
ENDBRANCH   1  29
TORSDOF 20
ENDMDL
MODEL 7
REMARK VINA RESULT:      -4.5      3.707      7.943
REMARK  Name = *****
REMARK                            x       y       z     vdW  Elec       q    Type
REMARK                         _______ _______ _______ _____ _____    ______ ____
ROOT
ATOM      1  O   LIG    1       25.541 -30.591  11.629  0.00  0.00    -0.339 OA
ENDROOT
BRANCH   1   7
ATOM      2  C   LIG    1       23.356 -30.483  10.031  0.00  0.00    +0.218 C 
ATOM      3  C   LIG    1       24.232 -30.514   8.791  0.00  0.00    +0.177 C 
ATOM      4  C   LIG    1       24.985 -31.816   8.987  0.00  0.00    +0.160 C 
ATOM      5  C   LIG    1       25.164 -32.865   7.922  0.00  0.00    +0.041 C 
ATOM      6  O   LIG    1       24.691 -32.349  10.295  0.00  0.00    -0.342 OA
ATOM      7  C   LIG    1       24.330 -31.219  11.071  0.00  0.00    +0.283 C 
BRANCH   3   8
ATOM      8  O   LIG    1       23.697 -30.387   7.487  0.00  0.00    -0.376 OA
ATOM      9  H   LIG    1       23.034 -31.113   7.433  0.00  0.00    +0.211 HD
ENDBRANCH   3   8
BRANCH   3  10
ATOM     10  C   LIG    1       25.186 -29.316   8.818  0.00  0.00    +0.263 C 
ATOM     11  O   LIG    1       26.409 -29.486   8.814  0.00  0.00    -0.298 OA
ENDBRANCH   3  10
BRANCH   2  12
ATOM     12  O   LIG    1       21.996 -31.049   9.786  0.00  0.00    -0.338 OA
BRANCH  12  14
ATOM     13  C   LIG    1       20.631 -31.709  11.937  0.00  0.00    +0.141 C 
ATOM     14  C   LIG    1       21.397 -32.129  10.575  0.00  0.00    +0.271 C 
ATOM     15  O   LIG    1       20.460 -32.920   9.836  0.00  0.00    -0.342 OA
ATOM     16  C   LIG    1       19.030 -32.734   9.929  0.00  0.00    +0.178 C 
ATOM     17  C   LIG    1       18.535 -31.383  10.461  0.00  0.00    +0.175 C 
ATOM     18  C   LIG    1       19.501 -30.739  11.487  0.00  0.00    +0.167 C 
BRANCH  13  20
ATOM     19  C   LIG    1       21.771 -29.945  13.353  0.00  0.00    +0.101 C 
ATOM     20  N   LIG    1       21.434 -31.388  13.176  0.00  0.00    -0.310 NA
ATOM     21  H   LIG    1       20.807 -31.578  13.961  0.00  0.00    +0.122 HD
ENDBRANCH  13  20
BRANCH  17  22
ATOM     22  O   LIG    1       18.193 -30.457   9.416  0.00  0.00    -0.387 OA
ATOM     23  H   LIG    1       18.577 -29.584   9.615  0.00  0.00    +0.210 HD
ENDBRANCH  17  22
BRANCH  18  24
ATOM     24  O   LIG    1       18.699 -30.340  12.609  0.00  0.00    -0.387 OA
ATOM     25  H   LIG    1       18.076 -29.676  12.267  0.00  0.00    +0.210 HD
ENDBRANCH  18  24
BRANCH  16  26
ATOM     26  C   LIG    1       18.335 -33.825  10.792  0.00  0.00    +0.190 C 
BRANCH  26  27
ATOM     27  O   LIG    1       17.098 -33.405  11.340  0.00  0.00    -0.392 OA
ATOM     28  H   LIG    1       16.998 -32.463  11.118  0.00  0.00    +0.209 HD
ENDBRANCH  26  27
ENDBRANCH  16  26
ENDBRANCH  12  14
ENDBRANCH   2  12
ENDBRANCH   1   7
BRANCH   1  29
ATOM     29  C   LIG    1       25.561 -29.360  12.436  0.00  0.00    +0.192 C 
ATOM     30  C   LIG    1       26.596 -28.184  12.149  0.00  0.00    +0.208 C 
ATOM     31  C   LIG    1       28.034 -28.654  12.381  0.00  0.00    +0.193 C 
ATOM     32  C   LIG    1       28.083 -29.782  13.425  0.00  0.00    +0.207 C 
ATOM     33  C   LIG    1       26.932 -29.756  14.426  0.00  0.00    +0.185 C 
ATOM     34  C   LIG    1       25.520 -29.667  13.934  0.00  0.00    +0.178 C 
BRANCH  30  35
ATOM     35  N   LIG    1       26.266 -26.822  12.678  0.00  0.00    -0.268 N 
ATOM     36  H   LIG    1       25.265 -26.743  12.870  0.00  0.00    +0.258 HD
BRANCH  35  37
ATOM     37  C   LIG    1       26.897 -26.014  13.587  0.00  0.00    +0.377 C 
ATOM     38  N   LIG    1       27.752 -25.131  13.314  0.00  0.00    -0.130 NA
ATOM     39  H   LIG    1       28.086 -24.740  14.214  0.00  0.00    +0.306 HD
BRANCH  37  40
ATOM     40  N   LIG    1       26.547 -26.197  14.874  0.00  0.00    -0.289 N 
ATOM     41  H   LIG    1       26.444 -27.166  15.171  0.00  0.00    +0.255 HD
ATOM     42  H   LIG    1       27.369 -25.996  15.392  0.00  0.00    +0.255 HD
ENDBRANCH  37  40
ENDBRANCH  35  37
ENDBRANCH  30  35
BRANCH  31  43
ATOM     43  O   LIG    1       28.483 -29.170  11.094  0.00  0.00    -0.385 OA
ATOM     44  H   LIG    1       28.104 -28.652  10.369  0.00  0.00    +0.210 HD
ENDBRANCH  31  43
BRANCH  32  45
ATOM     45  N   LIG    1       29.378 -29.798  14.149  0.00  0.00    -0.268 N 
ATOM     46  H   LIG    1       29.216 -29.455  15.096  0.00  0.00    +0.258 HD
BRANCH  45  47
ATOM     47  C   LIG    1       30.572 -29.347  13.737  0.00  0.00    +0.377 C 
ATOM     48  N   LIG    1       31.360 -29.598  12.677  0.00  0.00    -0.130 NA
ATOM     49  H   LIG    1       30.974 -30.151  11.952  0.00  0.00    +0.306 HD
BRANCH  47  50
ATOM     50  N   LIG    1       31.124 -28.458  14.523  0.00  0.00    -0.289 N 
ATOM     51  H   LIG    1       32.121 -28.386  14.362  0.00  0.00    +0.255 HD
ATOM     52  H   LIG    1       30.851 -28.432  15.511  0.00  0.00    +0.255 HD
ENDBRANCH  47  50
ENDBRANCH  45  47
ENDBRANCH  32  45
BRANCH  33  53
ATOM     53  O   LIG    1       27.042 -30.889  15.284  0.00  0.00    -0.386 OA
ATOM     54  H   LIG    1       27.556 -31.562  14.811  0.00  0.00    +0.210 HD
ENDBRANCH  33  53
BRANCH  34  55
ATOM     55  O   LIG    1       24.890 -28.661  14.776  0.00  0.00    -0.386 OA
ATOM     56  H   LIG    1       23.951 -28.879  14.962  0.00  0.00    +0.210 HD
ENDBRANCH  34  55
ENDBRANCH   1  29
TORSDOF 20
ENDMDL
MODEL 8
REMARK VINA RESULT:      -4.4      3.179      5.876
REMARK  Name = *****
REMARK                            x       y       z     vdW  Elec       q    Type
REMARK                         _______ _______ _______ _____ _____    ______ ____
ROOT
ATOM      1  O   LIG    1       26.112 -30.245  10.729  0.00  0.00    -0.339 OA
ENDROOT
BRANCH   1   7
ATOM      2  C   LIG    1       24.713 -29.662  12.973  0.00  0.00    +0.218 C 
ATOM      3  C   LIG    1       25.942 -29.907  13.831  0.00  0.00    +0.177 C 
ATOM      4  C   LIG    1       26.920 -28.906  13.247  0.00  0.00    +0.160 C 
ATOM      5  C   LIG    1       27.766 -27.965  14.063  0.00  0.00    +0.041 C 
ATOM      6  O   LIG    1       26.348 -28.308  12.065  0.00  0.00    -0.342 OA
ATOM      7  C   LIG    1       25.421 -29.269  11.589  0.00  0.00    +0.283 C 
BRANCH   3   8
ATOM      8  O   LIG    1       25.895 -29.858  15.245  0.00  0.00    -0.376 OA
ATOM      9  H   LIG    1       26.424 -29.058  15.471  0.00  0.00    +0.211 HD
ENDBRANCH   3   8
BRANCH   3  10
ATOM     10  C   LIG    1       26.428 -31.343  13.618  0.00  0.00    +0.263 C 
ATOM     11  O   LIG    1       27.281 -31.834  14.363  0.00  0.00    -0.298 OA
ENDBRANCH   3  10
BRANCH   2  12
ATOM     12  O   LIG    1       23.759 -28.699  13.599  0.00  0.00    -0.338 OA
BRANCH  12  14
ATOM     13  C   LIG    1       21.478 -28.098  14.766  0.00  0.00    +0.141 C 
ATOM     14  C   LIG    1       22.771 -29.060  14.619  0.00  0.00    +0.271 C 
ATOM     15  O   LIG    1       22.248 -30.383  14.461  0.00  0.00    -0.342 OA
ATOM     16  C   LIG    1       20.970 -30.655  13.842  0.00  0.00    +0.178 C 
ATOM     17  C   LIG    1       20.388 -29.562  12.936  0.00  0.00    +0.175 C 
ATOM     18  C   LIG    1       20.785 -28.130  13.373  0.00  0.00    +0.167 C 
BRANCH  13  20
ATOM     19  C   LIG    1       22.850 -26.015  15.208  0.00  0.00    +0.101 C 
ATOM     20  N   LIG    1       21.605 -26.784  15.500  0.00  0.00    -0.310 NA
ATOM     21  H   LIG    1       20.869 -26.187  15.115  0.00  0.00    +0.122 HD
ENDBRANCH  13  20
BRANCH  17  22
ATOM     22  O   LIG    1       20.667 -29.778  11.543  0.00  0.00    -0.387 OA
ATOM     23  H   LIG    1       21.593 -30.065  11.436  0.00  0.00    +0.210 HD
ENDBRANCH  17  22
BRANCH  18  24
ATOM     24  O   LIG    1       19.575 -27.357  13.390  0.00  0.00    -0.387 OA
ATOM     25  H   LIG    1       19.777 -26.561  13.911  0.00  0.00    +0.210 HD
ENDBRANCH  18  24
BRANCH  16  26
ATOM     26  C   LIG    1       19.862 -31.002  14.876  0.00  0.00    +0.190 C 
BRANCH  26  27
ATOM     27  O   LIG    1       18.561 -30.638  14.449  0.00  0.00    -0.392 OA
ATOM     28  H   LIG    1       18.016 -30.554  15.251  0.00  0.00    +0.209 HD
ENDBRANCH  26  27
ENDBRANCH  16  26
ENDBRANCH  12  14
ENDBRANCH   2  12
ENDBRANCH   1   7
BRANCH   1  29
ATOM     29  C   LIG    1       26.048 -30.273   9.258  0.00  0.00    +0.192 C 
ATOM     30  C   LIG    1       24.789 -29.709   8.461  0.00  0.00    +0.208 C 
ATOM     31  C   LIG    1       23.533 -30.525   8.777  0.00  0.00    +0.193 C 
ATOM     32  C   LIG    1       23.896 -31.970   9.160  0.00  0.00    +0.207 C 
ATOM     33  C   LIG    1       25.207 -32.463   8.557  0.00  0.00    +0.185 C 
ATOM     34  C   LIG    1       26.450 -31.641   8.702  0.00  0.00    +0.178 C 
BRANCH  30  35
ATOM     35  N   LIG    1       24.982 -29.351   7.019  0.00  0.00    -0.268 N 
ATOM     36  H   LIG    1       25.978 -29.272   6.798  0.00  0.00    +0.258 HD
BRANCH  35  37
ATOM     37  C   LIG    1       24.367 -29.786   5.876  0.00  0.00    +0.377 C 
ATOM     38  N   LIG    1       23.302 -29.319   5.392  0.00  0.00    -0.130 NA
ATOM     39  H   LIG    1       23.062 -29.898   4.567  0.00  0.00    +0.306 HD
BRANCH  37  40
ATOM     40  N   LIG    1       24.980 -30.796   5.230  0.00  0.00    -0.289 N 
ATOM     41  H   LIG    1       25.632 -30.521   4.496  0.00  0.00    +0.255 HD
ATOM     42  H   LIG    1       25.655 -31.137   5.872  0.00  0.00    +0.255 HD
ENDBRANCH  37  40
ENDBRANCH  35  37
ENDBRANCH  30  35
BRANCH  31  43
ATOM     43  O   LIG    1       22.923 -29.862   9.924  0.00  0.00    -0.385 OA
ATOM     44  H   LIG    1       22.722 -30.506  10.620  0.00  0.00    +0.210 HD
ENDBRANCH  31  43
BRANCH  32  45
ATOM     45  N   LIG    1       22.801 -32.912   8.824  0.00  0.00    -0.268 N 
ATOM     46  H   LIG    1       22.557 -32.778   7.843  0.00  0.00    +0.258 HD
BRANCH  45  47
ATOM     47  C   LIG    1       21.675 -33.164   9.507  0.00  0.00    +0.377 C 
ATOM     48  N   LIG    1       20.536 -33.825   9.238  0.00  0.00    -0.130 NA
ATOM     49  H   LIG    1       20.512 -34.355   8.402  0.00  0.00    +0.306 HD
BRANCH  47  50
ATOM     50  N   LIG    1       21.645 -32.666  10.717  0.00  0.00    -0.289 N 
ATOM     51  H   LIG    1       22.089 -31.757  10.757  0.00  0.00    +0.255 HD
ATOM     52  H   LIG    1       21.862 -33.278  11.511  0.00  0.00    +0.255 HD
ENDBRANCH  47  50
ENDBRANCH  45  47
ENDBRANCH  32  45
BRANCH  33  53
ATOM     53  O   LIG    1       25.473 -33.776   9.047  0.00  0.00    -0.386 OA
ATOM     54  H   LIG    1       26.030 -34.223   8.390  0.00  0.00    +0.210 HD
ENDBRANCH  33  53
BRANCH  34  55
ATOM     55  O   LIG    1       27.058 -31.640   7.380  0.00  0.00    -0.386 OA
ATOM     56  H   LIG    1       26.381 -31.634   6.668  0.00  0.00    +0.210 HD
ENDBRANCH  34  55
ENDBRANCH   1  29
TORSDOF 20
ENDMDL
MODEL 9
REMARK VINA RESULT:      -4.3      4.094      6.610
REMARK  Name = *****
REMARK                            x       y       z     vdW  Elec       q    Type
REMARK                         _______ _______ _______ _____ _____    ______ ____
ROOT
ATOM      1  O   LIG    1       23.040 -31.633  10.482  0.00  0.00    -0.339 OA
ENDROOT
BRANCH   1   7
ATOM      2  C   LIG    1       25.185 -29.999  10.734  0.00  0.00    +0.218 C 
ATOM      3  C   LIG    1       25.781 -30.545   9.448  0.00  0.00    +0.177 C 
ATOM      4  C   LIG    1       24.683 -30.232   8.451  0.00  0.00    +0.160 C 
ATOM      5  C   LIG    1       24.908 -29.589   7.109  0.00  0.00    +0.041 C 
ATOM      6  O   LIG    1       23.523 -29.738   9.153  0.00  0.00    -0.342 OA
ATOM      7  C   LIG    1       23.631 -30.284  10.457  0.00  0.00    +0.283 C 
BRANCH   3   8
ATOM      8  O   LIG    1       27.061 -30.155   8.987  0.00  0.00    -0.376 OA
ATOM      9  H   LIG    1       27.655 -30.877   9.301  0.00  0.00    +0.211 HD
ENDBRANCH   3   8
BRANCH   3  10
ATOM     10  C   LIG    1       25.985 -32.056   9.589  0.00  0.00    +0.263 C 
ATOM     11  O   LIG    1       26.263 -32.554  10.684  0.00  0.00    -0.298 OA
ENDBRANCH   3  10
BRANCH   2  12
ATOM     12  O   LIG    1       25.626 -28.602  11.023  0.00  0.00    -0.338 OA
BRANCH  12  14
ATOM     13  C   LIG    1       26.892 -27.363  12.968  0.00  0.00    +0.141 C 
ATOM     14  C   LIG    1       26.919 -28.251  11.616  0.00  0.00    +0.271 C 
ATOM     15  O   LIG    1       27.733 -29.388  11.921  0.00  0.00    -0.342 OA
ATOM     16  C   LIG    1       27.839 -29.946  13.250  0.00  0.00    +0.178 C 
ATOM     17  C   LIG    1       26.717 -29.606  14.239  0.00  0.00    +0.175 C 
ATOM     18  C   LIG    1       26.090 -28.211  13.997  0.00  0.00    +0.167 C 
BRANCH  13  20
ATOM     19  C   LIG    1       27.564 -25.031  13.695  0.00  0.00    +0.101 C 
ATOM     20  N   LIG    1       26.643 -25.875  12.880  0.00  0.00    -0.310 NA
ATOM     21  H   LIG    1       26.882 -25.618  11.919  0.00  0.00    +0.122 HD
ENDBRANCH  13  20
BRANCH  17  22
ATOM     22  O   LIG    1       25.707 -30.626  14.317  0.00  0.00    -0.387 OA
ATOM     23  H   LIG    1       25.502 -30.811  15.252  0.00  0.00    +0.210 HD
ENDBRANCH  17  22
BRANCH  18  24
ATOM     24  O   LIG    1       26.047 -27.554  15.273  0.00  0.00    -0.387 OA
ATOM     25  H   LIG    1       25.249 -26.999  15.260  0.00  0.00    +0.210 HD
ENDBRANCH  18  24
BRANCH  16  26
ATOM     26  C   LIG    1       29.173 -29.573  13.956  0.00  0.00    +0.190 C 
BRANCH  26  27
ATOM     27  O   LIG    1       30.215 -29.246  13.053  0.00  0.00    -0.392 OA
ATOM     28  H   LIG    1       29.931 -29.552  12.175  0.00  0.00    +0.209 HD
ENDBRANCH  26  27
ENDBRANCH  16  26
ENDBRANCH  12  14
ENDBRANCH   2  12
ENDBRANCH   1   7
BRANCH   1  29
ATOM     29  C   LIG    1       22.266 -32.197  11.602  0.00  0.00    +0.192 C 
ATOM     30  C   LIG    1       20.674 -32.180  11.615  0.00  0.00    +0.208 C 
ATOM     31  C   LIG    1       20.143 -30.745  11.649  0.00  0.00    +0.193 C 
ATOM     32  C   LIG    1       21.149 -29.802  12.331  0.00  0.00    +0.207 C 
ATOM     33  C   LIG    1       22.059 -30.488  13.344  0.00  0.00    +0.185 C 
ATOM     34  C   LIG    1       22.806 -31.726  12.953  0.00  0.00    +0.178 C 
BRANCH  30  35
ATOM     35  N   LIG    1       19.976 -33.149  12.519  0.00  0.00    -0.268 N 
ATOM     36  H   LIG    1       20.617 -33.888  12.820  0.00  0.00    +0.258 HD
BRANCH  35  37
ATOM     37  C   LIG    1       19.088 -32.970  13.546  0.00  0.00    +0.377 C 
ATOM     38  N   LIG    1       17.833 -33.015  13.448  0.00  0.00    -0.130 NA
ATOM     39  H   LIG    1       17.445 -32.776  14.379  0.00  0.00    +0.306 HD
BRANCH  37  40
ATOM     40  N   LIG    1       19.631 -32.733  14.755  0.00  0.00    -0.289 N 
ATOM     41  H   LIG    1       19.937 -31.775  14.922  0.00  0.00    +0.255 HD
ATOM     42  H   LIG    1       18.864 -32.729  15.383  0.00  0.00    +0.255 HD
ENDBRANCH  37  40
ENDBRANCH  35  37
ENDBRANCH  30  35
BRANCH  31  43
ATOM     43  O   LIG    1       19.992 -30.357  10.251  0.00  0.00    -0.385 OA
ATOM     44  H   LIG    1       19.114 -29.979  10.098  0.00  0.00    +0.210 HD
ENDBRANCH  31  43
BRANCH  32  45
ATOM     45  N   LIG    1       20.466 -28.649  12.969  0.00  0.00    -0.268 N 
ATOM     46  H   LIG    1       19.468 -28.724  12.775  0.00  0.00    +0.258 HD
BRANCH  45  47
ATOM     47  C   LIG    1       20.805 -27.352  12.933  0.00  0.00    +0.377 C 
ATOM     48  N   LIG    1       21.942 -26.668  13.146  0.00  0.00    -0.130 NA
ATOM     49  H   LIG    1       22.772 -27.198  13.251  0.00  0.00    +0.306 HD
BRANCH  47  50
ATOM     50  N   LIG    1       19.828 -26.538  12.622  0.00  0.00    -0.289 N 
ATOM     51  H   LIG    1       19.586 -26.605  11.641  0.00  0.00    +0.255 HD
ATOM     52  H   LIG    1       19.841 -25.583  12.991  0.00  0.00    +0.255 HD
ENDBRANCH  47  50
ENDBRANCH  45  47
ENDBRANCH  32  45
BRANCH  33  53
ATOM     53  O   LIG    1       22.994 -29.534  13.844  0.00  0.00    -0.386 OA
ATOM     54  H   LIG    1       23.708 -29.459  13.192  0.00  0.00    +0.210 HD
ENDBRANCH  33  53
BRANCH  34  55
ATOM     55  O   LIG    1       22.625 -32.643  14.069  0.00  0.00    -0.386 OA
ATOM     56  H   LIG    1       23.144 -32.366  14.855  0.00  0.00    +0.210 HD
ENDBRANCH  34  55
ENDBRANCH   1  29
TORSDOF 20
ENDMDL
