MODEL 1
REMARK VINA RESULT:      -5.9      0.000      0.000
REMARK  Name = *****
REMARK                            x       y       z     vdW  Elec       q    Type
REMARK                         _______ _______ _______ _____ _____    ______ ____
ROOT
ATOM      1  C   LIG    1       29.632 -18.277   7.165  0.00  0.00    +0.015 C 
ATOM      2  C   LIG    1       29.744 -19.418   8.190  0.00  0.00    +0.009 C 
ATOM      3  C   LIG    1       31.083 -19.329   8.999  0.00  0.00    +0.132 C 
ATOM      4  C   LIG    1       31.234 -20.733   9.603  0.00  0.00    +0.043 C 
ATOM      5  C   LIG    1       30.523 -21.680   8.631  0.00  0.00    +0.007 C 
ATOM      6  C   LIG    1       29.917 -20.800   7.513  0.00  0.00    +0.002 C 
ATOM      7  C   LIG    1       28.660 -21.435   6.881  0.00  0.00    +0.002 C 
ATOM      8  C   LIG    1       28.434 -20.973   5.419  0.00  0.00    +0.045 C 
ATOM      9  C   LIG    1       27.033 -20.494   5.018  0.00  0.00    +0.193 C 
ATOM     10  F   LIG    1       27.056 -19.127   5.070  0.00  0.00    -0.241 F 
ATOM     11  C   LIG    1       25.870 -20.979   5.836  0.00  0.00    -0.023 C 
ATOM     12  C   LIG    1       26.149 -21.924   6.986  0.00  0.00    +0.016 C 
ATOM     13  C   LIG    1       26.402 -23.348   6.418  0.00  0.00    +0.020 C 
ATOM     14  C   LIG    1       24.950 -22.101   7.901  0.00  0.00    -0.012 C 
ATOM     15  C   LIG    1       23.728 -21.600   7.651  0.00  0.00    +0.047 C 
ATOM     16  C   LIG    1       23.471 -20.789   6.439  0.00  0.00    +0.179 C 
ATOM     17  O   LIG    1       22.352 -20.396   6.157  0.00  0.00    -0.288 OA
ATOM     18  C   LIG    1       24.636 -20.472   5.592  0.00  0.00    +0.053 C 
ATOM     19  C   LIG    1       27.399 -21.374   7.776  0.00  0.00    +0.035 C 
ATOM     20  C   LIG    1       27.218 -19.956   8.392  0.00  0.00    +0.120 C 
ATOM     21  C   LIG    1       28.486 -19.433   9.089  0.00  0.00    +0.042 C 
ENDROOT
BRANCH   3  22
ATOM     22  O   LIG    1       32.171 -19.162   8.081  0.00  0.00    -0.380 OA
ATOM     23  H   LIG    1       32.966 -19.579   8.468  0.00  0.00    +0.211 HD
ENDBRANCH   3  22
BRANCH   3  24
ATOM     24  C   LIG    1       31.104 -18.229  10.085  0.00  0.00    +0.190 C 
ATOM     25  O   LIG    1       30.790 -18.447  11.260  0.00  0.00    -0.292 OA
BRANCH  24  26
ATOM     26  C   LIG    1       31.610 -16.856   9.668  0.00  0.00    +0.233 C 
BRANCH  26  27
ATOM     27  O   LIG    1       33.025 -16.880   9.536  0.00  0.00    -0.387 OA
ATOM     28  H   LIG    1       33.215 -17.310   8.680  0.00  0.00    +0.210 HD
ENDBRANCH  26  27
ENDBRANCH  24  26
ENDBRANCH   3  24
BRANCH  20  29
ATOM     29  O   LIG    1       26.177 -19.958   9.369  0.00  0.00    -0.391 OA
ATOM     30  H   LIG    1       25.402 -20.410   8.996  0.00  0.00    +0.210 HD
ENDBRANCH  20  29
TORSDOF 5
ENDMDL
MODEL 2
REMARK VINA RESULT:      -5.5      9.147     12.232
REMARK  Name = *****
REMARK                            x       y       z     vdW  Elec       q    Type
REMARK                         _______ _______ _______ _____ _____    ______ ____
ROOT
ATOM      1  C   LIG    1       23.038 -30.445   9.444  0.00  0.00    +0.015 C 
ATOM      2  C   LIG    1       24.433 -31.067   9.624  0.00  0.00    +0.009 C 
ATOM      3  C   LIG    1       24.628 -32.311   8.692  0.00  0.00    +0.132 C 
ATOM      4  C   LIG    1       25.823 -33.046   9.315  0.00  0.00    +0.043 C 
ATOM      5  C   LIG    1       25.785 -32.706  10.809  0.00  0.00    +0.007 C 
ATOM      6  C   LIG    1       24.604 -31.729  11.013  0.00  0.00    +0.002 C 
ATOM      7  C   LIG    1       24.823 -30.788  12.218  0.00  0.00    +0.002 C 
ATOM      8  C   LIG    1       23.488 -30.302  12.839  0.00  0.00    +0.045 C 
ATOM      9  C   LIG    1       23.322 -28.802  13.117  0.00  0.00    +0.193 C 
ATOM     10  F   LIG    1       22.610 -28.284  12.070  0.00  0.00    -0.241 F 
ATOM     11  C   LIG    1       24.570 -27.983  13.293  0.00  0.00    -0.023 C 
ATOM     12  C   LIG    1       25.907 -28.689  13.205  0.00  0.00    +0.016 C 
ATOM     13  C   LIG    1       26.163 -29.448  14.536  0.00  0.00    +0.020 C 
ATOM     14  C   LIG    1       27.072 -27.722  13.103  0.00  0.00    -0.012 C 
ATOM     15  C   LIG    1       26.961 -26.388  13.223  0.00  0.00    +0.047 C 
ATOM     16  C   LIG    1       25.641 -25.751  13.442  0.00  0.00    +0.179 C 
ATOM     17  O   LIG    1       25.533 -24.551  13.633  0.00  0.00    -0.288 OA
ATOM     18  C   LIG    1       24.463 -26.636  13.408  0.00  0.00    +0.053 C 
ATOM     19  C   LIG    1       25.861 -29.667  11.969  0.00  0.00    +0.035 C 
ATOM     20  C   LIG    1       25.624 -28.980  10.592  0.00  0.00    +0.120 C 
ATOM     21  C   LIG    1       25.515 -29.980   9.428  0.00  0.00    +0.042 C 
ENDROOT
BRANCH   3  22
ATOM     22  O   LIG    1       23.497 -33.181   8.834  0.00  0.00    -0.380 OA
ATOM     23  H   LIG    1       23.661 -33.987   8.306  0.00  0.00    +0.211 HD
ENDBRANCH   3  22
BRANCH   3  24
ATOM     24  C   LIG    1       24.873 -31.965   7.205  0.00  0.00    +0.190 C 
ATOM     25  O   LIG    1       25.996 -31.706   6.759  0.00  0.00    -0.292 OA
BRANCH  24  26
ATOM     26  C   LIG    1       23.673 -32.033   6.272  0.00  0.00    +0.233 C 
BRANCH  26  27
ATOM     27  O   LIG    1       23.360 -30.734   5.790  0.00  0.00    -0.387 OA
ATOM     28  H   LIG    1       22.561 -30.445   6.271  0.00  0.00    +0.210 HD
ENDBRANCH  26  27
ENDBRANCH  24  26
ENDBRANCH   3  24
BRANCH  20  29
ATOM     29  O   LIG    1       26.697 -28.093  10.279  0.00  0.00    -0.391 OA
ATOM     30  H   LIG    1       27.477 -28.621  10.041  0.00  0.00    +0.210 HD
ENDBRANCH  20  29
TORSDOF 5
ENDMDL
MODEL 3
REMARK VINA RESULT:      -5.5      5.194      7.737
REMARK  Name = *****
REMARK                            x       y       z     vdW  Elec       q    Type
REMARK                         _______ _______ _______ _____ _____    ______ ____
ROOT
ATOM      1  C   LIG    1       23.425 -25.521   6.719  0.00  0.00    +0.015 C 
ATOM      2  C   LIG    1       24.830 -25.424   6.100  0.00  0.00    +0.009 C 
ATOM      3  C   LIG    1       25.556 -26.813   6.113  0.00  0.00    +0.132 C 
ATOM      4  C   LIG    1       27.034 -26.449   5.909  0.00  0.00    +0.043 C 
ATOM      5  C   LIG    1       27.199 -25.044   6.497  0.00  0.00    +0.007 C 
ATOM      6  C   LIG    1       25.800 -24.593   6.975  0.00  0.00    +0.002 C 
ATOM      7  C   LIG    1       25.635 -23.058   6.942  0.00  0.00    +0.002 C 
ATOM      8  C   LIG    1       24.593 -22.553   7.974  0.00  0.00    +0.045 C 
ATOM      9  C   LIG    1       23.522 -21.564   7.497  0.00  0.00    +0.193 C 
ATOM     10  F   LIG    1       22.392 -22.296   7.250  0.00  0.00    -0.241 F 
ATOM     11  C   LIG    1       23.827 -20.739   6.278  0.00  0.00    -0.023 C 
ATOM     12  C   LIG    1       25.175 -20.919   5.612  0.00  0.00    +0.016 C 
ATOM     13  C   LIG    1       26.251 -20.170   6.444  0.00  0.00    +0.020 C 
ATOM     14  C   LIG    1       25.243 -20.262   4.246  0.00  0.00    -0.012 C 
ATOM     15  C   LIG    1       24.277 -19.480   3.733  0.00  0.00    +0.047 C 
ATOM     16  C   LIG    1       23.026 -19.224   4.484  0.00  0.00    +0.179 C 
ATOM     17  O   LIG    1       22.176 -18.455   4.069  0.00  0.00    -0.288 OA
ATOM     18  C   LIG    1       22.853 -19.954   5.754  0.00  0.00    +0.053 C 
ATOM     19  C   LIG    1       25.471 -22.466   5.522  0.00  0.00    +0.035 C 
ATOM     20  C   LIG    1       24.444 -23.286   4.688  0.00  0.00    +0.120 C 
ATOM     21  C   LIG    1       24.733 -24.798   4.689  0.00  0.00    +0.042 C 
ENDROOT
BRANCH   3  22
ATOM     22  O   LIG    1       25.454 -27.378   7.426  0.00  0.00    -0.380 OA
ATOM     23  H   LIG    1       26.140 -28.069   7.517  0.00  0.00    +0.211 HD
ENDBRANCH   3  22
BRANCH   3  24
ATOM     24  C   LIG    1       25.053 -27.809   5.043  0.00  0.00    +0.190 C 
ATOM     25  O   LIG    1       25.102 -27.566   3.832  0.00  0.00    -0.292 OA
BRANCH  24  26
ATOM     26  C   LIG    1       24.558 -29.161   5.535  0.00  0.00    +0.233 C 
BRANCH  26  27
ATOM     27  O   LIG    1       23.167 -29.291   5.277  0.00  0.00    -0.387 OA
ATOM     28  H   LIG    1       22.721 -29.266   6.145  0.00  0.00    +0.210 HD
ENDBRANCH  26  27
ENDBRANCH  24  26
ENDBRANCH   3  24
BRANCH  20  29
ATOM     29  O   LIG    1       24.446 -22.864   3.325  0.00  0.00    -0.391 OA
ATOM     30  H   LIG    1       23.693 -23.278   2.870  0.00  0.00    +0.210 HD
ENDBRANCH  20  29
TORSDOF 5
ENDMDL
MODEL 4
REMARK VINA RESULT:      -5.3      9.885     12.442
REMARK  Name = *****
REMARK                            x       y       z     vdW  Elec       q    Type
REMARK                         _______ _______ _______ _____ _____    ______ ____
ROOT
ATOM      1  C   LIG    1       23.716 -29.669   9.028  0.00  0.00    +0.015 C 
ATOM      2  C   LIG    1       24.807 -30.753   9.003  0.00  0.00    +0.009 C 
ATOM      3  C   LIG    1       24.715 -31.624   7.703  0.00  0.00    +0.132 C 
ATOM      4  C   LIG    1       25.526 -32.881   8.052  0.00  0.00    +0.043 C 
ATOM      5  C   LIG    1       25.406 -33.041   9.571  0.00  0.00    +0.007 C 
ATOM      6  C   LIG    1       24.580 -31.839  10.083  0.00  0.00    +0.002 C 
ATOM      7  C   LIG    1       24.929 -31.464  11.539  0.00  0.00    +0.002 C 
ATOM      8  C   LIG    1       23.749 -30.775  12.273  0.00  0.00    +0.045 C 
ATOM      9  C   LIG    1       24.033 -29.481  13.046  0.00  0.00    +0.193 C 
ATOM     10  F   LIG    1       23.663 -28.447  12.230  0.00  0.00    -0.241 F 
ATOM     11  C   LIG    1       25.443 -29.239  13.507  0.00  0.00    -0.023 C 
ATOM     12  C   LIG    1       26.487 -30.293  13.200  0.00  0.00    +0.016 C 
ATOM     13  C   LIG    1       26.316 -31.474  14.194  0.00  0.00    +0.020 C 
ATOM     14  C   LIG    1       27.901 -29.803  13.450  0.00  0.00    -0.012 C 
ATOM     15  C   LIG    1       28.204 -28.623  14.019  0.00  0.00    +0.047 C 
ATOM     16  C   LIG    1       27.138 -27.678  14.426  0.00  0.00    +0.179 C 
ATOM     17  O   LIG    1       27.392 -26.642  15.014  0.00  0.00    -0.288 OA
ATOM     18  C   LIG    1       25.754 -28.048  14.075  0.00  0.00    +0.053 C 
ATOM     19  C   LIG    1       26.292 -30.749  11.703  0.00  0.00    +0.035 C 
ATOM     20  C   LIG    1       26.464 -29.623  10.642  0.00  0.00    +0.120 C 
ATOM     21  C   LIG    1       26.194 -30.099   9.204  0.00  0.00    +0.042 C 
ENDROOT
BRANCH   3  22
ATOM     22  O   LIG    1       23.359 -32.052   7.525  0.00  0.00    -0.380 OA
ATOM     23  H   LIG    1       23.364 -33.004   7.301  0.00  0.00    +0.211 HD
ENDBRANCH   3  22
BRANCH   3  24
ATOM     24  C   LIG    1       25.246 -30.930   6.428  0.00  0.00    +0.190 C 
ATOM     25  O   LIG    1       26.164 -31.400   5.747  0.00  0.00    -0.292 OA
BRANCH  24  26
ATOM     26  C   LIG    1       24.534 -29.661   5.984  0.00  0.00    +0.233 C 
BRANCH  26  27
ATOM     27  O   LIG    1       23.213 -29.970   5.559  0.00  0.00    -0.387 OA
ATOM     28  H   LIG    1       23.208 -29.880   4.587  0.00  0.00    +0.210 HD
ENDBRANCH  26  27
ENDBRANCH  24  26
ENDBRANCH   3  24
BRANCH  20  29
ATOM     29  O   LIG    1       27.794 -29.105  10.665  0.00  0.00    -0.391 OA
ATOM     30  H   LIG    1       27.786 -28.250  11.126  0.00  0.00    +0.210 HD
ENDBRANCH  20  29
TORSDOF 5
ENDMDL
MODEL 5
REMARK VINA RESULT:      -5.2     10.631     12.892
REMARK  Name = *****
REMARK                            x       y       z     vdW  Elec       q    Type
REMARK                         _______ _______ _______ _____ _____    ______ ____
ROOT
ATOM      1  C   LIG    1       25.247 -32.700   9.198  0.00  0.00    +0.015 C 
ATOM      2  C   LIG    1       24.798 -31.352   8.609  0.00  0.00    +0.009 C 
ATOM      3  C   LIG    1       25.267 -31.194   7.122  0.00  0.00    +0.132 C 
ATOM      4  C   LIG    1       25.154 -29.685   6.865  0.00  0.00    +0.043 C 
ATOM      5  C   LIG    1       25.362 -29.016   8.228  0.00  0.00    +0.007 C 
ATOM      6  C   LIG    1       25.530 -30.153   9.262  0.00  0.00    +0.002 C 
ATOM      7  C   LIG    1       25.071 -29.735  10.675  0.00  0.00    +0.002 C 
ATOM      8  C   LIG    1       25.797 -30.527  11.793  0.00  0.00    +0.045 C 
ATOM      9  C   LIG    1       24.949 -31.147  12.910  0.00  0.00    +0.193 C 
ATOM     10  F   LIG    1       24.772 -32.465  12.585  0.00  0.00    -0.241 F 
ATOM     11  C   LIG    1       23.600 -30.541  13.180  0.00  0.00    -0.023 C 
ATOM     12  C   LIG    1       23.173 -29.348  12.351  0.00  0.00    +0.016 C 
ATOM     13  C   LIG    1       23.899 -28.081  12.880  0.00  0.00    +0.020 C 
ATOM     14  C   LIG    1       21.700 -29.022  12.512  0.00  0.00    -0.012 C 
ATOM     15  C   LIG    1       20.885 -29.621  13.398  0.00  0.00    +0.047 C 
ATOM     16  C   LIG    1       21.385 -30.697  14.285  0.00  0.00    +0.179 C 
ATOM     17  O   LIG    1       20.681 -31.194  15.148  0.00  0.00    -0.288 OA
ATOM     18  C   LIG    1       22.773 -31.146  14.068  0.00  0.00    +0.053 C 
ATOM     19  C   LIG    1       23.534 -29.648  10.845  0.00  0.00    +0.035 C 
ATOM     20  C   LIG    1       22.832 -30.895  10.234  0.00  0.00    +0.120 C 
ATOM     21  C   LIG    1       23.271 -31.190   8.789  0.00  0.00    +0.042 C 
ENDROOT
BRANCH   3  22
ATOM     22  O   LIG    1       26.662 -31.517   7.039  0.00  0.00    -0.380 OA
ATOM     23  H   LIG    1       27.125 -30.768   6.614  0.00  0.00    +0.211 HD
ENDBRANCH   3  22
BRANCH   3  24
ATOM     24  C   LIG    1       24.449 -32.017   6.101  0.00  0.00    +0.190 C 
ATOM     25  O   LIG    1       23.305 -31.703   5.757  0.00  0.00    -0.292 OA
BRANCH  24  26
ATOM     26  C   LIG    1       25.143 -33.211   5.461  0.00  0.00    +0.233 C 
BRANCH  26  27
ATOM     27  O   LIG    1       26.080 -32.763   4.491  0.00  0.00    -0.387 OA
ATOM     28  H   LIG    1       26.720 -32.198   4.965  0.00  0.00    +0.210 HD
ENDBRANCH  26  27
ENDBRANCH  24  26
ENDBRANCH   3  24
BRANCH  20  29
ATOM     29  O   LIG    1       21.416 -30.718  10.211  0.00  0.00    -0.391 OA
ATOM     30  H   LIG    1       21.198 -30.048   9.542  0.00  0.00    +0.210 HD
ENDBRANCH  20  29
TORSDOF 5
ENDMDL
MODEL 6
REMARK VINA RESULT:      -5.1      9.163     10.981
REMARK  Name = *****
REMARK                            x       y       z     vdW  Elec       q    Type
REMARK                         _______ _______ _______ _____ _____    ______ ____
ROOT
ATOM      1  C   LIG    1       26.678 -29.207  13.908  0.00  0.00    +0.015 C 
ATOM      2  C   LIG    1       25.785 -28.134  13.263  0.00  0.00    +0.009 C 
ATOM      3  C   LIG    1       25.706 -26.846  14.152  0.00  0.00    +0.132 C 
ATOM      4  C   LIG    1       24.466 -26.114  13.619  0.00  0.00    +0.043 C 
ATOM      5  C   LIG    1       23.544 -27.208  13.071  0.00  0.00    +0.007 C 
ATOM      6  C   LIG    1       24.293 -28.549  13.239  0.00  0.00    +0.002 C 
ATOM      7  C   LIG    1       23.872 -29.594  12.184  0.00  0.00    +0.002 C 
ATOM      8  C   LIG    1       24.060 -31.050  12.683  0.00  0.00    +0.045 C 
ATOM      9  C   LIG    1       24.777 -32.045  11.762  0.00  0.00    +0.193 C 
ATOM     10  F   LIG    1       26.076 -32.110  12.188  0.00  0.00    -0.241 F 
ATOM     11  C   LIG    1       24.777 -31.756  10.287  0.00  0.00    -0.023 C 
ATOM     12  C   LIG    1       24.053 -30.517   9.802  0.00  0.00    +0.016 C 
ATOM     13  C   LIG    1       22.526 -30.797   9.794  0.00  0.00    +0.020 C 
ATOM     14  C   LIG    1       24.374 -30.183   8.357  0.00  0.00    -0.012 C 
ATOM     15  C   LIG    1       25.098 -30.968   7.541  0.00  0.00    +0.047 C 
ATOM     16  C   LIG    1       25.676 -32.242   8.027  0.00  0.00    +0.179 C 
ATOM     17  O   LIG    1       26.267 -33.004   7.281  0.00  0.00    -0.288 OA
ATOM     18  C   LIG    1       25.511 -32.542   9.462  0.00  0.00    +0.053 C 
ATOM     19  C   LIG    1       24.429 -29.325  10.765  0.00  0.00    +0.035 C 
ATOM     20  C   LIG    1       25.944 -28.971  10.816  0.00  0.00    +0.120 C 
ATOM     21  C   LIG    1       26.270 -27.853  11.821  0.00  0.00    +0.042 C 
ENDROOT
BRANCH   3  22
ATOM     22  O   LIG    1       25.403 -27.230  15.500  0.00  0.00    -0.380 OA
ATOM     23  H   LIG    1       25.816 -26.582  16.104  0.00  0.00    +0.211 HD
ENDBRANCH   3  22
BRANCH   3  24
ATOM     24  C   LIG    1       26.969 -25.956  14.103  0.00  0.00    +0.190 C 
ATOM     25  O   LIG    1       27.160 -25.121  13.213  0.00  0.00    -0.292 OA
BRANCH  24  26
ATOM     26  C   LIG    1       27.953 -26.087  15.256  0.00  0.00    +0.233 C 
BRANCH  26  27
ATOM     27  O   LIG    1       29.266 -26.292  14.752  0.00  0.00    -0.387 OA
ATOM     28  H   LIG    1       29.857 -26.333  15.528  0.00  0.00    +0.210 HD
ENDBRANCH  26  27
ENDBRANCH  24  26
ENDBRANCH   3  24
BRANCH  20  29
ATOM     29  O   LIG    1       26.403 -28.529   9.539  0.00  0.00    -0.391 OA
ATOM     30  H   LIG    1       27.164 -29.074   9.277  0.00  0.00    +0.210 HD
ENDBRANCH  20  29
TORSDOF 5
ENDMDL
MODEL 7
REMARK VINA RESULT:      -5.1     10.024     12.205
REMARK  Name = *****
REMARK                            x       y       z     vdW  Elec       q    Type
REMARK                         _______ _______ _______ _____ _____    ______ ____
ROOT
ATOM      1  C   LIG    1       25.538 -31.523  12.249  0.00  0.00    +0.015 C 
ATOM      2  C   LIG    1       25.470 -30.317  11.298  0.00  0.00    +0.009 C 
ATOM      3  C   LIG    1       26.495 -30.461  10.121  0.00  0.00    +0.132 C 
ATOM      4  C   LIG    1       26.619 -29.032   9.572  0.00  0.00    +0.043 C 
ATOM      5  C   LIG    1       26.333 -28.107  10.760  0.00  0.00    +0.007 C 
ATOM      6  C   LIG    1       25.987 -29.016  11.961  0.00  0.00    +0.002 C 
ATOM      7  C   LIG    1       25.049 -28.323  12.972  0.00  0.00    +0.002 C 
ATOM      8  C   LIG    1       25.211 -28.881  14.410  0.00  0.00    +0.045 C 
ATOM      9  C   LIG    1       23.945 -29.262  15.187  0.00  0.00    +0.193 C 
ATOM     10  F   LIG    1       23.799 -30.617  15.061  0.00  0.00    -0.241 F 
ATOM     11  C   LIG    1       22.654 -28.607  14.781  0.00  0.00    -0.023 C 
ATOM     12  C   LIG    1       22.688 -27.601  13.650  0.00  0.00    +0.016 C 
ATOM     13  C   LIG    1       23.253 -26.258  14.188  0.00  0.00    +0.020 C 
ATOM     14  C   LIG    1       21.302 -27.241  13.147  0.00  0.00    -0.012 C 
ATOM     15  C   LIG    1       20.158 -27.647  13.726  0.00  0.00    +0.047 C 
ATOM     16  C   LIG    1       20.179 -28.528  14.916  0.00  0.00    +0.179 C 
ATOM     17  O   LIG    1       19.155 -28.839  15.500  0.00  0.00    -0.288 OA
ATOM     18  C   LIG    1       21.498 -29.018  15.357  0.00  0.00    +0.053 C 
ATOM     19  C   LIG    1       23.582 -28.196  12.495  0.00  0.00    +0.035 C 
ATOM     20  C   LIG    1       23.072 -29.536  11.889  0.00  0.00    +0.120 C 
ATOM     21  C   LIG    1       24.014 -30.114  10.819  0.00  0.00    +0.042 C 
ENDROOT
BRANCH   3  22
ATOM     22  O   LIG    1       27.779 -30.801  10.661  0.00  0.00    -0.380 OA
ATOM     23  H   LIG    1       28.067 -30.075  11.249  0.00  0.00    +0.211 HD
ENDBRANCH   3  22
BRANCH   3  24
ATOM     24  C   LIG    1       26.075 -31.466   9.024  0.00  0.00    +0.190 C 
ATOM     25  O   LIG    1       25.076 -31.299   8.316  0.00  0.00    -0.292 OA
BRANCH  24  26
ATOM     26  C   LIG    1       26.995 -32.654   8.786  0.00  0.00    +0.233 C 
BRANCH  26  27
ATOM     27  O   LIG    1       26.841 -33.604   9.833  0.00  0.00    -0.387 OA
ATOM     28  H   LIG    1       26.941 -33.111  10.669  0.00  0.00    +0.210 HD
ENDBRANCH  26  27
ENDBRANCH  24  26
ENDBRANCH   3  24
BRANCH  20  29
ATOM     29  O   LIG    1       21.798 -29.359  11.271  0.00  0.00    -0.391 OA
ATOM     30  H   LIG    1       21.352 -30.221  11.227  0.00  0.00    +0.210 HD
ENDBRANCH  20  29
TORSDOF 5
ENDMDL
MODEL 8
REMARK VINA RESULT:      -5.0      9.331     10.936
REMARK  Name = *****
REMARK                            x       y       z     vdW  Elec       q    Type
REMARK                         _______ _______ _______ _____ _____    ______ ____
ROOT
ATOM      1  C   LIG    1       26.329 -27.822  11.715  0.00  0.00    +0.015 C 
ATOM      2  C   LIG    1       25.859 -27.769  13.179  0.00  0.00    +0.009 C 
ATOM      3  C   LIG    1       26.848 -26.938  14.066  0.00  0.00    +0.132 C 
ATOM      4  C   LIG    1       26.499 -27.368  15.498  0.00  0.00    +0.043 C 
ATOM      5  C   LIG    1       25.963 -28.799  15.380  0.00  0.00    +0.007 C 
ATOM      6  C   LIG    1       25.953 -29.150  13.875  0.00  0.00    +0.002 C 
ATOM      7  C   LIG    1       24.868 -30.189  13.521  0.00  0.00    +0.002 C 
ATOM      8  C   LIG    1       25.233 -31.023  12.266  0.00  0.00    +0.045 C 
ATOM      9  C   LIG    1       24.171 -31.187  11.170  0.00  0.00    +0.193 C 
ATOM     10  F   LIG    1       24.460 -30.264  10.202  0.00  0.00    -0.241 F 
ATOM     11  C   LIG    1       22.730 -31.024  11.565  0.00  0.00    -0.023 C 
ATOM     12  C   LIG    1       22.416 -30.731  13.017  0.00  0.00    +0.016 C 
ATOM     13  C   LIG    1       22.539 -32.046  13.834  0.00  0.00    +0.020 C 
ATOM     14  C   LIG    1       20.976 -30.300  13.227  0.00  0.00    -0.012 C 
ATOM     15  C   LIG    1       20.034 -30.315  12.268  0.00  0.00    +0.047 C 
ATOM     16  C   LIG    1       20.362 -30.739  10.887  0.00  0.00    +0.179 C 
ATOM     17  O   LIG    1       19.504 -30.834  10.026  0.00  0.00    -0.288 OA
ATOM     18  C   LIG    1       21.778 -31.031  10.600  0.00  0.00    +0.053 C 
ATOM     19  C   LIG    1       23.425 -29.628  13.521  0.00  0.00    +0.035 C 
ATOM     20  C   LIG    1       23.352 -28.271  12.762  0.00  0.00    +0.120 C 
ATOM     21  C   LIG    1       24.403 -27.253  13.239  0.00  0.00    +0.042 C 
ENDROOT
BRANCH   3  22
ATOM     22  O   LIG    1       28.186 -27.391  13.820  0.00  0.00    -0.380 OA
ATOM     23  H   LIG    1       28.748 -26.610  13.646  0.00  0.00    +0.211 HD
ENDBRANCH   3  22
BRANCH   3  24
ATOM     24  C   LIG    1       26.742 -25.407  13.881  0.00  0.00    +0.190 C 
ATOM     25  O   LIG    1       27.119 -24.832  12.854  0.00  0.00    -0.292 OA
BRANCH  24  26
ATOM     26  C   LIG    1       26.071 -24.621  14.998  0.00  0.00    +0.233 C 
BRANCH  26  27
ATOM     27  O   LIG    1       26.186 -23.227  14.746  0.00  0.00    -0.387 OA
ATOM     28  H   LIG    1       25.670 -23.049  13.936  0.00  0.00    +0.210 HD
ENDBRANCH  26  27
ENDBRANCH  24  26
ENDBRANCH   3  24
BRANCH  20  29
ATOM     29  O   LIG    1       22.074 -27.661  12.937  0.00  0.00    -0.391 OA
ATOM     30  H   LIG    1       21.594 -27.698  12.092  0.00  0.00    +0.210 HD
ENDBRANCH  20  29
TORSDOF 5
ENDMDL
MODEL 9
REMARK VINA RESULT:      -4.7     11.206     13.001
REMARK  Name = *****
REMARK                            x       y       z     vdW  Elec       q    Type
REMARK                         _______ _______ _______ _____ _____    ______ ____
ROOT
ATOM      1  C   LIG    1       22.692 -27.795  12.880  0.00  0.00    +0.015 C 
ATOM      2  C   LIG    1       21.999 -29.120  13.241  0.00  0.00    +0.009 C 
ATOM      3  C   LIG    1       21.012 -28.939  14.445  0.00  0.00    +0.132 C 
ATOM      4  C   LIG    1       20.785 -30.372  14.946  0.00  0.00    +0.043 C 
ATOM      5  C   LIG    1       22.064 -31.140  14.595  0.00  0.00    +0.007 C 
ATOM      6  C   LIG    1       22.984 -30.153  13.840  0.00  0.00    +0.002 C 
ATOM      7  C   LIG    1       23.934 -30.870  12.857  0.00  0.00    +0.002 C 
ATOM      8  C   LIG    1       25.240 -30.073  12.606  0.00  0.00    +0.045 C 
ATOM      9  C   LIG    1       25.695 -29.865  11.156  0.00  0.00    +0.193 C 
ATOM     10  F   LIG    1       25.283 -28.613  10.790  0.00  0.00    -0.241 F 
ATOM     11  C   LIG    1       25.209 -30.845  10.125  0.00  0.00    -0.023 C 
ATOM     12  C   LIG    1       24.321 -31.983  10.584  0.00  0.00    +0.016 C 
ATOM     13  C   LIG    1       25.203 -33.066  11.264  0.00  0.00    +0.020 C 
ATOM     14  C   LIG    1       23.667 -32.715   9.426  0.00  0.00    -0.012 C 
ATOM     15  C   LIG    1       23.948 -32.487   8.131  0.00  0.00    +0.047 C 
ATOM     16  C   LIG    1       24.927 -31.449   7.736  0.00  0.00    +0.179 C 
ATOM     17  O   LIG    1       25.252 -31.284   6.573  0.00  0.00    -0.288 OA
ATOM     18  C   LIG    1       25.484 -30.615   8.818  0.00  0.00    +0.053 C 
ATOM     19  C   LIG    1       23.245 -31.393  11.573  0.00  0.00    +0.035 C 
ATOM     20  C   LIG    1       22.309 -30.310  10.961  0.00  0.00    +0.120 C 
ATOM     21  C   LIG    1       21.325 -29.713  11.982  0.00  0.00    +0.042 C 
ENDROOT
BRANCH   3  22
ATOM     22  O   LIG    1       21.689 -28.242  15.500  0.00  0.00    -0.380 OA
ATOM     23  H   LIG    1       22.633 -28.496  15.479  0.00  0.00    +0.211 HD
ENDBRANCH   3  22
BRANCH   3  24
ATOM     24  C   LIG    1       19.684 -28.236  14.084  0.00  0.00    +0.190 C 
ATOM     25  O   LIG    1       18.620 -28.851  13.950  0.00  0.00    -0.292 OA
BRANCH  24  26
ATOM     26  C   LIG    1       19.712 -26.718  13.974  0.00  0.00    +0.233 C 
BRANCH  26  27
ATOM     27  O   LIG    1       19.412 -26.135  15.235  0.00  0.00    -0.387 OA
ATOM     28  H   LIG    1       18.983 -25.278  15.048  0.00  0.00    +0.210 HD
ENDBRANCH  26  27
ENDBRANCH  24  26
ENDBRANCH   3  24
BRANCH  20  29
ATOM     29  O   LIG    1       21.526 -30.860   9.901  0.00  0.00    -0.391 OA
ATOM     30  H   LIG    1       20.721 -30.325   9.801  0.00  0.00    +0.210 HD
ENDBRANCH  20  29
TORSDOF 5
ENDMDL
