MODEL 1
REMARK VINA RESULT:      -9.4      0.000      0.000
REMARK  Name = *****
REMARK                            x       y       z     vdW  Elec       q    Type
REMARK                         _______ _______ _______ _____ _____    ______ ____
ROOT
ATOM      1  C   LIG    1       25.309 -20.454   5.262  0.00  0.00    +0.061 A 
ATOM      2  C   LIG    1       24.187 -20.728   6.052  0.00  0.00    +0.152 A 
ATOM      3  C   LIG    1       22.948 -20.208   5.695  0.00  0.00    +0.141 A 
ATOM      4  N   LIG    1       22.752 -19.397   4.633  0.00  0.00    -0.261 NA
ATOM      5  C   LIG    1       23.840 -19.110   3.892  0.00  0.00    +0.112 A 
ATOM      6  C   LIG    1       25.104 -19.617   4.154  0.00  0.00    +0.045 A 
ENDROOT
BRANCH   2   7
ATOM      7  S   LIG    1       24.235 -21.640   7.560  0.00  0.00    +0.106 S 
ATOM      8  O   LIG    1       22.888 -21.671   8.111  0.00  0.00    -0.146 OA
ATOM      9  O   LIG    1       25.311 -21.072   8.351  0.00  0.00    -0.146 OA
BRANCH   7  10
ATOM     10  N   LIG    1       24.660 -23.112   7.071  0.00  0.00    -0.076 NA
ATOM     11  C   LIG    1       23.838 -24.016   6.686  0.00  0.00    +0.299 C 
BRANCH  11  12
ATOM     12  N   LIG    1       24.175 -25.256   6.264  0.00  0.00    -0.296 N 
ATOM     13  H   LIG    1       23.425 -25.937   6.252  0.00  0.00    +0.151 HD
BRANCH  12  14
ATOM     14  C   LIG    1       25.518 -25.717   5.980  0.00  0.00    +0.068 C 
ATOM     15  C   LIG    1       25.542 -26.381   4.607  0.00  0.00    +0.027 C 
ATOM     16  C   LIG    1       25.952 -26.694   7.066  0.00  0.00    +0.027 C 
ENDBRANCH  12  14
ENDBRANCH  11  12
BRANCH  11  17
ATOM     17  O   LIG    1       22.504 -23.888   6.632  0.00  0.00    -0.481 OA
ATOM     18  H   LIG    1       22.101 -23.796   7.517  0.00  0.00    +0.295 HD
ENDBRANCH  11  17
ENDBRANCH   7  10
ENDBRANCH   2   7
BRANCH   1  19
ATOM     19  N   LIG    1       26.587 -20.979   5.531  0.00  0.00    -0.313 N 
ATOM     20  H   LIG    1       26.634 -21.997   5.622  0.00  0.00    +0.152 HD
BRANCH  19  24
ATOM     21  C   LIG    1       30.601 -20.819   8.476  0.00  0.00    +0.044 C 
ATOM     22  C   LIG    1       29.756 -20.228   7.388  0.00  0.00    -0.049 A 
ATOM     23  C   LIG    1       28.579 -20.877   6.983  0.00  0.00    +0.026 A 
ATOM     24  C   LIG    1       27.779 -20.361   5.957  0.00  0.00    +0.032 A 
ATOM     25  C   LIG    1       28.167 -19.159   5.351  0.00  0.00    +0.023 A 
ATOM     26  C   LIG    1       29.328 -18.496   5.752  0.00  0.00    +0.002 A 
ATOM     27  C   LIG    1       30.121 -19.030   6.767  0.00  0.00    +0.003 A 
ENDBRANCH  19  24
ENDBRANCH   1  19
TORSDOF 7
ENDMDL
MODEL 2
REMARK VINA RESULT:      -8.6      1.663      6.021
REMARK  Name = *****
REMARK                            x       y       z     vdW  Elec       q    Type
REMARK                         _______ _______ _______ _____ _____    ______ ____
ROOT
ATOM      1  C   LIG    1       24.006 -23.332   6.342  0.00  0.00    +0.061 A 
ATOM      2  C   LIG    1       25.137 -23.212   7.158  0.00  0.00    +0.152 A 
ATOM      3  C   LIG    1       25.940 -24.322   7.390  0.00  0.00    +0.141 A 
ATOM      4  N   LIG    1       25.674 -25.556   6.908  0.00  0.00    -0.261 NA
ATOM      5  C   LIG    1       24.568 -25.674   6.149  0.00  0.00    +0.112 A 
ATOM      6  C   LIG    1       23.733 -24.612   5.836  0.00  0.00    +0.045 A 
ENDROOT
BRANCH   2   7
ATOM      7  S   LIG    1       25.594 -21.738   8.009  0.00  0.00    +0.106 S 
ATOM      8  O   LIG    1       26.240 -22.119   9.256  0.00  0.00    -0.146 OA
ATOM      9  O   LIG    1       24.408 -20.902   8.053  0.00  0.00    -0.146 OA
BRANCH   7  10
ATOM     10  N   LIG    1       26.671 -21.074   7.015  0.00  0.00    -0.076 NA
ATOM     11  C   LIG    1       27.926 -20.983   7.259  0.00  0.00    +0.299 C 
BRANCH  11  12
ATOM     12  N   LIG    1       28.848 -20.437   6.434  0.00  0.00    -0.296 N 
ATOM     13  H   LIG    1       29.195 -21.040   5.698  0.00  0.00    +0.151 HD
BRANCH  12  14
ATOM     14  C   LIG    1       29.474 -19.142   6.606  0.00  0.00    +0.068 C 
ATOM     15  C   LIG    1       29.246 -18.303   5.352  0.00  0.00    +0.027 C 
ATOM     16  C   LIG    1       30.963 -19.337   6.867  0.00  0.00    +0.027 C 
ENDBRANCH  12  14
ENDBRANCH  11  12
BRANCH  11  17
ATOM     17  O   LIG    1       28.541 -21.419   8.368  0.00  0.00    -0.481 OA
ATOM     18  H   LIG    1       28.020 -21.245   9.176  0.00  0.00    +0.295 HD
ENDBRANCH  11  17
ENDBRANCH   7  10
ENDBRANCH   2   7
BRANCH   1  19
ATOM     19  N   LIG    1       23.169 -22.246   6.024  0.00  0.00    -0.313 N 
ATOM     20  H   LIG    1       22.182 -22.366   6.266  0.00  0.00    +0.152 HD
BRANCH  19  24
ATOM     21  C   LIG    1       21.953 -17.642   4.559  0.00  0.00    +0.044 C 
ATOM     22  C   LIG    1       22.807 -18.869   4.435  0.00  0.00    -0.049 A 
ATOM     23  C   LIG    1       22.580 -19.969   5.279  0.00  0.00    +0.026 A 
ATOM     24  C   LIG    1       23.373 -21.120   5.201  0.00  0.00    +0.032 A 
ATOM     25  C   LIG    1       24.391 -21.164   4.240  0.00  0.00    +0.023 A 
ATOM     26  C   LIG    1       24.619 -20.084   3.387  0.00  0.00    +0.002 A 
ATOM     27  C   LIG    1       23.830 -18.939   3.485  0.00  0.00    +0.003 A 
ENDBRANCH  19  24
ENDBRANCH   1  19
TORSDOF 7
ENDMDL
MODEL 3
REMARK VINA RESULT:      -8.4      1.960      5.919
REMARK  Name = *****
REMARK                            x       y       z     vdW  Elec       q    Type
REMARK                         _______ _______ _______ _____ _____    ______ ____
ROOT
ATOM      1  C   LIG    1       24.150 -23.055   6.570  0.00  0.00    +0.061 A 
ATOM      2  C   LIG    1       25.318 -22.986   7.339  0.00  0.00    +0.152 A 
ATOM      3  C   LIG    1       26.103 -24.121   7.503  0.00  0.00    +0.141 A 
ATOM      4  N   LIG    1       25.787 -25.333   6.997  0.00  0.00    -0.261 NA
ATOM      5  C   LIG    1       24.647 -25.402   6.284  0.00  0.00    +0.112 A 
ATOM      6  C   LIG    1       23.825 -24.312   6.038  0.00  0.00    +0.045 A 
ENDROOT
BRANCH   2   7
ATOM      7  S   LIG    1       25.846 -21.549   8.212  0.00  0.00    +0.106 S 
ATOM      8  O   LIG    1       25.437 -21.690   9.601  0.00  0.00    -0.146 OA
ATOM      9  O   LIG    1       25.379 -20.407   7.448  0.00  0.00    -0.146 OA
BRANCH   7  10
ATOM     10  N   LIG    1       27.449 -21.637   8.102  0.00  0.00    -0.076 NA
ATOM     11  C   LIG    1       28.132 -21.217   7.102  0.00  0.00    +0.299 C 
BRANCH  11  12
ATOM     12  N   LIG    1       29.480 -21.275   6.992  0.00  0.00    -0.296 N 
ATOM     13  H   LIG    1       29.846 -22.064   6.474  0.00  0.00    +0.151 HD
BRANCH  12  14
ATOM     14  C   LIG    1       30.421 -20.405   7.666  0.00  0.00    +0.068 C 
ATOM     15  C   LIG    1       31.025 -21.145   8.856  0.00  0.00    +0.027 C 
ATOM     16  C   LIG    1       29.698 -19.142   8.119  0.00  0.00    +0.027 C 
ENDBRANCH  12  14
ENDBRANCH  11  12
BRANCH  11  17
ATOM     17  O   LIG    1       27.632 -20.645   5.997  0.00  0.00    -0.481 OA
ATOM     18  H   LIG    1       27.679 -21.234   5.219  0.00  0.00    +0.295 HD
ENDBRANCH  11  17
ENDBRANCH   7  10
ENDBRANCH   2   7
BRANCH   1  19
ATOM     19  N   LIG    1       23.327 -21.941   6.320  0.00  0.00    -0.313 N 
ATOM     20  H   LIG    1       22.402 -21.972   6.757  0.00  0.00    +0.152 HD
BRANCH  19  24
ATOM     21  C   LIG    1       21.943 -17.478   4.594  0.00  0.00    +0.044 C 
ATOM     22  C   LIG    1       22.770 -18.724   4.478  0.00  0.00    -0.049 A 
ATOM     23  C   LIG    1       22.653 -19.735   5.444  0.00  0.00    +0.026 A 
ATOM     24  C   LIG    1       23.425 -20.901   5.375  0.00  0.00    +0.032 A 
ATOM     25  C   LIG    1       24.309 -21.051   4.299  0.00  0.00    +0.023 A 
ATOM     26  C   LIG    1       24.427 -20.059   3.325  0.00  0.00    +0.002 A 
ATOM     27  C   LIG    1       23.661 -18.898   3.415  0.00  0.00    +0.003 A 
ENDBRANCH  19  24
ENDBRANCH   1  19
TORSDOF 7
ENDMDL
MODEL 4
REMARK VINA RESULT:      -8.3      4.104      7.944
REMARK  Name = *****
REMARK                            x       y       z     vdW  Elec       q    Type
REMARK                         _______ _______ _______ _____ _____    ______ ____
ROOT
ATOM      1  C   LIG    1       28.342 -20.373   6.702  0.00  0.00    +0.061 A 
ATOM      2  C   LIG    1       29.559 -19.887   7.192  0.00  0.00    +0.152 A 
ATOM      3  C   LIG    1       30.155 -18.785   6.589  0.00  0.00    +0.141 A 
ATOM      4  N   LIG    1       29.651 -18.160   5.502  0.00  0.00    -0.261 NA
ATOM      5  C   LIG    1       28.496 -18.650   5.014  0.00  0.00    +0.112 A 
ATOM      6  C   LIG    1       27.815 -19.720   5.577  0.00  0.00    +0.045 A 
ENDROOT
BRANCH   2   7
ATOM      7  S   LIG    1       30.469 -20.634   8.504  0.00  0.00    +0.106 S 
ATOM      8  O   LIG    1       31.805 -20.932   8.013  0.00  0.00    -0.146 OA
ATOM      9  O   LIG    1       29.644 -21.714   9.015  0.00  0.00    -0.146 OA
BRANCH   7  10
ATOM     10  N   LIG    1       30.537 -19.459   9.601  0.00  0.00    -0.076 NA
ATOM     11  C   LIG    1       31.453 -18.563   9.651  0.00  0.00    +0.299 C 
BRANCH  11  12
ATOM     12  N   LIG    1       31.525 -17.563  10.559  0.00  0.00    -0.296 N 
ATOM     13  H   LIG    1       30.639 -17.222  10.910  0.00  0.00    +0.151 HD
BRANCH  12  14
ATOM     14  C   LIG    1       32.729 -16.859  10.947  0.00  0.00    +0.068 C 
ATOM     15  C   LIG    1       32.650 -16.506  12.429  0.00  0.00    +0.027 C 
ATOM     16  C   LIG    1       32.870 -15.603  10.094  0.00  0.00    +0.027 C 
ENDBRANCH  12  14
ENDBRANCH  11  12
BRANCH  11  17
ATOM     17  O   LIG    1       32.493 -18.460   8.810  0.00  0.00    -0.481 OA
ATOM     18  H   LIG    1       32.569 -17.568   8.419  0.00  0.00    +0.295 HD
ENDBRANCH  11  17
ENDBRANCH   7  10
ENDBRANCH   2   7
BRANCH   1  19
ATOM     19  N   LIG    1       27.654 -21.454   7.284  0.00  0.00    -0.313 N 
ATOM     20  H   LIG    1       28.245 -22.211   7.639  0.00  0.00    +0.152 HD
BRANCH  19  24
ATOM     21  C   LIG    1       24.072 -24.809   6.432  0.00  0.00    +0.044 C 
ATOM     22  C   LIG    1       24.499 -23.428   6.831  0.00  0.00    -0.049 A 
ATOM     23  C   LIG    1       25.864 -23.098   6.863  0.00  0.00    +0.026 A 
ATOM     24  C   LIG    1       26.295 -21.824   7.250  0.00  0.00    +0.032 A 
ATOM     25  C   LIG    1       25.329 -20.867   7.586  0.00  0.00    +0.023 A 
ATOM     26  C   LIG    1       23.969 -21.177   7.546  0.00  0.00    +0.002 A 
ATOM     27  C   LIG    1       23.555 -22.455   7.171  0.00  0.00    +0.003 A 
ENDBRANCH  19  24
ENDBRANCH   1  19
TORSDOF 7
ENDMDL
MODEL 5
REMARK VINA RESULT:      -8.1      2.050      6.047
REMARK  Name = *****
REMARK                            x       y       z     vdW  Elec       q    Type
REMARK                         _______ _______ _______ _____ _____    ______ ____
ROOT
ATOM      1  C   LIG    1       24.837 -22.368   6.113  0.00  0.00    +0.061 A 
ATOM      2  C   LIG    1       24.928 -21.454   7.168  0.00  0.00    +0.152 A 
ATOM      3  C   LIG    1       23.950 -20.479   7.322  0.00  0.00    +0.141 A 
ATOM      4  N   LIG    1       22.911 -20.317   6.474  0.00  0.00    -0.261 NA
ATOM      5  C   LIG    1       22.844 -21.179   5.442  0.00  0.00    +0.112 A 
ATOM      6  C   LIG    1       23.755 -22.204   5.235  0.00  0.00    +0.045 A 
ENDROOT
BRANCH   2   7
ATOM      7  S   LIG    1       26.272 -21.385   8.308  0.00  0.00    +0.106 S 
ATOM      8  O   LIG    1       26.538 -22.738   8.773  0.00  0.00    -0.146 OA
ATOM      9  O   LIG    1       25.939 -20.355   9.276  0.00  0.00    -0.146 OA
BRANCH   7  10
ATOM     10  N   LIG    1       27.489 -20.872   7.390  0.00  0.00    -0.076 NA
ATOM     11  C   LIG    1       28.729 -21.017   7.679  0.00  0.00    +0.299 C 
BRANCH  11  12
ATOM     12  N   LIG    1       29.767 -20.599   6.918  0.00  0.00    -0.296 N 
ATOM     13  H   LIG    1       30.321 -21.330   6.490  0.00  0.00    +0.151 HD
BRANCH  12  14
ATOM     14  C   LIG    1       30.227 -19.232   6.793  0.00  0.00    +0.068 C 
ATOM     15  C   LIG    1       30.078 -18.526   8.137  0.00  0.00    +0.027 C 
ATOM     16  C   LIG    1       29.414 -18.528   5.713  0.00  0.00    +0.027 C 
ENDBRANCH  12  14
ENDBRANCH  11  12
BRANCH  11  17
ATOM     17  O   LIG    1       29.211 -21.610   8.781  0.00  0.00    -0.481 OA
ATOM     18  H   LIG    1       28.523 -22.097   9.274  0.00  0.00    +0.295 HD
ENDBRANCH  11  17
ENDBRANCH   7  10
ENDBRANCH   2   7
BRANCH   1  19
ATOM     19  N   LIG    1       25.763 -23.411   5.916  0.00  0.00    -0.313 N 
ATOM     20  H   LIG    1       26.668 -23.128   5.533  0.00  0.00    +0.152 HD
BRANCH  19  24
ATOM     21  C   LIG    1       26.156 -27.862   8.117  0.00  0.00    +0.044 C 
ATOM     22  C   LIG    1       25.789 -27.019   6.932  0.00  0.00    -0.049 A 
ATOM     23  C   LIG    1       25.954 -25.626   6.985  0.00  0.00    +0.026 A 
ATOM     24  C   LIG    1       25.602 -24.811   5.903  0.00  0.00    +0.032 A 
ATOM     25  C   LIG    1       25.101 -25.419   4.746  0.00  0.00    +0.023 A 
ATOM     26  C   LIG    1       24.944 -26.804   4.674  0.00  0.00    +0.002 A 
ATOM     27  C   LIG    1       25.286 -27.602   5.765  0.00  0.00    +0.003 A 
ENDBRANCH  19  24
ENDBRANCH   1  19
TORSDOF 7
ENDMDL
MODEL 6
REMARK VINA RESULT:      -8.1      1.634      4.497
REMARK  Name = *****
REMARK                            x       y       z     vdW  Elec       q    Type
REMARK                         _______ _______ _______ _____ _____    ______ ____
ROOT
ATOM      1  C   LIG    1       27.797 -19.908   5.761  0.00  0.00    +0.061 A 
ATOM      2  C   LIG    1       27.730 -20.226   7.122  0.00  0.00    +0.152 A 
ATOM      3  C   LIG    1       28.685 -19.720   7.996  0.00  0.00    +0.141 A 
ATOM      4  N   LIG    1       29.730 -18.957   7.607  0.00  0.00    -0.261 NA
ATOM      5  C   LIG    1       29.809 -18.679   6.292  0.00  0.00    +0.112 A 
ATOM      6  C   LIG    1       28.879 -19.110   5.358  0.00  0.00    +0.045 A 
ENDROOT
BRANCH   2   7
ATOM      7  S   LIG    1       26.542 -21.321   7.828  0.00  0.00    +0.106 S 
ATOM      8  O   LIG    1       25.238 -20.681   7.749  0.00  0.00    -0.146 OA
ATOM      9  O   LIG    1       27.062 -21.713   9.125  0.00  0.00    -0.146 OA
BRANCH   7  10
ATOM     10  N   LIG    1       26.592 -22.586   6.836  0.00  0.00    -0.076 NA
ATOM     11  C   LIG    1       25.614 -23.387   6.629  0.00  0.00    +0.299 C 
BRANCH  11  12
ATOM     12  N   LIG    1       25.633 -24.451   5.795  0.00  0.00    -0.296 N 
ATOM     13  H   LIG    1       25.631 -24.236   4.805  0.00  0.00    +0.151 HD
BRANCH  12  14
ATOM     14  C   LIG    1       25.506 -25.838   6.190  0.00  0.00    +0.068 C 
ATOM     15  C   LIG    1       26.655 -26.640   5.586  0.00  0.00    +0.027 C 
ATOM     16  C   LIG    1       24.160 -26.373   5.715  0.00  0.00    +0.027 C 
ENDBRANCH  12  14
ENDBRANCH  11  12
BRANCH  11  17
ATOM     17  O   LIG    1       24.402 -23.306   7.200  0.00  0.00    -0.481 OA
ATOM     18  H   LIG    1       24.402 -23.632   8.121  0.00  0.00    +0.295 HD
ENDBRANCH  11  17
ENDBRANCH   7  10
ENDBRANCH   2   7
BRANCH   1  19
ATOM     19  N   LIG    1       26.844 -20.344   4.822  0.00  0.00    -0.313 N 
ATOM     20  H   LIG    1       27.198 -20.971   4.094  0.00  0.00    +0.152 HD
BRANCH  19  24
ATOM     21  C   LIG    1       21.896 -20.911   4.938  0.00  0.00    +0.044 C 
ATOM     22  C   LIG    1       23.111 -20.124   4.547  0.00  0.00    -0.049 A 
ATOM     23  C   LIG    1       24.391 -20.607   4.864  0.00  0.00    +0.026 A 
ATOM     24  C   LIG    1       25.544 -19.886   4.529  0.00  0.00    +0.032 A 
ATOM     25  C   LIG    1       25.396 -18.673   3.846  0.00  0.00    +0.023 A 
ATOM     26  C   LIG    1       24.130 -18.187   3.513  0.00  0.00    +0.002 A 
ATOM     27  C   LIG    1       22.991 -18.910   3.865  0.00  0.00    +0.003 A 
ENDBRANCH  19  24
ENDBRANCH   1  19
TORSDOF 7
ENDMDL
MODEL 7
REMARK VINA RESULT:      -8.0      1.649      2.111
REMARK  Name = *****
REMARK                            x       y       z     vdW  Elec       q    Type
REMARK                         _______ _______ _______ _____ _____    ______ ____
ROOT
ATOM      1  C   LIG    1       26.989 -20.446   6.338  0.00  0.00    +0.061 A 
ATOM      2  C   LIG    1       25.701 -20.968   6.499  0.00  0.00    +0.152 A 
ATOM      3  C   LIG    1       24.730 -20.715   5.537  0.00  0.00    +0.141 A 
ATOM      4  N   LIG    1       24.934 -19.942   4.448  0.00  0.00    -0.261 NA
ATOM      5  C   LIG    1       26.166 -19.417   4.312  0.00  0.00    +0.112 A 
ATOM      6  C   LIG    1       27.204 -19.649   5.203  0.00  0.00    +0.045 A 
ENDROOT
BRANCH   2   7
ATOM      7  S   LIG    1       25.169 -21.879   7.911  0.00  0.00    +0.106 S 
ATOM      8  O   LIG    1       23.715 -21.936   7.889  0.00  0.00    -0.146 OA
ATOM      9  O   LIG    1       25.839 -21.292   9.057  0.00  0.00    -0.146 OA
BRANCH   7  10
ATOM     10  N   LIG    1       25.778 -23.343   7.637  0.00  0.00    -0.076 NA
ATOM     11  C   LIG    1       25.281 -24.196   6.821  0.00  0.00    +0.299 C 
BRANCH  11  12
ATOM     12  N   LIG    1       25.781 -25.428   6.571  0.00  0.00    -0.296 N 
ATOM     13  H   LIG    1       26.666 -25.643   7.014  0.00  0.00    +0.151 HD
BRANCH  12  14
ATOM     14  C   LIG    1       25.242 -26.383   5.626  0.00  0.00    +0.068 C 
ATOM     15  C   LIG    1       24.397 -27.410   6.374  0.00  0.00    +0.027 C 
ATOM     16  C   LIG    1       26.392 -27.059   4.886  0.00  0.00    +0.027 C 
ENDBRANCH  12  14
ENDBRANCH  11  12
BRANCH  11  17
ATOM     17  O   LIG    1       24.184 -24.014   6.071  0.00  0.00    -0.481 OA
ATOM     18  H   LIG    1       23.820 -24.855   5.732  0.00  0.00    +0.295 HD
ENDBRANCH  11  17
ENDBRANCH   7  10
ENDBRANCH   2   7
BRANCH   1  19
ATOM     19  N   LIG    1       28.038 -20.694   7.243  0.00  0.00    -0.313 N 
ATOM     20  H   LIG    1       27.892 -21.481   7.881  0.00  0.00    +0.152 HD
BRANCH  19  24
ATOM     21  C   LIG    1       30.215 -17.406  10.288  0.00  0.00    +0.044 C 
ATOM     22  C   LIG    1       30.255 -18.291   9.078  0.00  0.00    -0.049 A 
ATOM     23  C   LIG    1       29.134 -19.062   8.735  0.00  0.00    +0.026 A 
ATOM     24  C   LIG    1       29.148 -19.912   7.623  0.00  0.00    +0.032 A 
ATOM     25  C   LIG    1       30.305 -19.961   6.836  0.00  0.00    +0.023 A 
ATOM     26  C   LIG    1       31.423 -19.189   7.158  0.00  0.00    +0.002 A 
ATOM     27  C   LIG    1       31.399 -18.357   8.276  0.00  0.00    +0.003 A 
ENDBRANCH  19  24
ENDBRANCH   1  19
TORSDOF 7
ENDMDL
MODEL 8
REMARK VINA RESULT:      -7.8      1.553      4.541
REMARK  Name = *****
REMARK                            x       y       z     vdW  Elec       q    Type
REMARK                         _______ _______ _______ _____ _____    ______ ____
ROOT
ATOM      1  C   LIG    1       25.561 -23.340   7.219  0.00  0.00    +0.061 A 
ATOM      2  C   LIG    1       24.252 -23.292   6.728  0.00  0.00    +0.152 A 
ATOM      3  C   LIG    1       23.678 -24.435   6.182  0.00  0.00    +0.141 A 
ATOM      4  N   LIG    1       24.329 -25.610   6.045  0.00  0.00    -0.261 NA
ATOM      5  C   LIG    1       25.599 -25.644   6.490  0.00  0.00    +0.112 A 
ATOM      6  C   LIG    1       26.235 -24.564   7.083  0.00  0.00    +0.045 A 
ENDROOT
BRANCH   2   7
ATOM      7  S   LIG    1       23.267 -21.831   6.669  0.00  0.00    +0.106 S 
ATOM      8  O   LIG    1       23.153 -21.310   8.023  0.00  0.00    -0.146 OA
ATOM      9  O   LIG    1       22.062 -22.176   5.938  0.00  0.00    -0.146 OA
BRANCH   7  10
ATOM     10  N   LIG    1       24.161 -20.838   5.774  0.00  0.00    -0.076 NA
ATOM     11  C   LIG    1       24.300 -20.931   4.504  0.00  0.00    +0.299 C 
BRANCH  11  12
ATOM     12  N   LIG    1       25.041 -20.103   3.732  0.00  0.00    -0.296 N 
ATOM     13  H   LIG    1       26.011 -20.365   3.608  0.00  0.00    +0.151 HD
BRANCH  12  14
ATOM     14  C   LIG    1       24.607 -18.825   3.205  0.00  0.00    +0.068 C 
ATOM     15  C   LIG    1       25.724 -17.802   3.387  0.00  0.00    +0.027 C 
ATOM     16  C   LIG    1       23.342 -18.387   3.934  0.00  0.00    +0.027 C 
ENDBRANCH  12  14
ENDBRANCH  11  12
BRANCH  11  17
ATOM     17  O   LIG    1       23.733 -21.861   3.721  0.00  0.00    -0.481 OA
ATOM     18  H   LIG    1       23.191 -22.495   4.228  0.00  0.00    +0.295 HD
ENDBRANCH  11  17
ENDBRANCH   7  10
ENDBRANCH   2   7
BRANCH   1  19
ATOM     19  N   LIG    1       26.196 -22.241   7.827  0.00  0.00    -0.313 N 
ATOM     20  H   LIG    1       25.653 -21.765   8.552  0.00  0.00    +0.152 HD
BRANCH  19  24
ATOM     21  C   LIG    1       30.938 -20.897   8.547  0.00  0.00    +0.044 C 
ATOM     22  C   LIG    1       29.655 -20.797   7.777  0.00  0.00    -0.049 A 
ATOM     23  C   LIG    1       28.542 -21.557   8.168  0.00  0.00    +0.026 A 
ATOM     24  C   LIG    1       27.337 -21.500   7.458  0.00  0.00    +0.032 A 
ATOM     25  C   LIG    1       27.255 -20.645   6.352  0.00  0.00    +0.023 A 
ATOM     26  C   LIG    1       28.350 -19.874   5.959  0.00  0.00    +0.002 A 
ATOM     27  C   LIG    1       29.548 -19.951   6.669  0.00  0.00    +0.003 A 
ENDBRANCH  19  24
ENDBRANCH   1  19
TORSDOF 7
ENDMDL
MODEL 9
REMARK VINA RESULT:      -7.7      2.922      7.002
REMARK  Name = *****
REMARK                            x       y       z     vdW  Elec       q    Type
REMARK                         _______ _______ _______ _____ _____    ______ ____
ROOT
ATOM      1  C   LIG    1       26.078 -20.757   6.145  0.00  0.00    +0.061 A 
ATOM      2  C   LIG    1       27.350 -20.201   6.321  0.00  0.00    +0.152 A 
ATOM      3  C   LIG    1       27.815 -19.246   5.425  0.00  0.00    +0.141 A 
ATOM      4  N   LIG    1       27.125 -18.836   4.338  0.00  0.00    -0.261 NA
ATOM      5  C   LIG    1       25.914 -19.397   4.155  0.00  0.00    +0.112 A 
ATOM      6  C   LIG    1       25.358 -20.328   5.020  0.00  0.00    +0.045 A 
ENDROOT
BRANCH   2   7
ATOM      7  S   LIG    1       28.481 -20.691   7.581  0.00  0.00    +0.106 S 
ATOM      8  O   LIG    1       29.252 -21.819   7.082  0.00  0.00    -0.146 OA
ATOM      9  O   LIG    1       27.702 -20.847   8.796  0.00  0.00    -0.146 OA
BRANCH   7  10
ATOM     10  N   LIG    1       29.431 -19.400   7.726  0.00  0.00    -0.076 NA
ATOM     11  C   LIG    1       30.459 -19.336   8.488  0.00  0.00    +0.299 C 
BRANCH  11  12
ATOM     12  N   LIG    1       31.274 -18.264   8.619  0.00  0.00    -0.296 N 
ATOM     13  H   LIG    1       31.749 -17.966   7.776  0.00  0.00    +0.151 HD
BRANCH  12  14
ATOM     14  C   LIG    1       31.629 -17.619   9.865  0.00  0.00    +0.068 C 
ATOM     15  C   LIG    1       30.357 -17.294  10.643  0.00  0.00    +0.027 C 
ATOM     16  C   LIG    1       32.423 -16.353   9.565  0.00  0.00    +0.027 C 
ENDBRANCH  12  14
ENDBRANCH  11  12
BRANCH  11  17
ATOM     17  O   LIG    1       30.907 -20.320   9.283  0.00  0.00    -0.481 OA
ATOM     18  H   LIG    1       31.871 -20.267   9.434  0.00  0.00    +0.295 HD
ENDBRANCH  11  17
ENDBRANCH   7  10
ENDBRANCH   2   7
BRANCH   1  19
ATOM     19  N   LIG    1       25.519 -21.696   7.033  0.00  0.00    -0.313 N 
ATOM     20  H   LIG    1       25.624 -21.477   8.027  0.00  0.00    +0.152 HD
BRANCH  19  24
ATOM     21  C   LIG    1       26.394 -26.540   6.271  0.00  0.00    +0.044 C 
ATOM     22  C   LIG    1       25.438 -25.397   6.443  0.00  0.00    -0.049 A 
ATOM     23  C   LIG    1       25.930 -24.098   6.650  0.00  0.00    +0.026 A 
ATOM     24  C   LIG    1       25.063 -23.014   6.833  0.00  0.00    +0.032 A 
ATOM     25  C   LIG    1       23.684 -23.247   6.781  0.00  0.00    +0.023 A 
ATOM     26  C   LIG    1       23.181 -24.531   6.563  0.00  0.00    +0.002 A 
ATOM     27  C   LIG    1       24.057 -25.603   6.396  0.00  0.00    +0.003 A 
ENDBRANCH  19  24
ENDBRANCH   1  19
TORSDOF 7
ENDMDL
