MODEL 1
REMARK VINA RESULT:      -6.8      0.000      0.000
REMARK  Name = *****
REMARK                            x       y       z     vdW  Elec       q    Type
REMARK                         _______ _______ _______ _____ _____    ______ ____
ROOT
ATOM      1  C   LIG    1       26.608 -20.357   7.127  0.00  0.00    +0.069 C 
ATOM      2  C   LIG    1       25.186 -20.725   6.655  0.00  0.00    +0.113 C 
ATOM      3  C   LIG    1       24.944 -22.264   6.756  0.00  0.00    +0.141 C 
ATOM      4  N   LIG    1       24.450 -22.730   5.415  0.00  0.00    -0.231 NA
ATOM      5  C   LIG    1       24.464 -21.636   4.730  0.00  0.00    +0.276 C 
ATOM      6  C   LIG    1       26.227 -22.977   7.142  0.00  0.00    +0.098 C 
ATOM      7  N   LIG    1       24.929 -20.484   5.248  0.00  0.00    -0.294 N 
ATOM      8  H   LIG    1       24.422 -19.655   4.967  0.00  0.00    +0.151 HD
ATOM      9  S   LIG    1       27.083 -21.772   8.179  0.00  0.00    -0.153 S 
ENDROOT
BRANCH   5  10
ATOM     10  O   LIG    1       23.995 -21.582   3.491  0.00  0.00    -0.482 OA
ATOM     11  H   LIG    1       23.041 -21.414   3.553  0.00  0.00    +0.295 HD
ENDBRANCH   5  10
BRANCH   1  12
ATOM     12  C   LIG    1       27.645 -20.084   6.016  0.00  0.00    +0.016 C 
BRANCH  12  13
ATOM     13  C   LIG    1       29.108 -20.255   6.467  0.00  0.00    +0.002 C 
BRANCH  13  14
ATOM     14  C   LIG    1       29.795 -18.906   6.704  0.00  0.00    +0.011 C 
BRANCH  14  15
ATOM     15  C   LIG    1       30.042 -18.642   8.193  0.00  0.00    +0.120 C 
BRANCH  15  17
ATOM     16  O   LIG    1       32.064 -19.639   9.097  0.00  0.00    -0.251 OA
ATOM     17  C   LIG    1       31.517 -18.713   8.526  0.00  0.00    +0.305 C 
BRANCH  17  18
ATOM     18  O   LIG    1       32.198 -17.619   8.113  0.00  0.00    -0.481 OA
ATOM     19  H   LIG    1       33.132 -17.599   8.394  0.00  0.00    +0.295 HD
ENDBRANCH  17  18
ENDBRANCH  15  17
ENDBRANCH  14  15
ENDBRANCH  13  14
ENDBRANCH  12  13
ENDBRANCH   1  12
TORSDOF 7
ENDMDL
MODEL 2
REMARK VINA RESULT:      -6.8      1.361      1.470
REMARK  Name = *****
REMARK                            x       y       z     vdW  Elec       q    Type
REMARK                         _______ _______ _______ _____ _____    ______ ____
ROOT
ATOM      1  C   LIG    1       25.823 -20.381   6.688  0.00  0.00    +0.069 C 
ATOM      2  C   LIG    1       24.750 -21.437   6.350  0.00  0.00    +0.113 C 
ATOM      3  C   LIG    1       24.743 -22.585   7.410  0.00  0.00    +0.141 C 
ATOM      4  N   LIG    1       24.853 -23.886   6.664  0.00  0.00    -0.231 NA
ATOM      5  C   LIG    1       24.936 -23.485   5.440  0.00  0.00    +0.276 C 
ATOM      6  C   LIG    1       25.897 -22.414   8.382  0.00  0.00    +0.098 C 
ATOM      7  N   LIG    1       24.986 -22.177   5.126  0.00  0.00    -0.294 N 
ATOM      8  H   LIG    1       24.488 -21.921   4.284  0.00  0.00    +0.151 HD
ATOM      9  S   LIG    1       26.108 -20.624   8.475  0.00  0.00    -0.153 S 
ENDROOT
BRANCH   5  10
ATOM     10  O   LIG    1       24.948 -24.339   4.425  0.00  0.00    -0.482 OA
ATOM     11  H   LIG    1       25.845 -24.706   4.371  0.00  0.00    +0.295 HD
ENDBRANCH   5  10
BRANCH   1  12
ATOM     12  C   LIG    1       27.134 -20.458   5.874  0.00  0.00    +0.016 C 
BRANCH  12  13
ATOM     13  C   LIG    1       28.398 -20.639   6.736  0.00  0.00    +0.002 C 
BRANCH  13  14
ATOM     14  C   LIG    1       29.254 -19.369   6.771  0.00  0.00    +0.011 C 
BRANCH  14  15
ATOM     15  C   LIG    1       29.834 -19.106   8.164  0.00  0.00    +0.120 C 
BRANCH  15  17
ATOM     16  O   LIG    1       31.986 -19.469   9.232  0.00  0.00    -0.251 OA
ATOM     17  C   LIG    1       31.306 -19.455   8.221  0.00  0.00    +0.305 C 
BRANCH  17  18
ATOM     18  O   LIG    1       31.815 -19.767   7.007  0.00  0.00    -0.481 OA
ATOM     19  H   LIG    1       31.311 -20.449   6.525  0.00  0.00    +0.295 HD
ENDBRANCH  17  18
ENDBRANCH  15  17
ENDBRANCH  14  15
ENDBRANCH  13  14
ENDBRANCH  12  13
ENDBRANCH   1  12
TORSDOF 7
ENDMDL
MODEL 3
REMARK VINA RESULT:      -6.7      4.090      5.268
REMARK  Name = *****
REMARK                            x       y       z     vdW  Elec       q    Type
REMARK                         _______ _______ _______ _____ _____    ______ ____
ROOT
ATOM      1  C   LIG    1       23.703 -21.451   6.986  0.00  0.00    +0.069 C 
ATOM      2  C   LIG    1       23.884 -22.951   7.299  0.00  0.00    +0.113 C 
ATOM      3  C   LIG    1       25.396 -23.342   7.304  0.00  0.00    +0.141 C 
ATOM      4  N   LIG    1       25.559 -24.519   6.383  0.00  0.00    -0.231 NA
ATOM      5  C   LIG    1       24.354 -24.688   5.951  0.00  0.00    +0.276 C 
ATOM      6  C   LIG    1       26.247 -22.171   6.847  0.00  0.00    +0.098 C 
ATOM      7  N   LIG    1       23.357 -23.851   6.292  0.00  0.00    -0.294 N 
ATOM      8  H   LIG    1       22.460 -24.295   6.439  0.00  0.00    +0.151 HD
ATOM      9  S   LIG    1       25.323 -20.730   7.421  0.00  0.00    -0.153 S 
ENDROOT
BRANCH   5  10
ATOM     10  O   LIG    1       24.029 -25.711   5.172  0.00  0.00    -0.482 OA
ATOM     11  H   LIG    1       23.285 -25.423   4.618  0.00  0.00    +0.295 HD
ENDBRANCH   5  10
BRANCH   1  12
ATOM     12  C   LIG    1       23.280 -21.102   5.543  0.00  0.00    +0.016 C 
BRANCH  12  13
ATOM     13  C   LIG    1       22.533 -19.761   5.414  0.00  0.00    +0.002 C 
BRANCH  13  14
ATOM     14  C   LIG    1       23.043 -18.931   4.232  0.00  0.00    +0.011 C 
BRANCH  14  15
ATOM     15  C   LIG    1       24.111 -19.678   3.426  0.00  0.00    +0.120 C 
BRANCH  15  17
ATOM     16  O   LIG    1       25.738 -17.891   3.182  0.00  0.00    -0.251 OA
ATOM     17  C   LIG    1       25.466 -19.015   3.562  0.00  0.00    +0.305 C 
BRANCH  17  18
ATOM     18  O   LIG    1       26.376 -19.810   4.170  0.00  0.00    -0.481 OA
ATOM     19  H   LIG    1       25.996 -20.428   4.822  0.00  0.00    +0.295 HD
ENDBRANCH  17  18
ENDBRANCH  15  17
ENDBRANCH  14  15
ENDBRANCH  13  14
ENDBRANCH  12  13
ENDBRANCH   1  12
TORSDOF 7
ENDMDL
MODEL 4
REMARK VINA RESULT:      -6.6      1.764      1.976
REMARK  Name = *****
REMARK                            x       y       z     vdW  Elec       q    Type
REMARK                         _______ _______ _______ _____ _____    ______ ____
ROOT
ATOM      1  C   LIG    1       25.824 -22.180   7.719  0.00  0.00    +0.069 C 
ATOM      2  C   LIG    1       24.317 -21.855   7.662  0.00  0.00    +0.113 C 
ATOM      3  C   LIG    1       23.596 -22.735   6.593  0.00  0.00    +0.141 C 
ATOM      4  N   LIG    1       22.830 -21.809   5.689  0.00  0.00    -0.231 NA
ATOM      5  C   LIG    1       23.127 -20.653   6.180  0.00  0.00    +0.276 C 
ATOM      6  C   LIG    1       24.609 -23.549   5.807  0.00  0.00    +0.098 C 
ATOM      7  N   LIG    1       23.998 -20.519   7.197  0.00  0.00    -0.294 N 
ATOM      8  H   LIG    1       23.764 -19.799   7.868  0.00  0.00    +0.151 HD
ATOM      9  S   LIG    1       25.923 -23.857   7.006  0.00  0.00    -0.153 S 
ENDROOT
BRANCH   5  10
ATOM     10  O   LIG    1       22.567 -19.538   5.729  0.00  0.00    -0.482 OA
ATOM     11  H   LIG    1       22.428 -18.958   6.495  0.00  0.00    +0.295 HD
ENDBRANCH   5  10
BRANCH   1  12
ATOM     12  C   LIG    1       26.763 -21.186   7.001  0.00  0.00    +0.016 C 
BRANCH  12  13
ATOM     13  C   LIG    1       27.601 -20.313   7.954  0.00  0.00    +0.002 C 
BRANCH  13  14
ATOM     14  C   LIG    1       28.901 -19.834   7.299  0.00  0.00    +0.011 C 
BRANCH  14  15
ATOM     15  C   LIG    1       29.773 -19.035   8.272  0.00  0.00    +0.120 C 
BRANCH  15  17
ATOM     16  O   LIG    1       31.921 -19.640   9.232  0.00  0.00    -0.251 OA
ATOM     17  C   LIG    1       31.206 -19.522   8.253  0.00  0.00    +0.305 C 
BRANCH  17  18
ATOM     18  O   LIG    1       31.635 -19.832   7.008  0.00  0.00    -0.481 OA
ATOM     19  H   LIG    1       31.473 -20.758   6.748  0.00  0.00    +0.295 HD
ENDBRANCH  17  18
ENDBRANCH  15  17
ENDBRANCH  14  15
ENDBRANCH  13  14
ENDBRANCH  12  13
ENDBRANCH   1  12
TORSDOF 7
ENDMDL
MODEL 5
REMARK VINA RESULT:      -6.5      5.141      7.342
REMARK  Name = *****
REMARK                            x       y       z     vdW  Elec       q    Type
REMARK                         _______ _______ _______ _____ _____    ______ ____
ROOT
ATOM      1  C   LIG    1       25.724 -22.956   6.463  0.00  0.00    +0.069 C 
ATOM      2  C   LIG    1       25.019 -21.899   5.589  0.00  0.00    +0.113 C 
ATOM      3  C   LIG    1       24.641 -20.639   6.431  0.00  0.00    +0.141 C 
ATOM      4  N   LIG    1       23.179 -20.372   6.208  0.00  0.00    -0.231 NA
ATOM      5  C   LIG    1       22.848 -21.338   5.419  0.00  0.00    +0.276 C 
ATOM      6  C   LIG    1       24.935 -20.878   7.901  0.00  0.00    +0.098 C 
ATOM      7  N   LIG    1       23.725 -22.298   5.071  0.00  0.00    -0.294 N 
ATOM      8  H   LIG    1       23.647 -22.622   4.116  0.00  0.00    +0.151 HD
ATOM      9  S   LIG    1       26.361 -21.985   7.871  0.00  0.00    -0.153 S 
ENDROOT
BRANCH   5  10
ATOM     10  O   LIG    1       21.636 -21.421   4.886  0.00  0.00    -0.482 OA
ATOM     11  H   LIG    1       21.349 -20.515   4.688  0.00  0.00    +0.295 HD
ENDBRANCH   5  10
BRANCH   1  12
ATOM     12  C   LIG    1       24.854 -24.147   6.924  0.00  0.00    +0.016 C 
BRANCH  12  13
ATOM     13  C   LIG    1       25.406 -25.524   6.508  0.00  0.00    +0.002 C 
BRANCH  13  14
ATOM     14  C   LIG    1       24.323 -26.410   5.883  0.00  0.00    +0.011 C 
BRANCH  14  15
ATOM     15  C   LIG    1       24.870 -27.780   5.472  0.00  0.00    +0.120 C 
BRANCH  15  17
ATOM     16  O   LIG    1       24.367 -29.253   7.338  0.00  0.00    -0.251 OA
ATOM     17  C   LIG    1       24.148 -28.899   6.193  0.00  0.00    +0.305 C 
BRANCH  17  18
ATOM     18  O   LIG    1       23.199 -29.486   5.428  0.00  0.00    -0.481 OA
ATOM     19  H   LIG    1       22.285 -29.287   5.701  0.00  0.00    +0.295 HD
ENDBRANCH  17  18
ENDBRANCH  15  17
ENDBRANCH  14  15
ENDBRANCH  13  14
ENDBRANCH  12  13
ENDBRANCH   1  12
TORSDOF 7
ENDMDL
MODEL 6
REMARK VINA RESULT:      -6.5      4.098      7.378
REMARK  Name = *****
REMARK                            x       y       z     vdW  Elec       q    Type
REMARK                         _______ _______ _______ _____ _____    ______ ____
ROOT
ATOM      1  C   LIG    1       24.597 -23.241   6.930  0.00  0.00    +0.069 C 
ATOM      2  C   LIG    1       25.033 -21.761   6.908  0.00  0.00    +0.113 C 
ATOM      3  C   LIG    1       23.923 -20.861   6.279  0.00  0.00    +0.141 C 
ATOM      4  N   LIG    1       24.567 -20.048   5.191  0.00  0.00    -0.231 NA
ATOM      5  C   LIG    1       25.785 -20.473   5.226  0.00  0.00    +0.276 C 
ATOM      6  C   LIG    1       22.797 -21.717   5.726  0.00  0.00    +0.098 C 
ATOM      7  N   LIG    1       26.162 -21.471   6.047  0.00  0.00    -0.294 N 
ATOM      8  H   LIG    1       27.084 -21.365   6.451  0.00  0.00    +0.151 HD
ATOM      9  S   LIG    1       22.776 -23.147   6.828  0.00  0.00    -0.153 S 
ENDROOT
BRANCH   5  10
ATOM     10  O   LIG    1       26.736 -19.932   4.476  0.00  0.00    -0.482 OA
ATOM     11  H   LIG    1       27.118 -20.646   3.940  0.00  0.00    +0.295 HD
ENDBRANCH   5  10
BRANCH   1  12
ATOM     12  C   LIG    1       25.195 -24.143   5.829  0.00  0.00    +0.016 C 
BRANCH  12  13
ATOM     13  C   LIG    1       25.937 -25.382   6.367  0.00  0.00    +0.002 C 
BRANCH  13  14
ATOM     14  C   LIG    1       25.679 -26.623   5.506  0.00  0.00    +0.011 C 
BRANCH  14  15
ATOM     15  C   LIG    1       24.402 -27.356   5.926  0.00  0.00    +0.120 C 
BRANCH  15  17
ATOM     16  O   LIG    1       25.445 -29.457   5.293  0.00  0.00    -0.251 OA
ATOM     17  C   LIG    1       24.435 -28.808   5.495  0.00  0.00    +0.305 C 
BRANCH  17  18
ATOM     18  O   LIG    1       23.198 -29.339   5.357  0.00  0.00    -0.481 OA
ATOM     19  H   LIG    1       22.520 -28.702   5.061  0.00  0.00    +0.295 HD
ENDBRANCH  17  18
ENDBRANCH  15  17
ENDBRANCH  14  15
ENDBRANCH  13  14
ENDBRANCH  12  13
ENDBRANCH   1  12
TORSDOF 7
ENDMDL
MODEL 7
REMARK VINA RESULT:      -6.5      2.354      2.924
REMARK  Name = *****
REMARK                            x       y       z     vdW  Elec       q    Type
REMARK                         _______ _______ _______ _____ _____    ______ ____
ROOT
ATOM      1  C   LIG    1       25.624 -21.792   6.197  0.00  0.00    +0.069 C 
ATOM      2  C   LIG    1       24.778 -22.913   5.558  0.00  0.00    +0.113 C 
ATOM      3  C   LIG    1       23.393 -23.042   6.269  0.00  0.00    +0.141 C 
ATOM      4  N   LIG    1       23.222 -24.482   6.663  0.00  0.00    -0.231 NA
ATOM      5  C   LIG    1       24.333 -25.002   6.260  0.00  0.00    +0.276 C 
ATOM      6  C   LIG    1       23.336 -22.133   7.484  0.00  0.00    +0.098 C 
ATOM      7  N   LIG    1       25.312 -24.250   5.723  0.00  0.00    -0.294 N 
ATOM      8  H   LIG    1       25.815 -24.685   4.962  0.00  0.00    +0.151 HD
ATOM      9  S   LIG    1       24.379 -20.737   7.015  0.00  0.00    -0.153 S 
ENDROOT
BRANCH   5  10
ATOM     10  O   LIG    1       24.557 -26.308   6.325  0.00  0.00    -0.482 OA
ATOM     11  H   LIG    1       23.697 -26.740   6.454  0.00  0.00    +0.295 HD
ENDBRANCH   5  10
BRANCH   1  12
ATOM     12  C   LIG    1       26.732 -22.247   7.171  0.00  0.00    +0.016 C 
BRANCH  12  13
ATOM     13  C   LIG    1       27.414 -21.092   7.930  0.00  0.00    +0.002 C 
BRANCH  13  14
ATOM     14  C   LIG    1       28.863 -20.887   7.479  0.00  0.00    +0.011 C 
BRANCH  14  15
ATOM     15  C   LIG    1       29.306 -19.427   7.618  0.00  0.00    +0.120 C 
BRANCH  15  17
ATOM     16  O   LIG    1       31.626 -19.534   6.904  0.00  0.00    -0.251 OA
ATOM     17  C   LIG    1       30.493 -19.125   6.727  0.00  0.00    +0.305 C 
BRANCH  17  18
ATOM     18  O   LIG    1       30.168 -18.339   5.675  0.00  0.00    -0.481 OA
ATOM     19  H   LIG    1       29.442 -17.712   5.853  0.00  0.00    +0.295 HD
ENDBRANCH  17  18
ENDBRANCH  15  17
ENDBRANCH  14  15
ENDBRANCH  13  14
ENDBRANCH  12  13
ENDBRANCH   1  12
TORSDOF 7
ENDMDL
MODEL 8
REMARK VINA RESULT:      -6.5      3.771      5.561
REMARK  Name = *****
REMARK                            x       y       z     vdW  Elec       q    Type
REMARK                         _______ _______ _______ _____ _____    ______ ____
ROOT
ATOM      1  C   LIG    1       24.670 -22.041   5.525  0.00  0.00    +0.069 C 
ATOM      2  C   LIG    1       25.876 -21.590   6.376  0.00  0.00    +0.113 C 
ATOM      3  C   LIG    1       26.415 -22.768   7.249  0.00  0.00    +0.141 C 
ATOM      4  N   LIG    1       26.480 -22.280   8.669  0.00  0.00    -0.231 NA
ATOM      5  C   LIG    1       26.026 -21.077   8.560  0.00  0.00    +0.276 C 
ATOM      6  C   LIG    1       25.503 -23.976   7.129  0.00  0.00    +0.098 C 
ATOM      7  N   LIG    1       25.572 -20.597   7.387  0.00  0.00    -0.294 N 
ATOM      8  H   LIG    1       25.787 -19.624   7.212  0.00  0.00    +0.151 HD
ATOM      9  S   LIG    1       24.863 -23.854   5.445  0.00  0.00    -0.153 S 
ENDROOT
BRANCH   5  10
ATOM     10  O   LIG    1       26.009 -20.240   9.589  0.00  0.00    -0.482 OA
ATOM     11  H   LIG    1       25.078 -20.085   9.815  0.00  0.00    +0.295 HD
ENDBRANCH   5  10
BRANCH   1  12
ATOM     12  C   LIG    1       23.277 -21.627   6.046  0.00  0.00    +0.016 C 
BRANCH  12  13
ATOM     13  C   LIG    1       22.711 -20.357   5.383  0.00  0.00    +0.002 C 
BRANCH  13  14
ATOM     14  C   LIG    1       23.367 -20.077   4.027  0.00  0.00    +0.011 C 
BRANCH  14  15
ATOM     15  C   LIG    1       23.789 -18.611   3.885  0.00  0.00    +0.120 C 
BRANCH  15  17
ATOM     16  O   LIG    1       25.789 -17.456   3.132  0.00  0.00    -0.251 OA
ATOM     17  C   LIG    1       25.229 -18.495   3.433  0.00  0.00    +0.305 C 
BRANCH  17  18
ATOM     18  O   LIG    1       25.863 -19.690   3.400  0.00  0.00    -0.481 OA
ATOM     19  H   LIG    1       26.603 -19.733   2.765  0.00  0.00    +0.295 HD
ENDBRANCH  17  18
ENDBRANCH  15  17
ENDBRANCH  14  15
ENDBRANCH  13  14
ENDBRANCH  12  13
ENDBRANCH   1  12
TORSDOF 7
ENDMDL
MODEL 9
REMARK VINA RESULT:      -6.5      2.834      5.739
REMARK  Name = *****
REMARK                            x       y       z     vdW  Elec       q    Type
REMARK                         _______ _______ _______ _____ _____    ______ ____
ROOT
ATOM      1  C   LIG    1       28.473 -21.085   7.519  0.00  0.00    +0.069 C 
ATOM      2  C   LIG    1       29.109 -20.521   6.232  0.00  0.00    +0.113 C 
ATOM      3  C   LIG    1       30.367 -19.657   6.564  0.00  0.00    +0.141 C 
ATOM      4  N   LIG    1       30.190 -18.326   5.888  0.00  0.00    -0.231 NA
ATOM      5  C   LIG    1       29.032 -18.461   5.333  0.00  0.00    +0.276 C 
ATOM      6  C   LIG    1       30.514 -19.491   8.066  0.00  0.00    +0.098 C 
ATOM      7  N   LIG    1       28.288 -19.568   5.512  0.00  0.00    -0.294 N 
ATOM      8  H   LIG    1       27.770 -19.870   4.697  0.00  0.00    +0.151 HD
ATOM      9  S   LIG    1       29.840 -21.030   8.727  0.00  0.00    -0.153 S 
ENDROOT
BRANCH   5  10
ATOM     10  O   LIG    1       28.528 -17.530   4.534  0.00  0.00    -0.482 OA
ATOM     11  H   LIG    1       28.952 -17.636   3.668  0.00  0.00    +0.295 HD
ENDBRANCH   5  10
BRANCH   1  12
ATOM     12  C   LIG    1       27.213 -20.354   8.032  0.00  0.00    +0.016 C 
BRANCH  12  13
ATOM     13  C   LIG    1       25.988 -21.270   8.219  0.00  0.00    +0.002 C 
BRANCH  13  14
ATOM     14  C   LIG    1       24.850 -20.908   7.259  0.00  0.00    +0.011 C 
BRANCH  14  15
ATOM     15  C   LIG    1       25.064 -21.507   5.865  0.00  0.00    +0.120 C 
BRANCH  15  17
ATOM     16  O   LIG    1       23.826 -19.870   4.566  0.00  0.00    -0.251 OA
ATOM     17  C   LIG    1       24.865 -20.467   4.783  0.00  0.00    +0.305 C 
BRANCH  17  18
ATOM     18  O   LIG    1       25.986 -20.247   4.059  0.00  0.00    -0.481 OA
ATOM     19  H   LIG    1       26.751 -19.949   4.586  0.00  0.00    +0.295 HD
ENDBRANCH  17  18
ENDBRANCH  15  17
ENDBRANCH  14  15
ENDBRANCH  13  14
ENDBRANCH  12  13
ENDBRANCH   1  12
TORSDOF 7
ENDMDL
