MODEL 1
REMARK VINA RESULT:      -5.1      0.000      0.000
REMARK  Name = *****
REMARK                            x       y       z     vdW  Elec       q    Type
REMARK                         _______ _______ _______ _____ _____    ______ ____
ROOT
ATOM      1  C   LIG    1       22.981 -17.503   4.292  0.00  0.00    -0.047 A 
ATOM      2  C   LIG    1       22.482 -16.274   4.730  0.00  0.00    +0.005 A 
ATOM      3  C   LIG    1       23.233 -15.074   4.564  0.00  0.00    +0.023 A 
ATOM      4  C   LIG    1       24.511 -15.053   3.972  0.00  0.00    +0.030 A 
ATOM      5  C   LIG    1       25.018 -16.325   3.647  0.00  0.00    +0.023 A 
ATOM      6  C   LIG    1       24.279 -17.513   3.790  0.00  0.00    +0.005 A 
ENDROOT
BRANCH   1   7
ATOM      7  C   LIG    1       22.196 -18.799   4.317  0.00  0.00    +0.035 C 
BRANCH   7   8
ATOM      8  C   LIG    1       22.687 -19.850   5.336  0.00  0.00    +0.016 C 
BRANCH   8   9
ATOM      9  C   LIG    1       23.684 -20.859   4.772  0.00  0.00    +0.121 C 
BRANCH   9  11
ATOM     10  O   LIG    1       25.370 -20.564   6.486  0.00  0.00    -0.251 OA
ATOM     11  C   LIG    1       25.084 -20.637   5.322  0.00  0.00    +0.305 C 
BRANCH  11  12
ATOM     12  O   LIG    1       26.006 -20.479   4.317  0.00  0.00    -0.481 OA
ATOM     13  H   LIG    1       25.691 -20.754   3.437  0.00  0.00    +0.295 HD
ENDBRANCH  11  12
ENDBRANCH   9  11
ENDBRANCH   8   9
ENDBRANCH   7   8
ENDBRANCH   1   7
BRANCH   4  14
ATOM     14  N   LIG    1       25.231 -13.866   3.684  0.00  0.00    -0.328 N 
BRANCH  14  15
ATOM     15  C   LIG    1       26.512 -13.603   4.388  0.00  0.00    +0.121 C 
BRANCH  15  16
ATOM     16  C   LIG    1       27.844 -13.877   3.669  0.00  0.00    +0.127 C 
ATOM     17 CL   LIG    1       29.075 -12.621   3.935  0.00  0.00    -0.124 Cl
ENDBRANCH  15  16
ENDBRANCH  14  15
BRANCH  14  18
ATOM     18  C   LIG    1       24.698 -13.018   2.580  0.00  0.00    +0.121 C 
BRANCH  18  19
ATOM     19  C   LIG    1       23.898 -11.745   2.859  0.00  0.00    +0.127 C 
ATOM     20 CL   LIG    1       23.650 -11.448   4.596  0.00  0.00    -0.124 Cl
ENDBRANCH  18  19
ENDBRANCH  14  18
ENDBRANCH   4  14
TORSDOF 10
ENDMDL
MODEL 2
REMARK VINA RESULT:      -5.1      0.230      2.492
REMARK  Name = *****
REMARK                            x       y       z     vdW  Elec       q    Type
REMARK                         _______ _______ _______ _____ _____    ______ ____
ROOT
ATOM      1  C   LIG    1       22.919 -17.640   4.350  0.00  0.00    -0.047 A 
ATOM      2  C   LIG    1       22.396 -16.419   4.782  0.00  0.00    +0.005 A 
ATOM      3  C   LIG    1       23.108 -15.201   4.576  0.00  0.00    +0.023 A 
ATOM      4  C   LIG    1       24.370 -15.155   3.949  0.00  0.00    +0.030 A 
ATOM      5  C   LIG    1       24.903 -16.417   3.631  0.00  0.00    +0.023 A 
ATOM      6  C   LIG    1       24.203 -17.623   3.814  0.00  0.00    +0.005 A 
ENDROOT
BRANCH   1   7
ATOM      7  C   LIG    1       22.172 -18.957   4.418  0.00  0.00    +0.035 C 
BRANCH   7   8
ATOM      8  C   LIG    1       22.721 -19.978   5.439  0.00  0.00    +0.016 C 
BRANCH   8   9
ATOM      9  C   LIG    1       23.734 -20.964   4.863  0.00  0.00    +0.121 C 
BRANCH   9  11
ATOM     10  O   LIG    1       25.453 -20.545   6.519  0.00  0.00    -0.251 OA
ATOM     11  C   LIG    1       25.142 -20.685   5.367  0.00  0.00    +0.305 C 
BRANCH  11  12
ATOM     12  O   LIG    1       26.037 -20.561   4.334  0.00  0.00    -0.481 OA
ATOM     13  H   LIG    1       25.842 -19.829   3.720  0.00  0.00    +0.295 HD
ENDBRANCH  11  12
ENDBRANCH   9  11
ENDBRANCH   8   9
ENDBRANCH   7   8
ENDBRANCH   1   7
BRANCH   4  14
ATOM     14  N   LIG    1       25.047 -13.953   3.622  0.00  0.00    -0.328 N 
BRANCH  14  15
ATOM     15  C   LIG    1       24.435 -13.014   2.648  0.00  0.00    +0.121 C 
BRANCH  15  16
ATOM     16  C   LIG    1       23.924 -11.645   3.130  0.00  0.00    +0.127 C 
ATOM     17 CL   LIG    1       23.638 -11.564   4.884  0.00  0.00    -0.124 Cl
ENDBRANCH  15  16
ENDBRANCH  14  15
BRANCH  14  18
ATOM     18  C   LIG    1       26.288 -13.660   4.394  0.00  0.00    +0.121 C 
BRANCH  18  19
ATOM     19  C   LIG    1       27.651 -14.202   3.962  0.00  0.00    +0.127 C 
ATOM     20 CL   LIG    1       28.882 -12.929   3.790  0.00  0.00    -0.124 Cl
ENDBRANCH  18  19
ENDBRANCH  14  18
ENDBRANCH   4  14
TORSDOF 10
ENDMDL
MODEL 3
REMARK VINA RESULT:      -4.7      3.999      6.450
REMARK  Name = *****
REMARK                            x       y       z     vdW  Elec       q    Type
REMARK                         _______ _______ _______ _____ _____    ______ ____
ROOT
ATOM      1  C   LIG    1       23.794 -15.573   4.089  0.00  0.00    -0.047 A 
ATOM      2  C   LIG    1       22.703 -16.362   4.462  0.00  0.00    +0.005 A 
ATOM      3  C   LIG    1       22.786 -17.785   4.450  0.00  0.00    +0.023 A 
ATOM      4  C   LIG    1       23.950 -18.474   4.054  0.00  0.00    +0.030 A 
ATOM      5  C   LIG    1       24.982 -17.642   3.583  0.00  0.00    +0.023 A 
ATOM      6  C   LIG    1       24.917 -16.238   3.607  0.00  0.00    +0.005 A 
ENDROOT
BRANCH   1   7
ATOM      7  C   LIG    1       23.827 -14.062   4.193  0.00  0.00    +0.035 C 
BRANCH   7   8
ATOM      8  C   LIG    1       25.018 -13.376   3.491  0.00  0.00    +0.016 C 
BRANCH   8   9
ATOM      9  C   LIG    1       26.341 -13.481   4.244  0.00  0.00    +0.121 C 
BRANCH   9  11
ATOM     10  O   LIG    1       28.668 -13.433   3.568  0.00  0.00    -0.251 OA
ATOM     11  C   LIG    1       27.518 -13.651   3.296  0.00  0.00    +0.305 C 
BRANCH  11  12
ATOM     12  O   LIG    1       27.111 -14.050   2.047  0.00  0.00    -0.481 OA
ATOM     13  H   LIG    1       27.665 -13.714   1.319  0.00  0.00    +0.295 HD
ENDBRANCH  11  12
ENDBRANCH   9  11
ENDBRANCH   8   9
ENDBRANCH   7   8
ENDBRANCH   1   7
BRANCH   4  14
ATOM     14  N   LIG    1       24.106 -19.880   4.145  0.00  0.00    -0.328 N 
BRANCH  14  15
ATOM     15  C   LIG    1       25.473 -20.460   4.188  0.00  0.00    +0.121 C 
BRANCH  15  16
ATOM     16  C   LIG    1       26.231 -20.521   5.525  0.00  0.00    +0.127 C 
ATOM     17 CL   LIG    1       27.798 -19.681   5.500  0.00  0.00    -0.124 Cl
ENDBRANCH  15  16
ENDBRANCH  14  15
BRANCH  14  18
ATOM     18  C   LIG    1       22.859 -20.677   4.323  0.00  0.00    +0.121 C 
BRANCH  18  19
ATOM     19  C   LIG    1       22.561 -21.424   5.624  0.00  0.00    +0.127 C 
ATOM     20 CL   LIG    1       23.214 -20.602   7.061  0.00  0.00    -0.124 Cl
ENDBRANCH  18  19
ENDBRANCH  14  18
ENDBRANCH   4  14
TORSDOF 10
ENDMDL
MODEL 4
REMARK VINA RESULT:      -4.6      1.636      2.045
REMARK  Name = *****
REMARK                            x       y       z     vdW  Elec       q    Type
REMARK                         _______ _______ _______ _____ _____    ______ ____
ROOT
ATOM      1  C   LIG    1       25.014 -18.335   3.612  0.00  0.00    -0.047 A 
ATOM      2  C   LIG    1       23.938 -17.503   3.930  0.00  0.00    +0.005 A 
ATOM      3  C   LIG    1       24.052 -16.085   3.838  0.00  0.00    +0.023 A 
ATOM      4  C   LIG    1       25.243 -15.443   3.444  0.00  0.00    +0.030 A 
ATOM      5  C   LIG    1       26.329 -16.314   3.240  0.00  0.00    +0.023 A 
ATOM      6  C   LIG    1       26.223 -17.714   3.311  0.00  0.00    +0.005 A 
ENDROOT
BRANCH   1   7
ATOM      7  C   LIG    1       24.936 -19.847   3.563  0.00  0.00    +0.035 C 
BRANCH   7   8
ATOM      8  C   LIG    1       25.375 -20.575   4.853  0.00  0.00    +0.016 C 
BRANCH   8   9
ATOM      9  C   LIG    1       24.353 -21.572   5.394  0.00  0.00    +0.121 C 
BRANCH   9  11
ATOM     10  O   LIG    1       22.841 -20.003   6.454  0.00  0.00    -0.251 OA
ATOM     11  C   LIG    1       23.016 -20.907   5.683  0.00  0.00    +0.305 C 
BRANCH  11  12
ATOM     12  O   LIG    1       21.993 -21.497   4.983  0.00  0.00    -0.481 OA
ATOM     13  H   LIG    1       21.442 -20.873   4.476  0.00  0.00    +0.295 HD
ENDBRANCH  11  12
ENDBRANCH   9  11
ENDBRANCH   8   9
ENDBRANCH   7   8
ENDBRANCH   1   7
BRANCH   4  14
ATOM     14  N   LIG    1       25.354 -14.046   3.227  0.00  0.00    -0.328 N 
BRANCH  14  15
ATOM     15  C   LIG    1       26.700 -13.442   3.049  0.00  0.00    +0.121 C 
BRANCH  15  16
ATOM     16  C   LIG    1       27.647 -13.327   4.255  0.00  0.00    +0.127 C 
ATOM     17 CL   LIG    1       26.823 -13.447   5.827  0.00  0.00    -0.124 Cl
ENDBRANCH  15  16
ENDBRANCH  14  15
BRANCH  14  18
ATOM     18  C   LIG    1       24.077 -13.296   3.064  0.00  0.00    +0.121 C 
BRANCH  18  19
ATOM     19  C   LIG    1       23.969 -11.809   3.408  0.00  0.00    +0.127 C 
ATOM     20 CL   LIG    1       23.854 -11.509   5.159  0.00  0.00    -0.124 Cl
ENDBRANCH  18  19
ENDBRANCH  14  18
ENDBRANCH   4  14
TORSDOF 10
ENDMDL
MODEL 5
REMARK VINA RESULT:      -4.5      4.008      6.884
REMARK  Name = *****
REMARK                            x       y       z     vdW  Elec       q    Type
REMARK                         _______ _______ _______ _____ _____    ______ ____
ROOT
ATOM      1  C   LIG    1       23.739 -15.708   4.077  0.00  0.00    -0.047 A 
ATOM      2  C   LIG    1       22.672 -16.522   4.466  0.00  0.00    +0.005 A 
ATOM      3  C   LIG    1       22.810 -17.939   4.520  0.00  0.00    +0.023 A 
ATOM      4  C   LIG    1       24.006 -18.600   4.176  0.00  0.00    +0.030 A 
ATOM      5  C   LIG    1       25.015 -17.750   3.686  0.00  0.00    +0.023 A 
ATOM      6  C   LIG    1       24.896 -16.350   3.645  0.00  0.00    +0.005 A 
ENDROOT
BRANCH   1   7
ATOM      7  C   LIG    1       23.712 -14.194   4.113  0.00  0.00    +0.035 C 
BRANCH   7   8
ATOM      8  C   LIG    1       24.260 -13.492   2.852  0.00  0.00    +0.016 C 
BRANCH   8   9
ATOM      9  C   LIG    1       25.550 -12.706   3.076  0.00  0.00    +0.121 C 
BRANCH   9  11
ATOM     10  O   LIG    1       26.739 -14.397   1.812  0.00  0.00    -0.251 OA
ATOM     11  C   LIG    1       26.767 -13.462   2.566  0.00  0.00    +0.305 C 
BRANCH  11  12
ATOM     12  O   LIG    1       27.930 -12.978   3.110  0.00  0.00    -0.481 OA
ATOM     13  H   LIG    1       27.816 -12.522   3.964  0.00  0.00    +0.295 HD
ENDBRANCH  11  12
ENDBRANCH   9  11
ENDBRANCH   8   9
ENDBRANCH   7   8
ENDBRANCH   1   7
BRANCH   4  14
ATOM     14  N   LIG    1       24.214 -19.993   4.333  0.00  0.00    -0.328 N 
BRANCH  14  15
ATOM     15  C   LIG    1       23.048 -20.913   4.290  0.00  0.00    +0.121 C 
BRANCH  15  16
ATOM     16  C   LIG    1       22.440 -21.432   5.603  0.00  0.00    +0.127 C 
ATOM     17 CL   LIG    1       23.211 -20.767   7.062  0.00  0.00    -0.124 Cl
ENDBRANCH  15  16
ENDBRANCH  14  15
BRANCH  14  18
ATOM     18  C   LIG    1       25.631 -20.449   4.406  0.00  0.00    +0.121 C 
BRANCH  18  19
ATOM     19  C   LIG    1       26.426 -20.401   5.712  0.00  0.00    +0.127 C 
ATOM     20 CL   LIG    1       28.021 -19.634   5.525  0.00  0.00    -0.124 Cl
ENDBRANCH  18  19
ENDBRANCH  14  18
ENDBRANCH   4  14
TORSDOF 10
ENDMDL
MODEL 6
REMARK VINA RESULT:      -4.3      4.201      6.990
REMARK  Name = *****
REMARK                            x       y       z     vdW  Elec       q    Type
REMARK                         _______ _______ _______ _____ _____    ______ ____
ROOT
ATOM      1  C   LIG    1       24.697 -14.792   3.745  0.00  0.00    -0.047 A 
ATOM      2  C   LIG    1       25.639 -15.756   3.378  0.00  0.00    +0.005 A 
ATOM      3  C   LIG    1       25.345 -17.147   3.480  0.00  0.00    +0.023 A 
ATOM      4  C   LIG    1       24.113 -17.630   3.964  0.00  0.00    +0.030 A 
ATOM      5  C   LIG    1       23.239 -16.627   4.423  0.00  0.00    +0.023 A 
ATOM      6  C   LIG    1       23.512 -15.252   4.312  0.00  0.00    +0.005 A 
ENDROOT
BRANCH   1   7
ATOM      7  C   LIG    1       24.884 -13.301   3.550  0.00  0.00    +0.035 C 
BRANCH   7   8
ATOM      8  C   LIG    1       25.617 -12.570   4.695  0.00  0.00    +0.016 C 
BRANCH   8   9
ATOM      9  C   LIG    1       26.778 -13.353   5.303  0.00  0.00    +0.121 C 
BRANCH   9  11
ATOM     10  O   LIG    1       28.552 -13.356   3.652  0.00  0.00    -0.251 OA
ATOM     11  C   LIG    1       28.111 -12.949   4.693  0.00  0.00    +0.305 C 
BRANCH  11  12
ATOM     12  O   LIG    1       28.798 -12.078   5.503  0.00  0.00    -0.481 OA
ATOM     13  H   LIG    1       29.494 -11.570   5.047  0.00  0.00    +0.295 HD
ENDBRANCH  11  12
ENDBRANCH   9  11
ENDBRANCH   8   9
ENDBRANCH   7   8
ENDBRANCH   1   7
BRANCH   4  14
ATOM     14  N   LIG    1       23.745 -18.999   3.966  0.00  0.00    -0.328 N 
BRANCH  14  15
ATOM     15  C   LIG    1       22.351 -19.378   4.316  0.00  0.00    +0.121 C 
BRANCH  15  16
ATOM     16  C   LIG    1       22.084 -20.716   5.026  0.00  0.00    +0.127 C 
ATOM     17 CL   LIG    1       22.931 -20.885   6.580  0.00  0.00    -0.124 Cl
ENDBRANCH  15  16
ENDBRANCH  14  15
BRANCH  14  18
ATOM     18  C   LIG    1       24.773 -19.963   3.482  0.00  0.00    +0.121 C 
BRANCH  18  19
ATOM     19  C   LIG    1       25.565 -20.846   4.448  0.00  0.00    +0.127 C 
ATOM     20 CL   LIG    1       26.831 -19.952   5.325  0.00  0.00    -0.124 Cl
ENDBRANCH  18  19
ENDBRANCH  14  18
ENDBRANCH   4  14
TORSDOF 10
ENDMDL
MODEL 7
REMARK VINA RESULT:      -4.2      2.314      3.049
REMARK  Name = *****
REMARK                            x       y       z     vdW  Elec       q    Type
REMARK                         _______ _______ _______ _____ _____    ______ ____
ROOT
ATOM      1  C   LIG    1       26.606 -18.616   4.263  0.00  0.00    -0.047 A 
ATOM      2  C   LIG    1       27.762 -17.892   4.565  0.00  0.00    +0.005 A 
ATOM      3  C   LIG    1       27.898 -16.528   4.173  0.00  0.00    +0.023 A 
ATOM      4  C   LIG    1       26.898 -15.840   3.456  0.00  0.00    +0.030 A 
ATOM      5  C   LIG    1       25.803 -16.640   3.081  0.00  0.00    +0.023 A 
ATOM      6  C   LIG    1       25.651 -17.980   3.476  0.00  0.00    +0.005 A 
ENDROOT
BRANCH   1   7
ATOM      7  C   LIG    1       26.333 -20.025   4.750  0.00  0.00    +0.035 C 
BRANCH   7   8
ATOM      8  C   LIG    1       24.946 -20.595   4.382  0.00  0.00    +0.016 C 
BRANCH   8   9
ATOM      9  C   LIG    1       23.929 -20.567   5.521  0.00  0.00    +0.121 C 
BRANCH   9  11
ATOM     10  O   LIG    1       22.103 -19.175   4.748  0.00  0.00    -0.251 OA
ATOM     11  C   LIG    1       22.526 -20.267   5.016  0.00  0.00    +0.305 C 
BRANCH  11  12
ATOM     12  O   LIG    1       21.759 -21.402   4.940  0.00  0.00    -0.481 OA
ATOM     13  H   LIG    1       22.260 -22.211   4.728  0.00  0.00    +0.295 HD
ENDBRANCH  11  12
ENDBRANCH   9  11
ENDBRANCH   8   9
ENDBRANCH   7   8
ENDBRANCH   1   7
BRANCH   4  14
ATOM     14  N   LIG    1       26.950 -14.455   3.157  0.00  0.00    -0.328 N 
BRANCH  14  15
ATOM     15  C   LIG    1       28.154 -13.673   3.536  0.00  0.00    +0.121 C 
BRANCH  15  16
ATOM     16  C   LIG    1       28.159 -12.875   4.851  0.00  0.00    +0.127 C 
ATOM     17 CL   LIG    1       26.906 -13.386   6.004  0.00  0.00    -0.124 Cl
ENDBRANCH  15  16
ENDBRANCH  14  15
BRANCH  14  18
ATOM     18  C   LIG    1       25.820 -13.907   2.354  0.00  0.00    +0.121 C 
BRANCH  18  19
ATOM     19  C   LIG    1       24.695 -13.096   2.999  0.00  0.00    +0.127 C 
ATOM     20 CL   LIG    1       23.878 -13.970   4.317  0.00  0.00    -0.124 Cl
ENDBRANCH  18  19
ENDBRANCH  14  18
ENDBRANCH   4  14
TORSDOF 10
ENDMDL
MODEL 8
REMARK VINA RESULT:      -4.2      2.311      3.617
REMARK  Name = *****
REMARK                            x       y       z     vdW  Elec       q    Type
REMARK                         _______ _______ _______ _____ _____    ______ ____
ROOT
ATOM      1  C   LIG    1       26.594 -18.671   4.292  0.00  0.00    -0.047 A 
ATOM      2  C   LIG    1       27.748 -17.936   4.576  0.00  0.00    +0.005 A 
ATOM      3  C   LIG    1       27.878 -16.580   4.156  0.00  0.00    +0.023 A 
ATOM      4  C   LIG    1       26.875 -15.912   3.426  0.00  0.00    +0.030 A 
ATOM      5  C   LIG    1       25.782 -16.723   3.069  0.00  0.00    +0.023 A 
ATOM      6  C   LIG    1       25.636 -18.055   3.493  0.00  0.00    +0.005 A 
ENDROOT
BRANCH   1   7
ATOM      7  C   LIG    1       26.327 -20.070   4.809  0.00  0.00    +0.035 C 
BRANCH   7   8
ATOM      8  C   LIG    1       24.950 -20.661   4.438  0.00  0.00    +0.016 C 
BRANCH   8   9
ATOM      9  C   LIG    1       23.916 -20.607   5.559  0.00  0.00    +0.121 C 
BRANCH   9  11
ATOM     10  O   LIG    1       22.128 -19.175   4.768  0.00  0.00    -0.251 OA
ATOM     11  C   LIG    1       22.528 -20.277   5.031  0.00  0.00    +0.305 C 
BRANCH  11  12
ATOM     12  O   LIG    1       21.744 -21.399   4.926  0.00  0.00    -0.481 OA
ATOM     13  H   LIG    1       20.794 -21.238   5.070  0.00  0.00    +0.295 HD
ENDBRANCH  11  12
ENDBRANCH   9  11
ENDBRANCH   8   9
ENDBRANCH   7   8
ENDBRANCH   1   7
BRANCH   4  14
ATOM     14  N   LIG    1       26.921 -14.533   3.097  0.00  0.00    -0.328 N 
BRANCH  14  15
ATOM     15  C   LIG    1       25.751 -13.903   2.434  0.00  0.00    +0.121 C 
BRANCH  15  16
ATOM     16  C   LIG    1       24.707 -13.156   3.282  0.00  0.00    +0.127 C 
ATOM     17 CL   LIG    1       23.803 -14.207   4.396  0.00  0.00    -0.124 Cl
ENDBRANCH  15  16
ENDBRANCH  14  15
BRANCH  14  18
ATOM     18  C   LIG    1       28.116 -13.778   3.569  0.00  0.00    +0.121 C 
BRANCH  18  19
ATOM     19  C   LIG    1       28.072 -12.906   4.825  0.00  0.00    +0.127 C 
ATOM     20 CL   LIG    1       26.916 -13.500   6.041  0.00  0.00    -0.124 Cl
ENDBRANCH  18  19
ENDBRANCH  14  18
ENDBRANCH   4  14
TORSDOF 10
ENDMDL
MODEL 9
REMARK VINA RESULT:      -4.1      4.110      6.636
REMARK  Name = *****
REMARK                            x       y       z     vdW  Elec       q    Type
REMARK                         _______ _______ _______ _____ _____    ______ ____
ROOT
ATOM      1  C   LIG    1       25.302 -14.895   3.547  0.00  0.00    -0.047 A 
ATOM      2  C   LIG    1       26.225 -15.901   3.247  0.00  0.00    +0.005 A 
ATOM      3  C   LIG    1       25.874 -17.277   3.361  0.00  0.00    +0.023 A 
ATOM      4  C   LIG    1       24.601 -17.704   3.792  0.00  0.00    +0.030 A 
ATOM      5  C   LIG    1       23.745 -16.659   4.187  0.00  0.00    +0.023 A 
ATOM      6  C   LIG    1       24.074 -15.298   4.062  0.00  0.00    +0.005 A 
ENDROOT
BRANCH   1   7
ATOM      7  C   LIG    1       25.556 -13.416   3.332  0.00  0.00    +0.035 C 
BRANCH   7   8
ATOM      8  C   LIG    1       26.961 -13.055   2.805  0.00  0.00    +0.016 C 
BRANCH   8   9
ATOM      9  C   LIG    1       28.109 -13.531   3.692  0.00  0.00    +0.121 C 
BRANCH   9  11
ATOM     10  O   LIG    1       27.209 -13.403   5.938  0.00  0.00    -0.251 OA
ATOM     11  C   LIG    1       27.982 -13.000   5.111  0.00  0.00    +0.305 C 
BRANCH  11  12
ATOM     12  O   LIG    1       28.838 -11.952   5.340  0.00  0.00    -0.481 OA
ATOM     13  H   LIG    1       29.549 -12.146   5.978  0.00  0.00    +0.295 HD
ENDBRANCH  11  12
ENDBRANCH   9  11
ENDBRANCH   8   9
ENDBRANCH   7   8
ENDBRANCH   1   7
BRANCH   4  14
ATOM     14  N   LIG    1       24.182 -19.058   3.802  0.00  0.00    -0.328 N 
BRANCH  14  15
ATOM     15  C   LIG    1       25.203 -20.137   3.783  0.00  0.00    +0.121 C 
BRANCH  15  16
ATOM     16  C   LIG    1       25.860 -20.585   5.100  0.00  0.00    +0.127 C 
ATOM     17 CL   LIG    1       27.448 -19.844   5.398  0.00  0.00    -0.124 Cl
ENDBRANCH  15  16
ENDBRANCH  14  15
BRANCH  14  18
ATOM     18  C   LIG    1       22.720 -19.299   3.963  0.00  0.00    +0.121 C 
BRANCH  18  19
ATOM     19  C   LIG    1       22.181 -20.346   4.939  0.00  0.00    +0.127 C 
ATOM     20 CL   LIG    1       23.009 -20.318   6.514  0.00  0.00    -0.124 Cl
ENDBRANCH  18  19
ENDBRANCH  14  18
ENDBRANCH   4  14
TORSDOF 10
ENDMDL
