MODEL 1
REMARK VINA RESULT:      -6.7      0.000      0.000
REMARK  Name = *****
REMARK                            x       y       z     vdW  Elec       q    Type
REMARK                         _______ _______ _______ _____ _____    ______ ____
ROOT
ATOM      1  C   LIG    1       27.581 -20.099   7.203  0.00  0.00    +0.104 C 
ATOM      2  C   LIG    1       26.097 -20.464   7.070  0.00  0.00    +0.046 C 
ATOM      3  C   LIG    1       25.849 -21.009   8.468  0.00  0.00    +0.236 C 
ATOM      4  O   LIG    1       27.038 -21.725   8.811  0.00  0.00    -0.464 OA
ATOM      5  C   LIG    1       28.081 -21.214   8.093  0.00  0.00    +0.311 C 
ATOM      6  O   LIG    1       29.237 -21.594   8.199  0.00  0.00    -0.251 OA
ENDROOT
BRANCH   1   8
ATOM      7  C   LIG    1       29.335 -18.737   5.967  0.00  0.00    +0.004 C 
ATOM      8  C   LIG    1       28.414 -19.948   5.932  0.00  0.00    +0.012 C 
ENDBRANCH   1   8
BRANCH   2   9
ATOM      9  C   LIG    1       25.796 -21.500   5.965  0.00  0.00    +0.062 C 
BRANCH   9  10
ATOM     10  C   LIG    1       24.635 -22.402   6.250  0.00  0.00    +0.038 A 
ATOM     11  N   LIG    1       24.687 -23.747   6.540  0.00  0.00    -0.337 N 
ATOM     12  C   LIG    1       25.842 -24.604   6.640  0.00  0.00    +0.150 C 
ATOM     13  C   LIG    1       23.406 -24.178   6.755  0.00  0.00    +0.199 A 
ATOM     14  N   LIG    1       22.542 -23.197   6.650  0.00  0.00    -0.244 NA
ATOM     15  C   LIG    1       23.291 -22.091   6.353  0.00  0.00    +0.133 A 
ENDBRANCH   9  10
ENDBRANCH   2   9
TORSDOF 3
ENDMDL
MODEL 2
REMARK VINA RESULT:      -6.7      3.246      5.591
REMARK  Name = *****
REMARK                            x       y       z     vdW  Elec       q    Type
REMARK                         _______ _______ _______ _____ _____    ______ ____
ROOT
ATOM      1  C   LIG    1       25.762 -22.646   7.722  0.00  0.00    +0.104 C 
ATOM      2  C   LIG    1       26.854 -21.637   8.102  0.00  0.00    +0.046 C 
ATOM      3  C   LIG    1       26.001 -20.608   8.828  0.00  0.00    +0.236 C 
ATOM      4  O   LIG    1       24.779 -20.542   8.088  0.00  0.00    -0.464 OA
ATOM      5  C   LIG    1       24.599 -21.725   7.429  0.00  0.00    +0.311 C 
ATOM      6  O   LIG    1       23.622 -21.986   6.744  0.00  0.00    -0.251 OA
ENDROOT
BRANCH   1   8
ATOM      7  C   LIG    1       25.688 -25.061   6.936  0.00  0.00    +0.004 C 
ATOM      8  C   LIG    1       26.034 -23.623   6.581  0.00  0.00    +0.012 C 
ENDBRANCH   1   8
BRANCH   2   9
ATOM      9  C   LIG    1       27.612 -21.039   6.897  0.00  0.00    +0.062 C 
BRANCH   9  10
ATOM     10  C   LIG    1       29.017 -20.611   7.189  0.00  0.00    +0.038 A 
ATOM     11  N   LIG    1       29.695 -19.559   6.615  0.00  0.00    -0.337 N 
ATOM     12  C   LIG    1       29.235 -18.629   5.614  0.00  0.00    +0.150 C 
ATOM     13  C   LIG    1       30.939 -19.503   7.182  0.00  0.00    +0.199 A 
ATOM     14  N   LIG    1       31.094 -20.430   8.098  0.00  0.00    -0.244 NA
ATOM     15  C   LIG    1       29.908 -21.111   8.122  0.00  0.00    +0.133 A 
ENDBRANCH   9  10
ENDBRANCH   2   9
TORSDOF 3
ENDMDL
MODEL 3
REMARK VINA RESULT:      -6.4      3.365      5.475
REMARK  Name = *****
REMARK                            x       y       z     vdW  Elec       q    Type
REMARK                         _______ _______ _______ _____ _____    ______ ____
ROOT
ATOM      1  C   LIG    1       25.599 -21.357   6.392  0.00  0.00    +0.104 C 
ATOM      2  C   LIG    1       26.925 -21.436   7.161  0.00  0.00    +0.046 C 
ATOM      3  C   LIG    1       26.456 -22.210   8.384  0.00  0.00    +0.236 C 
ATOM      4  O   LIG    1       25.151 -21.706   8.673  0.00  0.00    -0.464 OA
ATOM      5  C   LIG    1       24.610 -21.202   7.524  0.00  0.00    +0.311 C 
ATOM      6  O   LIG    1       23.484 -20.735   7.444  0.00  0.00    -0.251 OA
ENDROOT
BRANCH   1   8
ATOM      7  C   LIG    1       24.622 -20.748   4.127  0.00  0.00    +0.004 C 
ATOM      8  C   LIG    1       25.437 -20.279   5.323  0.00  0.00    +0.012 C 
ENDBRANCH   1   8
BRANCH   2   9
ATOM      9  C   LIG    1       27.531 -20.062   7.521  0.00  0.00    +0.062 C 
BRANCH   9  10
ATOM     10  C   LIG    1       29.026 -20.003   7.466  0.00  0.00    +0.038 A 
ATOM     11  N   LIG    1       29.791 -19.236   6.616  0.00  0.00    -0.337 N 
ATOM     12  C   LIG    1       29.356 -18.321   5.590  0.00  0.00    +0.150 C 
ATOM     13  C   LIG    1       31.106 -19.464   6.916  0.00  0.00    +0.199 A 
ATOM     14  N   LIG    1       31.235 -20.302   7.917  0.00  0.00    -0.244 NA
ATOM     15  C   LIG    1       29.957 -20.631   8.275  0.00  0.00    +0.133 A 
ENDBRANCH   9  10
ENDBRANCH   2   9
TORSDOF 3
ENDMDL
MODEL 4
REMARK VINA RESULT:      -6.4      1.490      1.987
REMARK  Name = *****
REMARK                            x       y       z     vdW  Elec       q    Type
REMARK                         _______ _______ _______ _____ _____    ______ ____
ROOT
ATOM      1  C   LIG    1       27.780 -20.009   7.242  0.00  0.00    +0.104 C 
ATOM      2  C   LIG    1       26.274 -20.308   7.216  0.00  0.00    +0.046 C 
ATOM      3  C   LIG    1       26.129 -20.972   8.577  0.00  0.00    +0.236 C 
ATOM      4  O   LIG    1       27.311 -21.758   8.741  0.00  0.00    -0.464 OA
ATOM      5  C   LIG    1       28.308 -21.220   7.977  0.00  0.00    +0.311 C 
ATOM      6  O   LIG    1       29.451 -21.649   7.940  0.00  0.00    -0.251 OA
ENDROOT
BRANCH   1   8
ATOM      7  C   LIG    1       29.511 -18.635   5.989  0.00  0.00    +0.004 C 
ATOM      8  C   LIG    1       28.501 -19.770   5.918  0.00  0.00    +0.012 C 
ENDBRANCH   1   8
BRANCH   2   9
ATOM      9  C   LIG    1       25.831 -21.224   6.055  0.00  0.00    +0.062 C 
BRANCH   9  10
ATOM     10  C   LIG    1       24.461 -20.941   5.521  0.00  0.00    +0.038 A 
ATOM     11  N   LIG    1       23.288 -21.565   5.884  0.00  0.00    -0.337 N 
ATOM     12  C   LIG    1       23.089 -22.620   6.846  0.00  0.00    +0.150 C 
ATOM     13  C   LIG    1       22.271 -20.989   5.174  0.00  0.00    +0.199 A 
ATOM     14  N   LIG    1       22.707 -20.022   4.402  0.00  0.00    -0.244 NA
ATOM     15  C   LIG    1       24.056 -19.973   4.619  0.00  0.00    +0.133 A 
ENDBRANCH   9  10
ENDBRANCH   2   9
TORSDOF 3
ENDMDL
MODEL 5
REMARK VINA RESULT:      -6.3      3.110      5.332
REMARK  Name = *****
REMARK                            x       y       z     vdW  Elec       q    Type
REMARK                         _______ _______ _______ _____ _____    ______ ____
ROOT
ATOM      1  C   LIG    1       25.830 -22.620   7.713  0.00  0.00    +0.104 C 
ATOM      2  C   LIG    1       26.874 -21.498   7.805  0.00  0.00    +0.046 C 
ATOM      3  C   LIG    1       26.110 -20.520   8.685  0.00  0.00    +0.236 C 
ATOM      4  O   LIG    1       24.752 -20.601   8.249  0.00  0.00    -0.464 OA
ATOM      5  C   LIG    1       24.545 -21.825   7.678  0.00  0.00    +0.311 C 
ATOM      6  O   LIG    1       23.468 -22.207   7.246  0.00  0.00    -0.251 OA
ENDROOT
BRANCH   1   8
ATOM      7  C   LIG    1       25.702 -25.057   7.006  0.00  0.00    +0.004 C 
ATOM      8  C   LIG    1       25.930 -23.620   6.564  0.00  0.00    +0.012 C 
ENDBRANCH   1   8
BRANCH   2   9
ATOM      9  C   LIG    1       27.270 -20.890   6.442  0.00  0.00    +0.062 C 
BRANCH   9  10
ATOM     10  C   LIG    1       28.517 -20.061   6.465  0.00  0.00    +0.038 A 
ATOM     11  N   LIG    1       29.641 -20.281   7.230  0.00  0.00    -0.337 N 
ATOM     12  C   LIG    1       29.893 -21.337   8.178  0.00  0.00    +0.150 C 
ATOM     13  C   LIG    1       30.551 -19.305   6.928  0.00  0.00    +0.199 A 
ATOM     14  N   LIG    1       30.099 -18.493   6.003  0.00  0.00    -0.244 NA
ATOM     15  C   LIG    1       28.849 -18.958   5.698  0.00  0.00    +0.133 A 
ENDBRANCH   9  10
ENDBRANCH   2   9
TORSDOF 3
ENDMDL
MODEL 6
REMARK VINA RESULT:      -6.3      2.073      3.010
REMARK  Name = *****
REMARK                            x       y       z     vdW  Elec       q    Type
REMARK                         _______ _______ _______ _____ _____    ______ ____
ROOT
ATOM      1  C   LIG    1       26.330 -21.408   7.141  0.00  0.00    +0.104 C 
ATOM      2  C   LIG    1       25.468 -22.543   6.570  0.00  0.00    +0.046 C 
ATOM      3  C   LIG    1       24.091 -22.030   6.964  0.00  0.00    +0.236 C 
ATOM      4  O   LIG    1       24.261 -21.445   8.256  0.00  0.00    -0.464 OA
ATOM      5  C   LIG    1       25.564 -21.059   8.397  0.00  0.00    +0.311 C 
ATOM      6  O   LIG    1       26.007 -20.489   9.382  0.00  0.00    -0.251 OA
ENDROOT
BRANCH   1   8
ATOM      7  C   LIG    1       28.723 -20.612   6.836  0.00  0.00    +0.004 C 
ATOM      8  C   LIG    1       27.807 -21.679   7.416  0.00  0.00    +0.012 C 
ENDBRANCH   1   8
BRANCH   2   9
ATOM      9  C   LIG    1       25.778 -23.934   7.165  0.00  0.00    +0.062 C 
BRANCH   9  10
ATOM     10  C   LIG    1       25.647 -25.071   6.199  0.00  0.00    +0.038 A 
ATOM     11  N   LIG    1       25.889 -26.402   6.455  0.00  0.00    -0.337 N 
ATOM     12  C   LIG    1       26.319 -27.021   7.684  0.00  0.00    +0.150 C 
ATOM     13  C   LIG    1       25.625 -27.103   5.309  0.00  0.00    +0.199 A 
ATOM     14  N   LIG    1       25.205 -26.316   4.347  0.00  0.00    -0.244 NA
ATOM     15  C   LIG    1       25.200 -25.060   4.890  0.00  0.00    +0.133 A 
ENDBRANCH   9  10
ENDBRANCH   2   9
TORSDOF 3
ENDMDL
MODEL 7
REMARK VINA RESULT:      -6.2      2.338      3.548
REMARK  Name = *****
REMARK                            x       y       z     vdW  Elec       q    Type
REMARK                         _______ _______ _______ _____ _____    ______ ____
ROOT
ATOM      1  C   LIG    1       30.295 -20.361   7.572  0.00  0.00    +0.104 C 
ATOM      2  C   LIG    1       29.129 -20.151   6.597  0.00  0.00    +0.046 C 
ATOM      3  C   LIG    1       29.494 -18.773   6.067  0.00  0.00    +0.236 C 
ATOM      4  O   LIG    1       30.010 -18.059   7.192  0.00  0.00    -0.464 OA
ATOM      5  C   LIG    1       30.498 -18.959   8.098  0.00  0.00    +0.311 C 
ATOM      6  O   LIG    1       31.041 -18.649   9.147  0.00  0.00    -0.251 OA
ENDROOT
BRANCH   1   8
ATOM      7  C   LIG    1       31.445 -22.069   9.062  0.00  0.00    +0.004 C 
ATOM      8  C   LIG    1       30.136 -21.387   8.692  0.00  0.00    +0.012 C 
ENDBRANCH   1   8
BRANCH   2   9
ATOM      9  C   LIG    1       27.735 -20.183   7.262  0.00  0.00    +0.062 C 
BRANCH   9  10
ATOM     10  C   LIG    1       26.634 -20.692   6.384  0.00  0.00    +0.038 A 
ATOM     11  N   LIG    1       25.860 -21.810   6.596  0.00  0.00    -0.337 N 
ATOM     12  C   LIG    1       25.912 -22.749   7.689  0.00  0.00    +0.150 C 
ATOM     13  C   LIG    1       24.960 -21.898   5.569  0.00  0.00    +0.199 A 
ATOM     14  N   LIG    1       25.088 -20.899   4.728  0.00  0.00    -0.244 NA
ATOM     15  C   LIG    1       26.109 -20.139   5.229  0.00  0.00    +0.133 A 
ENDBRANCH   9  10
ENDBRANCH   2   9
TORSDOF 3
ENDMDL
MODEL 8
REMARK VINA RESULT:      -6.2      3.277      5.213
REMARK  Name = *****
REMARK                            x       y       z     vdW  Elec       q    Type
REMARK                         _______ _______ _______ _____ _____    ______ ____
ROOT
ATOM      1  C   LIG    1       25.709 -21.227   6.126  0.00  0.00    +0.104 C 
ATOM      2  C   LIG    1       26.845 -21.494   7.123  0.00  0.00    +0.046 C 
ATOM      3  C   LIG    1       26.107 -22.391   8.105  0.00  0.00    +0.236 C 
ATOM      4  O   LIG    1       24.789 -21.846   8.198  0.00  0.00    -0.464 OA
ATOM      5  C   LIG    1       24.514 -21.160   7.049  0.00  0.00    +0.311 C 
ATOM      6  O   LIG    1       23.447 -20.615   6.815  0.00  0.00    -0.251 OA
ENDROOT
BRANCH   1   8
ATOM      7  C   LIG    1       25.104 -20.207   3.879  0.00  0.00    +0.004 C 
ATOM      8  C   LIG    1       25.810 -20.009   5.212  0.00  0.00    +0.012 C 
ENDBRANCH   1   8
BRANCH   2   9
ATOM      9  C   LIG    1       27.413 -20.222   7.790  0.00  0.00    +0.062 C 
BRANCH   9  10
ATOM     10  C   LIG    1       28.773 -19.817   7.310  0.00  0.00    +0.038 A 
ATOM     11  N   LIG    1       29.979 -20.350   7.704  0.00  0.00    -0.337 N 
ATOM     12  C   LIG    1       30.231 -21.405   8.653  0.00  0.00    +0.150 C 
ATOM     13  C   LIG    1       30.967 -19.711   7.006  0.00  0.00    +0.199 A 
ATOM     14  N   LIG    1       30.475 -18.824   6.174  0.00  0.00    -0.244 NA
ATOM     15  C   LIG    1       29.119 -18.891   6.342  0.00  0.00    +0.133 A 
ENDBRANCH   9  10
ENDBRANCH   2   9
TORSDOF 3
ENDMDL
MODEL 9
REMARK VINA RESULT:      -6.2      2.975      4.276
REMARK  Name = *****
REMARK                            x       y       z     vdW  Elec       q    Type
REMARK                         _______ _______ _______ _____ _____    ______ ____
ROOT
ATOM      1  C   LIG    1       25.168 -23.033   7.408  0.00  0.00    +0.104 C 
ATOM      2  C   LIG    1       23.973 -22.403   6.680  0.00  0.00    +0.046 C 
ATOM      3  C   LIG    1       23.022 -23.590   6.689  0.00  0.00    +0.236 C 
ATOM      4  O   LIG    1       23.847 -24.736   6.469  0.00  0.00    -0.464 OA
ATOM      5  C   LIG    1       25.116 -24.451   6.887  0.00  0.00    +0.311 C 
ATOM      6  O   LIG    1       26.040 -25.249   6.864  0.00  0.00    -0.251 OA
ENDROOT
BRANCH   1   8
ATOM      7  C   LIG    1       26.706 -21.107   8.025  0.00  0.00    +0.004 C 
ATOM      8  C   LIG    1       26.546 -22.399   7.237  0.00  0.00    +0.012 C 
ENDBRANCH   1   8
BRANCH   2   9
ATOM      9  C   LIG    1       24.292 -21.906   5.253  0.00  0.00    +0.062 C 
BRANCH   9  10
ATOM     10  C   LIG    1       23.603 -20.634   4.864  0.00  0.00    +0.038 A 
ATOM     11  N   LIG    1       24.148 -19.582   4.163  0.00  0.00    -0.337 N 
ATOM     12  C   LIG    1       25.484 -19.442   3.640  0.00  0.00    +0.150 C 
ATOM     13  C   LIG    1       23.173 -18.635   4.003  0.00  0.00    +0.199 A 
ATOM     14  N   LIG    1       22.035 -19.020   4.529  0.00  0.00    -0.244 NA
ATOM     15  C   LIG    1       22.284 -20.260   5.051  0.00  0.00    +0.133 A 
ENDBRANCH   9  10
ENDBRANCH   2   9
TORSDOF 3
ENDMDL
