MODEL 1
REMARK VINA RESULT:      -4.5      0.000      0.000
REMARK  Name = *****
REMARK                            x       y       z     vdW  Elec       q    Type
REMARK                         _______ _______ _______ _____ _____    ______ ____
ROOT
ATOM      1  C   LIG    1       26.675 -14.436   4.244  0.00  0.00    +0.177 C 
ENDROOT
BRANCH   1   2
ATOM      2  O   LIG    1       27.604 -15.386   3.699  0.00  0.00    -0.387 OA
ATOM      3  H   LIG    1       27.911 -15.004   2.852  0.00  0.00    +0.210 HD
ENDBRANCH   1   2
BRANCH   1   4
ATOM      4  C   LIG    1       26.008 -13.645   3.088  0.00  0.00    +0.186 C 
BRANCH   4   5
ATOM      5  C   LIG    1       24.486 -13.747   3.156  0.00  0.00    +0.259 C 
ATOM      6  F   LIG    1       24.136 -14.679   4.091  0.00  0.00    -0.235 F 
BRANCH   5   8
ATOM      7  O   LIG    1       23.974 -11.850   4.585  0.00  0.00    -0.298 OA
ATOM      8  C   LIG    1       23.901 -12.388   3.490  0.00  0.00    +0.262 C 
ENDBRANCH   5   8
ENDBRANCH   4   5
BRANCH   4   9
ATOM      9  O   LIG    1       26.450 -14.140   1.812  0.00  0.00    -0.386 OA
ATOM     10  H   LIG    1       26.953 -14.966   1.986  0.00  0.00    +0.210 HD
ENDBRANCH   4   9
ENDBRANCH   1   4
BRANCH   1  11
ATOM     11  C   LIG    1       27.411 -13.522   5.249  0.00  0.00    +0.171 C 
BRANCH  11  12
ATOM     12  O   LIG    1       26.464 -12.668   5.918  0.00  0.00    -0.387 OA
ATOM     13  H   LIG    1       26.150 -13.193   6.685  0.00  0.00    +0.210 HD
ENDBRANCH  11  12
BRANCH  11  14
ATOM     14  C   LIG    1       28.484 -12.660   4.563  0.00  0.00    +0.190 C 
BRANCH  14  15
ATOM     15  O   LIG    1       29.118 -11.836   5.547  0.00  0.00    -0.392 OA
ATOM     16  H   LIG    1       28.438 -11.628   6.214  0.00  0.00    +0.209 HD
ENDBRANCH  14  15
ENDBRANCH  11  14
ENDBRANCH   1  11
TORSDOF 9
ENDMDL
MODEL 2
REMARK VINA RESULT:      -4.3      1.580      1.776
REMARK  Name = *****
REMARK                            x       y       z     vdW  Elec       q    Type
REMARK                         _______ _______ _______ _____ _____    ______ ____
ROOT
ATOM      1  C   LIG    1       26.560 -14.043   3.298  0.00  0.00    +0.177 C 
ENDROOT
BRANCH   1   2
ATOM      2  O   LIG    1       27.140 -14.226   1.996  0.00  0.00    -0.387 OA
ATOM      3  H   LIG    1       26.580 -14.891   1.546  0.00  0.00    +0.210 HD
ENDBRANCH   1   2
BRANCH   1   4
ATOM      4  C   LIG    1       25.578 -12.843   3.261  0.00  0.00    +0.186 C 
BRANCH   4   5
ATOM      5  C   LIG    1       24.387 -13.076   4.189  0.00  0.00    +0.259 C 
ATOM      6  F   LIG    1       23.411 -12.161   3.912  0.00  0.00    -0.235 F 
BRANCH   5   8
ATOM      7  O   LIG    1       23.060 -15.035   4.743  0.00  0.00    -0.298 OA
ATOM      8  C   LIG    1       23.877 -14.493   4.012  0.00  0.00    +0.262 C 
ENDBRANCH   5   8
ENDBRANCH   4   5
BRANCH   4   9
ATOM      9  O   LIG    1       25.091 -12.625   1.926  0.00  0.00    -0.386 OA
ATOM     10  H   LIG    1       24.556 -11.801   1.949  0.00  0.00    +0.210 HD
ENDBRANCH   4   9
ENDBRANCH   1   4
BRANCH   1  11
ATOM     11  C   LIG    1       27.688 -13.862   4.337  0.00  0.00    +0.171 C 
BRANCH  11  12
ATOM     12  O   LIG    1       27.136 -13.398   5.584  0.00  0.00    -0.387 OA
ATOM     13  H   LIG    1       26.190 -13.657   5.551  0.00  0.00    +0.210 HD
ENDBRANCH  11  12
BRANCH  11  14
ATOM     14  C   LIG    1       28.764 -12.875   3.853  0.00  0.00    +0.190 C 
BRANCH  14  15
ATOM     15  O   LIG    1       29.118 -12.006   4.934  0.00  0.00    -0.392 OA
ATOM     16  H   LIG    1       28.313 -11.502   5.159  0.00  0.00    +0.209 HD
ENDBRANCH  14  15
ENDBRANCH  11  14
ENDBRANCH   1  11
TORSDOF 9
ENDMDL
MODEL 3
REMARK VINA RESULT:      -4.2      1.368      2.457
REMARK  Name = *****
REMARK                            x       y       z     vdW  Elec       q    Type
REMARK                         _______ _______ _______ _____ _____    ______ ____
ROOT
ATOM      1  C   LIG    1       26.646 -12.961   4.070  0.00  0.00    +0.177 C 
ENDROOT
BRANCH   1   2
ATOM      2  O   LIG    1       26.452 -13.335   5.443  0.00  0.00    -0.387 OA
ATOM      3  H   LIG    1       26.799 -12.590   5.975  0.00  0.00    +0.210 HD
ENDBRANCH   1   2
BRANCH   1   4
ATOM      4  C   LIG    1       25.528 -13.591   3.200  0.00  0.00    +0.186 C 
BRANCH   4   5
ATOM      5  C   LIG    1       24.826 -14.727   3.941  0.00  0.00    +0.259 C 
ATOM      6  F   LIG    1       23.474 -14.544   3.874  0.00  0.00    -0.235 F 
BRANCH   5   8
ATOM      7  O   LIG    1       26.378 -16.469   3.261  0.00  0.00    -0.298 OA
ATOM      8  C   LIG    1       25.230 -16.056   3.333  0.00  0.00    +0.262 C 
ENDBRANCH   5   8
ENDBRANCH   4   5
BRANCH   4   9
ATOM      9  O   LIG    1       26.069 -14.104   1.970  0.00  0.00    -0.386 OA
ATOM     10  H   LIG    1       25.605 -14.950   1.786  0.00  0.00    +0.210 HD
ENDBRANCH   4   9
ENDBRANCH   1   4
BRANCH   1  11
ATOM     11  C   LIG    1       28.064 -13.382   3.622  0.00  0.00    +0.171 C 
BRANCH  11  12
ATOM     12  O   LIG    1       28.353 -14.710   4.098  0.00  0.00    -0.387 OA
ATOM     13  H   LIG    1       28.354 -14.632   5.076  0.00  0.00    +0.210 HD
ENDBRANCH  11  12
BRANCH  11  14
ATOM     14  C   LIG    1       29.140 -12.408   4.131  0.00  0.00    +0.190 C 
BRANCH  14  15
ATOM     15  O   LIG    1       28.837 -12.045   5.483  0.00  0.00    -0.392 OA
ATOM     16  H   LIG    1       28.517 -12.856   5.922  0.00  0.00    +0.209 HD
ENDBRANCH  14  15
ENDBRANCH  11  14
ENDBRANCH   1  11
TORSDOF 9
ENDMDL
MODEL 4
REMARK VINA RESULT:      -4.1      6.962      7.751
REMARK  Name = *****
REMARK                            x       y       z     vdW  Elec       q    Type
REMARK                         _______ _______ _______ _____ _____    ______ ____
ROOT
ATOM      1  C   LIG    1       24.769 -21.561   5.261  0.00  0.00    +0.177 C 
ENDROOT
BRANCH   1   2
ATOM      2  O   LIG    1       24.702 -21.572   3.826  0.00  0.00    -0.387 OA
ATOM      3  H   LIG    1       25.557 -21.937   3.521  0.00  0.00    +0.210 HD
ENDBRANCH   1   2
BRANCH   1   4
ATOM      4  C   LIG    1       23.355 -21.299   5.842  0.00  0.00    +0.186 C 
BRANCH   4   5
ATOM      5  C   LIG    1       22.461 -20.595   4.823  0.00  0.00    +0.259 C 
ATOM      6  F   LIG    1       21.233 -21.194   4.808  0.00  0.00    -0.235 F 
BRANCH   5   8
ATOM      7  O   LIG    1       22.293 -18.216   4.359  0.00  0.00    -0.298 OA
ATOM      8  C   LIG    1       22.350 -19.125   5.175  0.00  0.00    +0.262 C 
ENDBRANCH   5   8
ENDBRANCH   4   5
BRANCH   4   9
ATOM      9  O   LIG    1       23.435 -20.488   7.027  0.00  0.00    -0.386 OA
ATOM     10  H   LIG    1       24.304 -20.031   7.001  0.00  0.00    +0.210 HD
ENDBRANCH   4   9
ENDBRANCH   1   4
BRANCH   1  11
ATOM     11  C   LIG    1       25.808 -20.512   5.715  0.00  0.00    +0.171 C 
BRANCH  11  12
ATOM     12  O   LIG    1       26.553 -20.036   4.578  0.00  0.00    -0.387 OA
ATOM     13  H   LIG    1       26.565 -20.791   3.952  0.00  0.00    +0.210 HD
ENDBRANCH  11  12
BRANCH  11  14
ATOM     14  C   LIG    1       26.778 -21.081   6.764  0.00  0.00    +0.190 C 
BRANCH  14  15
ATOM     15  O   LIG    1       28.122 -20.877   6.313  0.00  0.00    -0.392 OA
ATOM     16  H   LIG    1       28.069 -20.699   5.355  0.00  0.00    +0.209 HD
ENDBRANCH  14  15
ENDBRANCH  11  14
ENDBRANCH   1  11
TORSDOF 9
ENDMDL
MODEL 5
REMARK VINA RESULT:      -4.1      1.263      2.131
REMARK  Name = *****
REMARK                            x       y       z     vdW  Elec       q    Type
REMARK                         _______ _______ _______ _____ _____    ______ ____
ROOT
ATOM      1  C   LIG    1       26.768 -14.540   4.172  0.00  0.00    +0.177 C 
ENDROOT
BRANCH   1   2
ATOM      2  O   LIG    1       26.521 -15.760   3.454  0.00  0.00    -0.387 OA
ATOM      3  H   LIG    1       27.308 -15.901   2.889  0.00  0.00    +0.210 HD
ENDBRANCH   1   2
BRANCH   1   4
ATOM      4  C   LIG    1       25.443 -14.033   4.799  0.00  0.00    +0.186 C 
BRANCH   4   5
ATOM      5  C   LIG    1       24.244 -14.399   3.926  0.00  0.00    +0.259 C 
ATOM      6  F   LIG    1       23.205 -14.787   4.724  0.00  0.00    -0.235 F 
BRANCH   5   8
ATOM      7  O   LIG    1       24.425 -12.891   2.030  0.00  0.00    -0.298 OA
ATOM      8  C   LIG    1       23.861 -13.211   3.066  0.00  0.00    +0.262 C 
ENDBRANCH   5   8
ENDBRANCH   4   5
BRANCH   4   9
ATOM      9  O   LIG    1       25.474 -12.605   4.969  0.00  0.00    -0.386 OA
ATOM     10  H   LIG    1       26.407 -12.362   5.157  0.00  0.00    +0.210 HD
ENDBRANCH   4   9
ENDBRANCH   1   4
BRANCH   1  11
ATOM     11  C   LIG    1       27.414 -13.509   3.220  0.00  0.00    +0.171 C 
BRANCH  11  12
ATOM     12  O   LIG    1       27.392 -14.009   1.870  0.00  0.00    -0.387 OA
ATOM     13  H   LIG    1       27.045 -14.923   1.946  0.00  0.00    +0.210 HD
ENDBRANCH  11  12
BRANCH  11  14
ATOM     14  C   LIG    1       28.862 -13.183   3.624  0.00  0.00    +0.190 C 
BRANCH  14  15
ATOM     15  O   LIG    1       28.844 -12.352   4.789  0.00  0.00    -0.392 OA
ATOM     16  H   LIG    1       29.741 -11.979   4.878  0.00  0.00    +0.209 HD
ENDBRANCH  14  15
ENDBRANCH  11  14
ENDBRANCH   1  11
TORSDOF 9
ENDMDL
MODEL 6
REMARK VINA RESULT:      -4.0      1.886      4.074
REMARK  Name = *****
REMARK                            x       y       z     vdW  Elec       q    Type
REMARK                         _______ _______ _______ _____ _____    ______ ____
ROOT
ATOM      1  C   LIG    1       26.165 -13.487   2.926  0.00  0.00    +0.177 C 
ENDROOT
BRANCH   1   2
ATOM      2  O   LIG    1       26.857 -14.074   1.812  0.00  0.00    -0.387 OA
ATOM      3  H   LIG    1       27.746 -13.665   1.804  0.00  0.00    +0.210 HD
ENDBRANCH   1   2
BRANCH   1   4
ATOM      4  C   LIG    1       26.628 -14.171   4.239  0.00  0.00    +0.186 C 
BRANCH   4   5
ATOM      5  C   LIG    1       27.170 -13.146   5.234  0.00  0.00    +0.259 C 
ATOM      6  F   LIG    1       27.207 -13.701   6.481  0.00  0.00    -0.235 F 
BRANCH   5   8
ATOM      7  O   LIG    1       29.019 -12.874   3.681  0.00  0.00    -0.298 OA
ATOM      8  C   LIG    1       28.549 -12.693   4.794  0.00  0.00    +0.262 C 
ENDBRANCH   5   8
ENDBRANCH   4   5
BRANCH   4   9
ATOM      9  O   LIG    1       27.651 -15.145   3.972  0.00  0.00    -0.386 OA
ATOM     10  H   LIG    1       27.481 -15.907   4.568  0.00  0.00    +0.210 HD
ENDBRANCH   4   9
ENDBRANCH   1   4
BRANCH   1  11
ATOM     11  C   LIG    1       24.642 -13.598   2.697  0.00  0.00    +0.171 C 
BRANCH  11  12
ATOM     12  O   LIG    1       24.198 -12.536   1.831  0.00  0.00    -0.387 OA
ATOM     13  H   LIG    1       23.312 -12.288   2.171  0.00  0.00    +0.210 HD
ENDBRANCH  11  12
BRANCH  11  14
ATOM     14  C   LIG    1       23.857 -13.544   4.019  0.00  0.00    +0.190 C 
BRANCH  14  15
ATOM     15  O   LIG    1       23.329 -14.845   4.299  0.00  0.00    -0.392 OA
ATOM     16  H   LIG    1       22.626 -15.006   3.642  0.00  0.00    +0.209 HD
ENDBRANCH  14  15
ENDBRANCH  11  14
ENDBRANCH   1  11
TORSDOF 9
ENDMDL
MODEL 7
REMARK VINA RESULT:      -3.9      6.459      7.507
REMARK  Name = *****
REMARK                            x       y       z     vdW  Elec       q    Type
REMARK                         _______ _______ _______ _____ _____    ______ ____
ROOT
ATOM      1  C   LIG    1       24.804 -20.315   5.795  0.00  0.00    +0.177 C 
ENDROOT
BRANCH   1   2
ATOM      2  O   LIG    1       25.570 -20.582   6.981  0.00  0.00    -0.387 OA
ATOM      3  H   LIG    1       25.401 -21.520   7.202  0.00  0.00    +0.210 HD
ENDBRANCH   1   2
BRANCH   1   4
ATOM      4  C   LIG    1       23.615 -21.309   5.714  0.00  0.00    +0.186 C 
BRANCH   4   5
ATOM      5  C   LIG    1       22.500 -20.763   4.825  0.00  0.00    +0.259 C 
ATOM      6  F   LIG    1       21.354 -21.471   5.050  0.00  0.00    -0.235 F 
BRANCH   5   8
ATOM      7  O   LIG    1       21.938 -18.461   4.288  0.00  0.00    -0.298 OA
ATOM      8  C   LIG    1       22.298 -19.288   5.112  0.00  0.00    +0.262 C 
ENDBRANCH   5   8
ENDBRANCH   4   5
BRANCH   4   9
ATOM      9  O   LIG    1       23.081 -21.569   7.023  0.00  0.00    -0.386 OA
ATOM     10  H   LIG    1       22.652 -20.739   7.325  0.00  0.00    +0.210 HD
ENDBRANCH   4   9
ENDBRANCH   1   4
BRANCH   1  11
ATOM     11  C   LIG    1       25.731 -20.389   4.562  0.00  0.00    +0.171 C 
BRANCH  11  12
ATOM     12  O   LIG    1       27.101 -20.209   4.967  0.00  0.00    -0.387 OA
ATOM     13  H   LIG    1       27.357 -19.332   4.608  0.00  0.00    +0.210 HD
ENDBRANCH  11  12
BRANCH  11  14
ATOM     14  C   LIG    1       25.366 -19.332   3.505  0.00  0.00    +0.190 C 
BRANCH  14  15
ATOM     15  O   LIG    1       26.345 -18.289   3.532  0.00  0.00    -0.392 OA
ATOM     16  H   LIG    1       26.948 -18.455   2.783  0.00  0.00    +0.209 HD
ENDBRANCH  14  15
ENDBRANCH  11  14
ENDBRANCH   1  11
TORSDOF 9
ENDMDL
MODEL 8
REMARK VINA RESULT:      -3.9      1.922      3.860
REMARK  Name = *****
REMARK                            x       y       z     vdW  Elec       q    Type
REMARK                         _______ _______ _______ _____ _____    ______ ____
ROOT
ATOM      1  C   LIG    1       25.731 -14.775   3.424  0.00  0.00    +0.177 C 
ENDROOT
BRANCH   1   2
ATOM      2  O   LIG    1       25.579 -16.190   3.228  0.00  0.00    -0.387 OA
ATOM      3  H   LIG    1       26.035 -16.615   3.983  0.00  0.00    +0.210 HD
ENDBRANCH   1   2
BRANCH   1   4
ATOM      4  C   LIG    1       27.133 -14.485   4.021  0.00  0.00    +0.186 C 
BRANCH   4   5
ATOM      5  C   LIG    1       27.901 -13.481   3.163  0.00  0.00    +0.259 C 
ATOM      6  F   LIG    1       27.015 -12.668   2.515  0.00  0.00    -0.235 F 
BRANCH   5   8
ATOM      7  O   LIG    1       28.625 -12.388   5.209  0.00  0.00    -0.298 OA
ATOM      8  C   LIG    1       28.841 -12.679   4.041  0.00  0.00    +0.262 C 
ENDBRANCH   5   8
ENDBRANCH   4   5
BRANCH   4   9
ATOM      9  O   LIG    1       27.903 -15.695   4.122  0.00  0.00    -0.386 OA
ATOM     10  H   LIG    1       28.828 -15.464   3.883  0.00  0.00    +0.210 HD
ENDBRANCH   4   9
ENDBRANCH   1   4
BRANCH   1  11
ATOM     11  C   LIG    1       24.581 -14.257   4.315  0.00  0.00    +0.171 C 
BRANCH  11  12
ATOM     12  O   LIG    1       23.449 -15.141   4.218  0.00  0.00    -0.387 OA
ATOM     13  H   LIG    1       23.013 -15.090   5.096  0.00  0.00    +0.210 HD
ENDBRANCH  11  12
BRANCH  11  14
ATOM     14  C   LIG    1       24.154 -12.830   3.930  0.00  0.00    +0.190 C 
BRANCH  14  15
ATOM     15  O   LIG    1       23.707 -12.830   2.570  0.00  0.00    -0.392 OA
ATOM     16  H   LIG    1       22.734 -12.765   2.598  0.00  0.00    +0.209 HD
ENDBRANCH  14  15
ENDBRANCH  11  14
ENDBRANCH   1  11
TORSDOF 9
ENDMDL
MODEL 9
REMARK VINA RESULT:      -3.9      6.510      7.399
REMARK  Name = *****
REMARK                            x       y       z     vdW  Elec       q    Type
REMARK                         _______ _______ _______ _____ _____    ______ ____
ROOT
ATOM      1  C   LIG    1       25.697 -20.863   4.851  0.00  0.00    +0.177 C 
ENDROOT
BRANCH   1   2
ATOM      2  O   LIG    1       26.996 -20.346   4.520  0.00  0.00    -0.387 OA
ATOM      3  H   LIG    1       26.848 -19.429   4.212  0.00  0.00    +0.210 HD
ENDBRANCH   1   2
BRANCH   1   4
ATOM      4  C   LIG    1       24.664 -20.371   3.803  0.00  0.00    +0.186 C 
BRANCH   4   5
ATOM      5  C   LIG    1       24.165 -18.967   4.138  0.00  0.00    +0.259 C 
ATOM      6  F   LIG    1       24.717 -18.069   3.268  0.00  0.00    -0.235 F 
BRANCH   5   8
ATOM      7  O   LIG    1       21.907 -19.014   5.035  0.00  0.00    -0.298 OA
ATOM      8  C   LIG    1       22.650 -18.937   4.068  0.00  0.00    +0.262 C 
ENDBRANCH   5   8
ENDBRANCH   4   5
BRANCH   4   9
ATOM      9  O   LIG    1       23.538 -21.262   3.742  0.00  0.00    -0.386 OA
ATOM     10  H   LIG    1       23.899 -22.176   3.717  0.00  0.00    +0.210 HD
ENDBRANCH   4   9
ENDBRANCH   1   4
BRANCH   1  11
ATOM     11  C   LIG    1       25.334 -20.445   6.293  0.00  0.00    +0.171 C 
BRANCH  11  12
ATOM     12  O   LIG    1       26.534 -20.244   7.062  0.00  0.00    -0.387 OA
ATOM     13  H   LIG    1       27.252 -20.622   6.510  0.00  0.00    +0.210 HD
ENDBRANCH  11  12
BRANCH  11  14
ATOM     14  C   LIG    1       24.448 -21.494   6.988  0.00  0.00    +0.190 C 
BRANCH  14  15
ATOM     15  O   LIG    1       23.074 -21.126   6.820  0.00  0.00    -0.392 OA
ATOM     16  H   LIG    1       22.670 -21.152   7.708  0.00  0.00    +0.209 HD
ENDBRANCH  14  15
ENDBRANCH  11  14
ENDBRANCH   1  11
TORSDOF 9
ENDMDL
