MODEL 1
REMARK VINA RESULT:      -3.7      0.000      0.000
REMARK  Name = *****
REMARK                            x       y       z     vdW  Elec       q    Type
REMARK                         _______ _______ _______ _____ _____    ______ ____
ROOT
ATOM      1  C   LIG    1       21.251 -27.655  14.815  0.00  0.00    -0.026 A 
ATOM      2  C   LIG    1       21.078 -28.918  14.197  0.00  0.00    +0.033 A 
ATOM      3  C   LIG    1       22.246 -29.608  13.787  0.00  0.00    +0.028 A 
ATOM      4  C   LIG    1       23.562 -29.126  13.993  0.00  0.00    -0.023 A 
ATOM      5  C   LIG    1       24.782 -29.979  13.565  0.00  0.00    +0.032 C 
ATOM      6  C   LIG    1       26.070 -29.297  13.969  0.00  0.00    +0.038 C 
ATOM      7  C   LIG    1       26.191 -28.075  14.597  0.00  0.00    +0.051 C 
ATOM      8  C   LIG    1       25.035 -27.271  14.937  0.00  0.00    +0.196 C 
ATOM      9  O   LIG    1       25.125 -26.171  15.470  0.00  0.00    -0.287 OA
ATOM     10  C   LIG    1       27.576 -27.834  14.823  0.00  0.00    +0.011 C 
ATOM     11  C   LIG    1       28.273 -28.924  14.296  0.00  0.00    +0.049 C 
ATOM     12  C   LIG    1       29.672 -29.017  14.345  0.00  0.00    +0.045 C 
ATOM     13  C   LIG    1       30.380 -27.968  14.957  0.00  0.00    +0.054 C 
ATOM     14  C   LIG    1       29.702 -26.873  15.498  0.00  0.00    +0.020 C 
ATOM     15  C   LIG    1       28.306 -26.795  15.435  0.00  0.00    +0.012 C 
ATOM     16  N   LIG    1       27.337 -29.793  13.775  0.00  0.00    -0.357 NA
ATOM     17  H   LIG    1       27.563 -30.672  13.330  0.00  0.00    +0.166 HD
ATOM     18  C   LIG    1       24.779 -30.177  12.034  0.00  0.00    +0.022 C 
ATOM     19  C   LIG    1       24.710 -31.354  14.267  0.00  0.00    +0.022 C 
ATOM     20  C   LIG    1       23.700 -27.874  14.620  0.00  0.00    +0.027 A 
ATOM     21  C   LIG    1       22.560 -27.153  15.000  0.00  0.00    +0.017 A 
ENDROOT
BRANCH   2  22
ATOM     22  N   LIG    1       19.788 -29.483  14.009  0.00  0.00    -0.330 N 
ATOM     23  C   LIG    1       19.425 -30.422  15.097  0.00  0.00    +0.106 C 
ATOM     24  C   LIG    1       17.930 -30.764  14.989  0.00  0.00    +0.037 C 
ATOM     25  C   LIG    1       17.554 -31.423  13.634  0.00  0.00    +0.060 C 
ATOM     26  C   LIG    1       18.046 -30.432  12.544  0.00  0.00    +0.037 C 
ATOM     27  C   LIG    1       19.535 -30.101  12.687  0.00  0.00    +0.106 C 
BRANCH  25  28
ATOM     28  N   LIG    1       18.082 -32.807  13.463  0.00  0.00    -0.295 NA
ATOM     29  C   LIG    1       17.066 -33.804  13.025  0.00  0.00    +0.113 C 
ATOM     30  C   LIG    1       16.671 -33.728  11.537  0.00  0.00    +0.175 C 
ATOM     31  O   LIG    1       17.815 -33.824  10.683  0.00  0.00    -0.377 OA
ATOM     32  C   LIG    1       18.769 -32.808  11.008  0.00  0.00    +0.175 C 
ATOM     33  C   LIG    1       19.200 -32.911  12.483  0.00  0.00    +0.113 C 
ENDBRANCH  25  28
ENDBRANCH   2  22
BRANCH   1  35
ATOM     34  C   LIG    1       19.194 -26.325  14.070  0.00  0.00    +0.009 C 
ATOM     35  C   LIG    1       20.104 -26.747  15.225  0.00  0.00    +0.033 C 
ENDBRANCH   1  35
BRANCH  13  36
ATOM     36  C   LIG    1       31.808 -28.021  15.030  0.00  0.00    +0.099 C 
ATOM     37  N   LIG    1       32.972 -28.063  15.089  0.00  0.00    -0.191 NA
ENDBRANCH  13  36
TORSDOF 4
ENDMDL
