MODEL 1
REMARK VINA RESULT:      -7.7      0.000      0.000
REMARK  Name = *****
REMARK                            x       y       z     vdW  Elec       q    Type
REMARK                         _______ _______ _______ _____ _____    ______ ____
ROOT
ATOM      1  C   LIG    1       29.703 -19.321   6.541  0.00  0.00    +0.286 C 
ATOM      2  N   LIG    1       30.749 -19.810   7.326  0.00  0.00    -0.119 NA
ATOM      3  O   LIG    1       31.942 -19.335   7.175  0.00  0.00    -0.616 OA
ATOM      4  C   LIG    1       30.474 -20.813   8.260  0.00  0.00    +0.386 C 
ATOM      5  N   LIG    1       29.226 -21.331   8.385  0.00  0.00    -0.156 NA
ATOM      6  C   LIG    1       28.212 -20.851   7.633  0.00  0.00    +0.137 C 
ATOM      7  C   LIG    1       28.427 -19.850   6.694  0.00  0.00    +0.141 C 
ENDROOT
BRANCH   6   8
ATOM      8  N   LIG    1       26.921 -21.406   7.764  0.00  0.00    -0.315 NA
ATOM      9  C   LIG    1       26.787 -22.703   7.077  0.00  0.00    +0.106 C 
ATOM     10  C   LIG    1       25.441 -23.339   7.430  0.00  0.00    +0.019 C 
ATOM     11  C   LIG    1       24.281 -22.398   7.120  0.00  0.00    +0.003 C 
ATOM     12  C   LIG    1       24.491 -21.048   7.797  0.00  0.00    +0.019 C 
ATOM     13  C   LIG    1       25.849 -20.450   7.429  0.00  0.00    +0.106 C 
ENDBRANCH   6   8
BRANCH   1  14
ATOM     14  N   LIG    1       29.972 -18.332   5.561  0.00  0.00    -0.304 NA
ATOM     15  H   LIG    1       30.991 -18.182   5.583  0.00  0.00    +0.148 HD
ATOM     16  H   LIG    1       29.470 -17.467   5.733  0.00  0.00    +0.148 HD
ENDBRANCH   1  14
BRANCH   4  17
ATOM     17  N   LIG    1       31.498 -21.320   9.069  0.00  0.00    -0.287 NA
ATOM     18  H   LIG    1       32.393 -20.967   8.733  0.00  0.00    +0.149 HD
ATOM     19  H   LIG    1       31.405 -22.320   9.196  0.00  0.00    +0.149 HD
ENDBRANCH   4  17
TORSDOF 3
ENDMDL
MODEL 2
REMARK VINA RESULT:      -7.7      1.422      2.678
REMARK  Name = *****
REMARK                            x       y       z     vdW  Elec       q    Type
REMARK                         _______ _______ _______ _____ _____    ______ ____
ROOT
ATOM      1  C   LIG    1       29.588 -20.927   7.850  0.00  0.00    +0.286 C 
ATOM      2  N   LIG    1       30.177 -19.900   7.110  0.00  0.00    -0.119 NA
ATOM      3  O   LIG    1       31.405 -19.566   7.340  0.00  0.00    -0.616 OA
ATOM      4  C   LIG    1       29.412 -19.253   6.135  0.00  0.00    +0.386 C 
ATOM      5  N   LIG    1       28.114 -19.586   5.928  0.00  0.00    -0.156 NA
ATOM      6  C   LIG    1       27.547 -20.586   6.637  0.00  0.00    +0.137 C 
ATOM      7  C   LIG    1       28.262 -21.269   7.613  0.00  0.00    +0.141 C 
ENDROOT
BRANCH   6   8
ATOM      8  N   LIG    1       26.192 -20.916   6.419  0.00  0.00    -0.315 NA
ATOM      9  C   LIG    1       25.661 -20.344   5.168  0.00  0.00    +0.106 C 
ATOM     10  C   LIG    1       24.265 -20.905   4.894  0.00  0.00    +0.019 C 
ATOM     11  C   LIG    1       23.330 -20.676   6.076  0.00  0.00    +0.003 C 
ATOM     12  C   LIG    1       23.944 -21.226   7.359  0.00  0.00    +0.019 C 
ATOM     13  C   LIG    1       25.341 -20.651   7.593  0.00  0.00    +0.106 C 
ENDBRANCH   6   8
BRANCH   1  14
ATOM     14  N   LIG    1       30.337 -21.568   8.870  0.00  0.00    -0.304 NA
ATOM     15  H   LIG    1       31.327 -21.380   8.655  0.00  0.00    +0.148 HD
ATOM     16  H   LIG    1       30.155 -22.565   8.920  0.00  0.00    +0.148 HD
ENDBRANCH   1  14
BRANCH   4  17
ATOM     17  N   LIG    1       29.974 -18.223   5.370  0.00  0.00    -0.287 NA
ATOM     18  H   LIG    1       29.231 -17.605   5.049  0.00  0.00    +0.149 HD
ATOM     19  H   LIG    1       30.615 -18.589   4.678  0.00  0.00    +0.149 HD
ENDBRANCH   4  17
TORSDOF 3
ENDMDL
MODEL 3
REMARK VINA RESULT:      -7.7      1.524      1.740
REMARK  Name = *****
REMARK                            x       y       z     vdW  Elec       q    Type
REMARK                         _______ _______ _______ _____ _____    ______ ____
ROOT
ATOM      1  C   LIG    1       30.333 -19.123   8.207  0.00  0.00    +0.286 C 
ATOM      2  N   LIG    1       31.054 -20.134   8.848  0.00  0.00    -0.119 NA
ATOM      3  O   LIG    1       32.243 -19.890   9.294  0.00  0.00    -0.616 OA
ATOM      4  C   LIG    1       30.463 -21.393   8.987  0.00  0.00    +0.386 C 
ATOM      5  N   LIG    1       29.230 -21.648   8.482  0.00  0.00    -0.156 NA
ATOM      6  C   LIG    1       28.529 -20.668   7.872  0.00  0.00    +0.137 C 
ATOM      7  C   LIG    1       29.064 -19.396   7.713  0.00  0.00    +0.141 C 
ENDROOT
BRANCH   6   8
ATOM      8  N   LIG    1       27.251 -20.949   7.342  0.00  0.00    -0.315 NA
ATOM      9  C   LIG    1       27.001 -20.258   6.064  0.00  0.00    +0.106 C 
ATOM     10  C   LIG    1       25.695 -20.763   5.449  0.00  0.00    +0.019 C 
ATOM     11  C   LIG    1       24.528 -20.620   6.422  0.00  0.00    +0.003 C 
ATOM     12  C   LIG    1       24.854 -21.293   7.751  0.00  0.00    +0.019 C 
ATOM     13  C   LIG    1       26.170 -20.770   8.328  0.00  0.00    +0.106 C 
ENDBRANCH   6   8
BRANCH   1  14
ATOM     14  N   LIG    1       30.932 -17.851   8.023  0.00  0.00    -0.304 NA
ATOM     15  H   LIG    1       30.668 -17.548   7.075  0.00  0.00    +0.148 HD
ATOM     16  H   LIG    1       31.941 -17.876   8.134  0.00  0.00    +0.148 HD
ENDBRANCH   1  14
BRANCH   4  17
ATOM     17  N   LIG    1       31.155 -22.426   9.631  0.00  0.00    -0.287 NA
ATOM     18  H   LIG    1       30.482 -23.071  10.042  0.00  0.00    +0.149 HD
ATOM     19  H   LIG    1       31.884 -22.062  10.230  0.00  0.00    +0.149 HD
ENDBRANCH   4  17
TORSDOF 3
ENDMDL
MODEL 4
REMARK VINA RESULT:      -7.6      1.735      2.578
REMARK  Name = *****
REMARK                            x       y       z     vdW  Elec       q    Type
REMARK                         _______ _______ _______ _____ _____    ______ ____
ROOT
ATOM      1  C   LIG    1       30.804 -21.099   8.616  0.00  0.00    +0.286 C 
ATOM      2  N   LIG    1       31.042 -19.774   8.989  0.00  0.00    -0.119 NA
ATOM      3  O   LIG    1       32.182 -19.446   9.504  0.00  0.00    -0.616 OA
ATOM      4  C   LIG    1       30.028 -18.831   8.796  0.00  0.00    +0.386 C 
ATOM      5  N   LIG    1       28.822 -19.193   8.289  0.00  0.00    -0.156 NA
ATOM      6  C   LIG    1       28.596 -20.472   7.920  0.00  0.00    +0.137 C 
ATOM      7  C   LIG    1       29.570 -21.449   8.082  0.00  0.00    +0.141 C 
ENDROOT
BRANCH   6   8
ATOM      8  N   LIG    1       27.333 -20.837   7.404  0.00  0.00    -0.315 NA
ATOM      9  C   LIG    1       27.049 -20.210   6.100  0.00  0.00    +0.106 C 
ATOM     10  C   LIG    1       25.770 -20.803   5.509  0.00  0.00    +0.019 C 
ATOM     11  C   LIG    1       24.598 -20.681   6.477  0.00  0.00    +0.003 C 
ATOM     12  C   LIG    1       24.956 -21.285   7.831  0.00  0.00    +0.019 C 
ATOM     13  C   LIG    1       26.244 -20.674   8.384  0.00  0.00    +0.106 C 
ENDBRANCH   6   8
BRANCH   1  14
ATOM     14  N   LIG    1       31.807 -22.075   8.842  0.00  0.00    -0.304 NA
ATOM     15  H   LIG    1       32.691 -21.556   8.938  0.00  0.00    +0.148 HD
ATOM     16  H   LIG    1       31.862 -22.758   8.093  0.00  0.00    +0.148 HD
ENDBRANCH   1  14
BRANCH   4  17
ATOM     17  N   LIG    1       30.236 -17.493   9.151  0.00  0.00    -0.287 NA
ATOM     18  H   LIG    1       30.874 -17.455   9.944  0.00  0.00    +0.149 HD
ATOM     19  H   LIG    1       29.359 -16.994   9.229  0.00  0.00    +0.149 HD
ENDBRANCH   4  17
TORSDOF 3
ENDMDL
MODEL 5
REMARK VINA RESULT:      -6.8      5.514      7.359
REMARK  Name = *****
REMARK                            x       y       z     vdW  Elec       q    Type
REMARK                         _______ _______ _______ _____ _____    ______ ____
ROOT
ATOM      1  C   LIG    1       24.415 -27.857   5.719  0.00  0.00    +0.286 C 
ATOM      2  N   LIG    1       25.700 -28.160   5.264  0.00  0.00    -0.119 NA
ATOM      3  O   LIG    1       26.019 -29.388   5.014  0.00  0.00    -0.616 OA
ATOM      4  C   LIG    1       26.615 -27.116   5.095  0.00  0.00    +0.386 C 
ATOM      5  N   LIG    1       26.281 -25.836   5.396  0.00  0.00    -0.156 NA
ATOM      6  C   LIG    1       25.035 -25.542   5.826  0.00  0.00    +0.137 C 
ATOM      7  C   LIG    1       24.083 -26.538   6.006  0.00  0.00    +0.141 C 
ENDROOT
BRANCH   6   8
ATOM      8  N   LIG    1       24.704 -24.207   6.146  0.00  0.00    -0.315 NA
ATOM      9  C   LIG    1       25.733 -23.548   6.971  0.00  0.00    +0.106 C 
ATOM     10  C   LIG    1       25.412 -22.059   7.106  0.00  0.00    +0.019 C 
ATOM     11  C   LIG    1       24.005 -21.838   7.652  0.00  0.00    +0.003 C 
ATOM     12  C   LIG    1       22.980 -22.588   6.809  0.00  0.00    +0.019 C 
ATOM     13  C   LIG    1       23.340 -24.069   6.688  0.00  0.00    +0.106 C 
ENDBRANCH   6   8
BRANCH   1  14
ATOM     14  N   LIG    1       23.487 -28.907   5.934  0.00  0.00    -0.304 NA
ATOM     15  H   LIG    1       22.574 -28.546   5.625  0.00  0.00    +0.148 HD
ATOM     16  H   LIG    1       23.455 -29.206   6.903  0.00  0.00    +0.148 HD
ENDBRANCH   1  14
BRANCH   4  17
ATOM     17  N   LIG    1       27.909 -27.385   4.633  0.00  0.00    -0.287 NA
ATOM     18  H   LIG    1       28.316 -28.129   5.199  0.00  0.00    +0.149 HD
ATOM     19  H   LIG    1       28.443 -26.533   4.522  0.00  0.00    +0.149 HD
ENDBRANCH   4  17
TORSDOF 3
ENDMDL
MODEL 6
REMARK VINA RESULT:      -6.7      2.946      5.608
REMARK  Name = *****
REMARK                            x       y       z     vdW  Elec       q    Type
REMARK                         _______ _______ _______ _____ _____    ______ ____
ROOT
ATOM      1  C   LIG    1       24.921 -20.890   7.329  0.00  0.00    +0.286 C 
ATOM      2  N   LIG    1       24.896 -20.654   5.953  0.00  0.00    -0.119 NA
ATOM      3  O   LIG    1       23.790 -20.791   5.298  0.00  0.00    -0.616 OA
ATOM      4  C   LIG    1       26.082 -20.276   5.316  0.00  0.00    +0.386 C 
ATOM      5  N   LIG    1       27.245 -20.170   6.007  0.00  0.00    -0.156 NA
ATOM      6  C   LIG    1       27.267 -20.389   7.339  0.00  0.00    +0.137 C 
ATOM      7  C   LIG    1       26.117 -20.760   8.025  0.00  0.00    +0.141 C 
ENDROOT
BRANCH   6   8
ATOM      8  N   LIG    1       28.486 -20.286   8.044  0.00  0.00    -0.315 NA
ATOM      9  C   LIG    1       29.196 -19.023   7.771  0.00  0.00    +0.106 C 
ATOM     10  C   LIG    1       30.392 -18.887   8.714  0.00  0.00    +0.019 C 
ATOM     11  C   LIG    1       31.314 -20.100   8.623  0.00  0.00    +0.003 C 
ATOM     12  C   LIG    1       30.529 -21.387   8.848  0.00  0.00    +0.019 C 
ATOM     13  C   LIG    1       29.337 -21.481   7.895  0.00  0.00    +0.106 C 
ENDBRANCH   6   8
BRANCH   1  14
ATOM     14  N   LIG    1       23.737 -21.312   7.984  0.00  0.00    -0.304 NA
ATOM     15  H   LIG    1       24.004 -21.496   8.962  0.00  0.00    +0.148 HD
ATOM     16  H   LIG    1       23.326 -22.135   7.555  0.00  0.00    +0.148 HD
ENDBRANCH   1  14
BRANCH   4  17
ATOM     17  N   LIG    1       26.090 -20.024   3.939  0.00  0.00    -0.287 NA
ATOM     18  H   LIG    1       25.129 -19.993   3.601  0.00  0.00    +0.149 HD
ATOM     19  H   LIG    1       26.739 -20.634   3.459  0.00  0.00    +0.149 HD
ENDBRANCH   4  17
TORSDOF 3
ENDMDL
MODEL 7
REMARK VINA RESULT:      -6.7      2.952      5.576
REMARK  Name = *****
REMARK                            x       y       z     vdW  Elec       q    Type
REMARK                         _______ _______ _______ _____ _____    ______ ____
ROOT
ATOM      1  C   LIG    1       24.553 -21.289   7.339  0.00  0.00    +0.286 C 
ATOM      2  N   LIG    1       24.633 -22.669   7.135  0.00  0.00    -0.119 NA
ATOM      3  O   LIG    1       23.552 -23.377   7.104  0.00  0.00    -0.616 OA
ATOM      4  C   LIG    1       25.894 -23.250   6.973  0.00  0.00    +0.386 C 
ATOM      5  N   LIG    1       27.025 -22.503   7.044  0.00  0.00    -0.156 NA
ATOM      6  C   LIG    1       26.947 -21.168   7.231  0.00  0.00    +0.137 C 
ATOM      7  C   LIG    1       25.720 -20.536   7.391  0.00  0.00    +0.141 C 
ENDROOT
BRANCH   6   8
ATOM      8  N   LIG    1       28.131 -20.403   7.314  0.00  0.00    -0.315 NA
ATOM      9  C   LIG    1       28.436 -19.691   6.059  0.00  0.00    +0.106 C 
ATOM     10  C   LIG    1       29.605 -18.730   6.281  0.00  0.00    +0.019 C 
ATOM     11  C   LIG    1       30.823 -19.454   6.846  0.00  0.00    +0.003 C 
ATOM     12  C   LIG    1       30.449 -20.229   8.105  0.00  0.00    +0.019 C 
ATOM     13  C   LIG    1       29.272 -21.170   7.846  0.00  0.00    +0.106 C 
ENDBRANCH   6   8
BRANCH   1  14
ATOM     14  N   LIG    1       23.285 -20.689   7.545  0.00  0.00    -0.304 NA
ATOM     15  H   LIG    1       22.632 -21.463   7.728  0.00  0.00    +0.148 HD
ATOM     16  H   LIG    1       22.984 -20.134   6.750  0.00  0.00    +0.148 HD
ENDBRANCH   1  14
BRANCH   4  17
ATOM     17  N   LIG    1       26.010 -24.629   6.759  0.00  0.00    -0.287 NA
ATOM     18  H   LIG    1       25.837 -25.117   7.637  0.00  0.00    +0.149 HD
ATOM     19  H   LIG    1       26.859 -24.852   6.256  0.00  0.00    +0.149 HD
ENDBRANCH   4  17
TORSDOF 3
ENDMDL
MODEL 8
REMARK VINA RESULT:      -6.6      2.801      5.374
REMARK  Name = *****
REMARK                            x       y       z     vdW  Elec       q    Type
REMARK                         _______ _______ _______ _____ _____    ______ ____
ROOT
ATOM      1  C   LIG    1       26.694 -20.324   5.845  0.00  0.00    +0.286 C 
ATOM      2  N   LIG    1       25.788 -20.855   6.766  0.00  0.00    -0.119 NA
ATOM      3  O   LIG    1       24.609 -21.213   6.373  0.00  0.00    -0.616 OA
ATOM      4  C   LIG    1       26.185 -20.982   8.100  0.00  0.00    +0.386 C 
ATOM      5  N   LIG    1       27.412 -20.569   8.508  0.00  0.00    -0.156 NA
ATOM      6  C   LIG    1       28.291 -20.065   7.616  0.00  0.00    +0.137 C 
ATOM      7  C   LIG    1       27.953 -19.923   6.276  0.00  0.00    +0.141 C 
ENDROOT
BRANCH   6   8
ATOM      8  N   LIG    1       29.560 -19.630   8.055  0.00  0.00    -0.315 NA
ATOM      9  C   LIG    1       29.475 -18.591   9.098  0.00  0.00    +0.106 C 
ATOM     10  C   LIG    1       30.866 -18.316   9.669  0.00  0.00    +0.019 C 
ATOM     11  C   LIG    1       31.859 -17.951   8.570  0.00  0.00    +0.003 C 
ATOM     12  C   LIG    1       31.869 -19.019   7.481  0.00  0.00    +0.019 C 
ATOM     13  C   LIG    1       30.461 -19.273   6.943  0.00  0.00    +0.106 C 
ENDBRANCH   6   8
BRANCH   1  14
ATOM     14  N   LIG    1       26.294 -20.152   4.495  0.00  0.00    -0.304 NA
ATOM     15  H   LIG    1       25.891 -21.053   4.202  0.00  0.00    +0.148 HD
ATOM     16  H   LIG    1       27.063 -19.881   3.892  0.00  0.00    +0.148 HD
ENDBRANCH   1  14
BRANCH   4  17
ATOM     17  N   LIG    1       25.304 -21.517   9.048  0.00  0.00    -0.287 NA
ATOM     18  H   LIG    1       25.837 -22.056   9.729  0.00  0.00    +0.149 HD
ATOM     19  H   LIG    1       24.516 -21.969   8.602  0.00  0.00    +0.149 HD
ENDBRANCH   4  17
TORSDOF 3
ENDMDL
MODEL 9
REMARK VINA RESULT:      -6.5      3.046      5.894
REMARK  Name = *****
REMARK                            x       y       z     vdW  Elec       q    Type
REMARK                         _______ _______ _______ _____ _____    ______ ____
ROOT
ATOM      1  C   LIG    1       25.663 -23.276   7.069  0.00  0.00    +0.286 C 
ATOM      2  N   LIG    1       24.436 -22.629   6.904  0.00  0.00    -0.119 NA
ATOM      3  O   LIG    1       23.353 -23.326   6.791  0.00  0.00    -0.616 OA
ATOM      4  C   LIG    1       24.417 -21.232   6.860  0.00  0.00    +0.386 C 
ATOM      5  N   LIG    1       25.563 -20.512   6.941  0.00  0.00    -0.156 NA
ATOM      6  C   LIG    1       26.748 -21.137   7.112  0.00  0.00    +0.137 C 
ATOM      7  C   LIG    1       26.827 -22.523   7.170  0.00  0.00    +0.141 C 
ENDROOT
BRANCH   6   8
ATOM      8  N   LIG    1       27.936 -20.377   7.185  0.00  0.00    -0.315 NA
ATOM      9  C   LIG    1       28.271 -19.723   5.907  0.00  0.00    +0.106 C 
ATOM     10  C   LIG    1       29.442 -18.760   6.110  0.00  0.00    +0.019 C 
ATOM     11  C   LIG    1       30.643 -19.465   6.731  0.00  0.00    +0.003 C 
ATOM     12  C   LIG    1       30.239 -20.181   8.016  0.00  0.00    +0.019 C 
ATOM     13  C   LIG    1       29.060 -21.125   7.775  0.00  0.00    +0.106 C 
ENDBRANCH   6   8
BRANCH   1  14
ATOM     14  N   LIG    1       25.706 -24.693   7.076  0.00  0.00    -0.304 NA
ATOM     15  H   LIG    1       24.820 -25.006   6.657  0.00  0.00    +0.148 HD
ATOM     16  H   LIG    1       25.826 -25.075   8.009  0.00  0.00    +0.148 HD
ENDBRANCH   1  14
BRANCH   4  17
ATOM     17  N   LIG    1       23.203 -20.551   6.702  0.00  0.00    -0.287 NA
ATOM     18  H   LIG    1       23.188 -20.107   5.786  0.00  0.00    +0.149 HD
ATOM     19  H   LIG    1       22.998 -19.975   7.508  0.00  0.00    +0.149 HD
ENDBRANCH   4  17
TORSDOF 3
ENDMDL
