MODEL 1
REMARK VINA RESULT:       0.7      0.000      0.000
REMARK  Name = *****
REMARK                            x       y       z     vdW  Elec       q    Type
REMARK                         _______ _______ _______ _____ _____    ______ ____
ROOT
ATOM      1  C   LIG    1       26.929 -17.437   3.552  0.00  0.00    +0.122 C 
ENDROOT
BRANCH   1   2
ATOM      2  C   LIG    1       26.882 -15.897   3.803  0.00  0.00    +0.172 C 
ATOM      3  C   LIG    1       25.484 -15.405   4.268  0.00  0.00    +0.176 C 
ATOM      4  C   LIG    1       25.321 -13.876   4.164  0.00  0.00    +0.177 C 
ATOM      5  C   LIG    1       25.809 -13.363   2.807  0.00  0.00    +0.184 C 
ATOM      6  C   LIG    1       27.257 -13.807   2.588  0.00  0.00    +0.207 C 
ATOM      7  O   LIG    1       27.238 -15.245   2.569  0.00  0.00    -0.356 OA
BRANCH   3   8
ATOM      8  O   LIG    1       24.417 -15.972   3.480  0.00  0.00    -0.387 OA
ATOM      9  H   LIG    1       24.174 -15.333   2.784  0.00  0.00    +0.210 HD
ENDBRANCH   3   8
BRANCH   4  10
ATOM     10  O   LIG    1       23.930 -13.521   4.290  0.00  0.00    -0.387 OA
ATOM     11  H   LIG    1       23.589 -13.485   3.370  0.00  0.00    +0.210 HD
ENDBRANCH   4  10
BRANCH   5  12
ATOM     12  O   LIG    1       25.600 -11.959   2.675  0.00  0.00    -0.386 OA
ATOM     13  H   LIG    1       25.069 -11.859   1.858  0.00  0.00    +0.210 HD
ENDBRANCH   5  12
BRANCH   6  14
ATOM     14  S   LIG    1       28.542 -13.161   3.738  0.00  0.00    -0.131 S 
ATOM     15  C   LIG    1       27.562 -12.968   5.247  0.00  0.00    +0.087 C 
ENDBRANCH   6  14
ENDBRANCH   1   2
BRANCH   1  17
ATOM     16  C   LIG    1       25.294 -19.254   3.013  0.00  0.00    +0.231 C 
ATOM     17  N   LIG    1       25.584 -18.051   3.618  0.00  0.00    -0.307 N 
ATOM     18  H   LIG    1       24.873 -17.663   4.232  0.00  0.00    +0.149 HD
ATOM     19  O   LIG    1       26.122 -19.835   2.298  0.00  0.00    -0.274 OA
BRANCH  16  24
ATOM     20  C   LIG    1       21.956 -19.727   4.780  0.00  0.00    +0.005 C 
ATOM     21  C   LIG    1       22.546 -21.151   4.735  0.00  0.00    +0.088 C 
ATOM     22  N   LIG    1       23.971 -21.020   4.334  0.00  0.00    -0.294 NA
ATOM     23  C   LIG    1       24.796 -20.754   5.518  0.00  0.00    +0.105 C 
ATOM     24  C   LIG    1       23.932 -19.877   3.374  0.00  0.00    +0.143 C 
ATOM     25  C   LIG    1       22.953 -18.881   3.985  0.00  0.00    +0.033 C 
BRANCH  20  26
ATOM     26  C   LIG    1       20.512 -19.661   4.253  0.00  0.00    +0.004 C 
BRANCH  26  28
ATOM     27  C   LIG    1       19.350 -18.370   2.342  0.00  0.00    +0.004 C 
ATOM     28  C   LIG    1       20.074 -18.303   3.678  0.00  0.00    -0.003 C 
ENDBRANCH  26  28
ENDBRANCH  20  26
ENDBRANCH  16  24
ENDBRANCH   1  17
BRANCH   1  29
ATOM     29  C   LIG    1       27.969 -18.218   4.428  0.00  0.00    +0.100 C 
ATOM     30 CL   LIG    1       27.151 -19.371   5.538  0.00  0.00    -0.120 Cl
ATOM     31  C   LIG    1       28.931 -17.354   5.247  0.00  0.00    +0.026 C 
ENDBRANCH   1  29
TORSDOF 10
ENDMDL
MODEL 2
REMARK VINA RESULT:       1.7      1.601      2.127
REMARK  Name = *****
REMARK                            x       y       z     vdW  Elec       q    Type
REMARK                         _______ _______ _______ _____ _____    ______ ____
ROOT
ATOM      1  C   LIG    1       26.797 -17.247   3.588  0.00  0.00    +0.122 C 
ENDROOT
BRANCH   1   2
ATOM      2  C   LIG    1       26.654 -15.699   3.432  0.00  0.00    +0.172 C 
ATOM      3  C   LIG    1       27.742 -14.913   4.211  0.00  0.00    +0.176 C 
ATOM      4  C   LIG    1       27.404 -13.417   4.370  0.00  0.00    +0.177 C 
ATOM      5  C   LIG    1       25.959 -13.229   4.837  0.00  0.00    +0.184 C 
ATOM      6  C   LIG    1       25.015 -13.936   3.862  0.00  0.00    +0.207 C 
ATOM      7  O   LIG    1       25.350 -15.334   3.921  0.00  0.00    -0.356 OA
BRANCH   3   8
ATOM      8  O   LIG    1       27.930 -15.421   5.549  0.00  0.00    -0.387 OA
ATOM      9  H   LIG    1       27.080 -15.782   5.863  0.00  0.00    +0.210 HD
ENDBRANCH   3   8
BRANCH   4  10
ATOM     10  O   LIG    1       28.264 -12.822   5.362  0.00  0.00    -0.387 OA
ATOM     11  H   LIG    1       27.744 -12.834   6.194  0.00  0.00    +0.210 HD
ENDBRANCH   4  10
BRANCH   5  12
ATOM     12  O   LIG    1       25.656 -11.852   5.052  0.00  0.00    -0.386 OA
ATOM     13  H   LIG    1       25.477 -11.491   4.159  0.00  0.00    +0.210 HD
ENDBRANCH   5  12
BRANCH   6  14
ATOM     14  S   LIG    1       24.949 -13.326   2.126  0.00  0.00    -0.131 S 
ATOM     15  C   LIG    1       24.157 -11.718   2.376  0.00  0.00    +0.087 C 
ENDBRANCH   6  14
ENDBRANCH   1   2
BRANCH   1  17
ATOM     16  C   LIG    1       25.341 -19.228   3.123  0.00  0.00    +0.231 C 
ATOM     17  N   LIG    1       25.486 -17.931   3.562  0.00  0.00    -0.307 N 
ATOM     18  H   LIG    1       24.675 -17.502   4.001  0.00  0.00    +0.149 HD
ATOM     19  O   LIG    1       26.292 -19.855   2.633  0.00  0.00    -0.274 OA
BRANCH  16  24
ATOM     20  C   LIG    1       21.917 -19.802   4.683  0.00  0.00    +0.005 C 
ATOM     21  C   LIG    1       22.526 -21.218   4.615  0.00  0.00    +0.088 C 
ATOM     22  N   LIG    1       23.969 -21.057   4.299  0.00  0.00    -0.294 NA
ATOM     23  C   LIG    1       24.725 -20.830   5.536  0.00  0.00    +0.105 C 
ATOM     24  C   LIG    1       23.970 -19.878   3.383  0.00  0.00    +0.143 C 
ATOM     25  C   LIG    1       22.946 -18.916   3.977  0.00  0.00    +0.033 C 
BRANCH  20  26
ATOM     26  C   LIG    1       20.504 -19.729   4.080  0.00  0.00    +0.004 C 
BRANCH  26  28
ATOM     27  C   LIG    1       19.350 -18.260   2.297  0.00  0.00    +0.004 C 
ATOM     28  C   LIG    1       20.032 -18.328   3.655  0.00  0.00    -0.003 C 
ENDBRANCH  26  28
ENDBRANCH  20  26
ENDBRANCH  16  24
ENDBRANCH   1  17
BRANCH   1  29
ATOM     29  C   LIG    1       27.671 -17.709   4.806  0.00  0.00    +0.100 C 
ATOM     30 CL   LIG    1       29.423 -17.647   4.413  0.00  0.00    -0.120 Cl
ATOM     31  C   LIG    1       27.347 -19.097   5.368  0.00  0.00    +0.026 C 
ENDBRANCH   1  29
TORSDOF 10
ENDMDL
MODEL 3
REMARK VINA RESULT:       1.9      2.491      4.329
REMARK  Name = *****
REMARK                            x       y       z     vdW  Elec       q    Type
REMARK                         _______ _______ _______ _____ _____    ______ ____
ROOT
ATOM      1  C   LIG    1       23.932 -14.092   4.712  0.00  0.00    +0.122 C 
ENDROOT
BRANCH   1   2
ATOM      2  C   LIG    1       25.468 -14.366   4.773  0.00  0.00    +0.172 C 
ATOM      3  C   LIG    1       26.254 -13.232   5.487  0.00  0.00    +0.176 C 
ATOM      4  C   LIG    1       27.773 -13.303   5.234  0.00  0.00    +0.177 C 
ATOM      5  C   LIG    1       28.072 -13.510   3.747  0.00  0.00    +0.184 C 
ATOM      6  C   LIG    1       27.343 -14.762   3.253  0.00  0.00    +0.207 C 
ATOM      7  O   LIG    1       25.938 -14.501   3.419  0.00  0.00    -0.356 OA
BRANCH   3   8
ATOM      8  O   LIG    1       25.839 -11.922   5.048  0.00  0.00    -0.387 OA
ATOM      9  H   LIG    1       25.944 -11.300   5.792  0.00  0.00    +0.210 HD
ENDBRANCH   3   8
BRANCH   4  10
ATOM     10  O   LIG    1       28.395 -12.067   5.636  0.00  0.00    -0.387 OA
ATOM     11  H   LIG    1       28.107 -11.922   6.563  0.00  0.00    +0.210 HD
ENDBRANCH   4  10
BRANCH   5  12
ATOM     12  O   LIG    1       29.474 -13.510   3.493  0.00  0.00    -0.386 OA
ATOM     13  H   LIG    1       29.598 -14.147   2.759  0.00  0.00    +0.210 HD
ENDBRANCH   5  12
BRANCH   6  14
ATOM     14  S   LIG    1       27.822 -16.384   3.979  0.00  0.00    -0.131 S 
ATOM     15  C   LIG    1       26.535 -17.447   3.281  0.00  0.00    +0.087 C 
ENDBRANCH   6  14
ENDBRANCH   1   2
BRANCH   1  17
ATOM     16  C   LIG    1       23.421 -16.495   4.237  0.00  0.00    +0.231 C 
ATOM     17  N   LIG    1       23.140 -15.326   4.908  0.00  0.00    -0.307 N 
ATOM     18  H   LIG    1       22.448 -15.379   5.652  0.00  0.00    +0.149 HD
ATOM     19  O   LIG    1       24.294 -16.543   3.358  0.00  0.00    -0.274 OA
BRANCH  16  24
ATOM     20  C   LIG    1       22.545 -20.175   4.663  0.00  0.00    +0.005 C 
ATOM     21  C   LIG    1       21.177 -19.503   4.422  0.00  0.00    +0.088 C 
ATOM     22  N   LIG    1       21.448 -18.120   3.951  0.00  0.00    -0.294 NA
ATOM     23  C   LIG    1       21.661 -18.125   2.499  0.00  0.00    +0.105 C 
ATOM     24  C   LIG    1       22.670 -17.748   4.724  0.00  0.00    +0.143 C 
ATOM     25  C   LIG    1       23.531 -19.007   4.731  0.00  0.00    +0.033 C 
BRANCH  20  26
ATOM     26  C   LIG    1       22.556 -21.082   5.905  0.00  0.00    +0.004 C 
BRANCH  26  28
ATOM     27  C   LIG    1       25.068 -21.223   6.488  0.00  0.00    +0.004 C 
ATOM     28  C   LIG    1       23.673 -20.802   6.925  0.00  0.00    -0.003 C 
ENDBRANCH  26  28
ENDBRANCH  20  26
ENDBRANCH  16  24
ENDBRANCH   1  17
BRANCH   1  29
ATOM     29  C   LIG    1       23.454 -13.288   3.454  0.00  0.00    +0.100 C 
ATOM     30 CL   LIG    1       24.397 -13.742   1.993  0.00  0.00    -0.120 Cl
ATOM     31  C   LIG    1       23.474 -11.762   3.591  0.00  0.00    +0.026 C 
ENDBRANCH   1  29
TORSDOF 10
ENDMDL
