MODEL 1
REMARK VINA RESULT:      -4.5      0.000      0.000
REMARK  Name = *****
REMARK                            x       y       z     vdW  Elec       q    Type
REMARK                         _______ _______ _______ _____ _____    ______ ____
ROOT
ATOM      1  C   LIG    1       23.069 -16.380   4.539  0.00  0.00    +0.021 C 
ENDROOT
BRANCH   1   2
ATOM      2  C   LIG    1       23.156 -15.349   3.406  0.00  0.00    +0.116 C 
BRANCH   2   5
ATOM      3  O   LIG    1       25.578 -16.694   3.557  0.00  0.00    -0.275 OA
ATOM      4  C   LIG    1       25.597 -15.472   3.354  0.00  0.00    +0.222 C 
ATOM      5  N   LIG    1       24.459 -14.678   3.352  0.00  0.00    -0.242 N 
ATOM      6  C   LIG    1       24.468 -13.287   3.353  0.00  0.00    +0.222 C 
ATOM      7  O   LIG    1       23.442 -12.610   3.282  0.00  0.00    -0.275 OA
ATOM      8  C   LIG    1       25.813 -12.585   3.361  0.00  0.00    +0.103 C 
ATOM      9  C   LIG    1       26.997 -13.448   3.808  0.00  0.00    -0.013 C 
ATOM     10  C   LIG    1       28.328 -12.721   3.489  0.00  0.00    +0.008 C 
ATOM     11  C   LIG    1       28.802 -12.154   4.819  0.00  0.00    +0.001 C 
ATOM     12  C   LIG    1       28.423 -13.245   5.798  0.00  0.00    +0.001 C 
ATOM     13  C   LIG    1       27.030 -13.669   5.344  0.00  0.00    +0.008 C 
ATOM     14  C   LIG    1       26.901 -14.765   3.047  0.00  0.00    +0.103 C 
ENDBRANCH   2   5
ENDBRANCH   1   2
BRANCH   1  15
ATOM     15  C   LIG    1       22.689 -17.794   4.068  0.00  0.00    +0.017 C 
BRANCH  15  16
ATOM     16  C   LIG    1       22.409 -18.788   5.212  0.00  0.00    +0.084 C 
BRANCH  16  17
ATOM     17  N   LIG    1       22.631 -20.201   4.858  0.00  0.00    -0.299 NA
ATOM     18  C   LIG    1       23.638 -20.434   3.801  0.00  0.00    +0.103 C 
ATOM     19  C   LIG    1       25.112 -20.199   4.200  0.00  0.00    +0.123 C 
ATOM     20  N   LIG    1       25.462 -20.905   5.441  0.00  0.00    -0.297 N 
ATOM     21  C   LIG    1       24.486 -20.802   6.536  0.00  0.00    +0.123 C 
ATOM     22  C   LIG    1       23.032 -21.000   6.045  0.00  0.00    +0.103 C 
BRANCH  20  23
ATOM     23  C   LIG    1       26.774 -20.615   5.843  0.00  0.00    +0.218 A 
ATOM     24  N   LIG    1       27.377 -19.510   5.367  0.00  0.00    -0.223 NA
ATOM     25  C   LIG    1       28.647 -19.269   5.741  0.00  0.00    +0.116 A 
ATOM     26  C   LIG    1       29.345 -20.070   6.604  0.00  0.00    +0.039 A 
ATOM     27  C   LIG    1       28.655 -21.163   7.060  0.00  0.00    +0.116 A 
ATOM     28  N   LIG    1       27.394 -21.460   6.687  0.00  0.00    -0.223 NA
ENDBRANCH  20  23
ENDBRANCH  16  17
ENDBRANCH  15  16
ENDBRANCH   1  15
TORSDOF 6
ENDMDL
MODEL 2
REMARK VINA RESULT:      -3.5      0.801      2.080
REMARK  Name = *****
REMARK                            x       y       z     vdW  Elec       q    Type
REMARK                         _______ _______ _______ _____ _____    ______ ____
ROOT
ATOM      1  C   LIG    1       22.853 -16.995   4.068  0.00  0.00    +0.021 C 
ENDROOT
BRANCH   1   2
ATOM      2  C   LIG    1       23.684 -16.252   3.015  0.00  0.00    +0.116 C 
BRANCH   2   5
ATOM      3  O   LIG    1       23.502 -13.630   3.905  0.00  0.00    -0.275 OA
ATOM      4  C   LIG    1       24.566 -14.237   4.083  0.00  0.00    +0.222 C 
ATOM      5  N   LIG    1       24.810 -15.515   3.600  0.00  0.00    -0.242 N 
ATOM      6  C   LIG    1       26.058 -16.129   3.586  0.00  0.00    +0.222 C 
ATOM      7  O   LIG    1       26.230 -17.290   3.215  0.00  0.00    -0.275 OA
ATOM      8  C   LIG    1       27.239 -15.349   4.132  0.00  0.00    +0.103 C 
ATOM      9  C   LIG    1       27.032 -13.835   4.231  0.00  0.00    -0.013 C 
ATOM     10  C   LIG    1       28.172 -13.201   5.069  0.00  0.00    +0.008 C 
ATOM     11  C   LIG    1       29.110 -12.567   4.052  0.00  0.00    +0.001 C 
ATOM     12  C   LIG    1       28.151 -12.016   3.016  0.00  0.00    +0.001 C 
ATOM     13  C   LIG    1       27.120 -13.128   2.852  0.00  0.00    +0.008 C 
ATOM     14  C   LIG    1       25.680 -13.611   4.898  0.00  0.00    +0.103 C 
ENDBRANCH   2   5
ENDBRANCH   1   2
BRANCH   1  15
ATOM     15  C   LIG    1       23.365 -18.413   4.380  0.00  0.00    +0.017 C 
BRANCH  15  16
ATOM     16  C   LIG    1       22.397 -19.263   5.225  0.00  0.00    +0.084 C 
BRANCH  16  17
ATOM     17  N   LIG    1       22.642 -20.714   5.155  0.00  0.00    -0.299 NA
ATOM     18  C   LIG    1       23.599 -21.140   4.111  0.00  0.00    +0.103 C 
ATOM     19  C   LIG    1       25.085 -20.799   4.368  0.00  0.00    +0.123 C 
ATOM     20  N   LIG    1       25.520 -21.229   5.705  0.00  0.00    -0.297 N 
ATOM     21  C   LIG    1       24.601 -20.921   6.810  0.00  0.00    +0.123 C 
ATOM     22  C   LIG    1       23.130 -21.245   6.455  0.00  0.00    +0.103 C 
BRANCH  20  23
ATOM     23  C   LIG    1       26.842 -20.837   5.963  0.00  0.00    +0.218 A 
ATOM     24  N   LIG    1       27.593 -21.571   6.804  0.00  0.00    -0.223 NA
ATOM     25  C   LIG    1       28.847 -21.158   7.061  0.00  0.00    +0.116 A 
ATOM     26  C   LIG    1       29.410 -20.050   6.487  0.00  0.00    +0.039 A 
ATOM     27  C   LIG    1       28.589 -19.368   5.626  0.00  0.00    +0.116 A 
ATOM     28  N   LIG    1       27.316 -19.728   5.365  0.00  0.00    -0.223 NA
ENDBRANCH  20  23
ENDBRANCH  16  17
ENDBRANCH  15  16
ENDBRANCH   1  15
TORSDOF 6
ENDMDL
MODEL 3
REMARK VINA RESULT:      -1.7      1.775      4.559
REMARK  Name = *****
REMARK                            x       y       z     vdW  Elec       q    Type
REMARK                         _______ _______ _______ _____ _____    ______ ____
ROOT
ATOM      1  C   LIG    1       28.001 -17.215   4.969  0.00  0.00    +0.021 C 
ENDROOT
BRANCH   1   2
ATOM      2  C   LIG    1       28.570 -16.115   4.064  0.00  0.00    +0.116 C 
BRANCH   2   5
ATOM      3  O   LIG    1       28.932 -13.364   4.105  0.00  0.00    -0.275 OA
ATOM      4  C   LIG    1       27.883 -13.811   3.620  0.00  0.00    +0.222 C 
ATOM      5  N   LIG    1       27.548 -15.157   3.628  0.00  0.00    -0.242 N 
ATOM      6  C   LIG    1       26.292 -15.659   3.302  0.00  0.00    +0.222 C 
ATOM      7  O   LIG    1       26.045 -16.864   3.252  0.00  0.00    -0.275 OA
ATOM      8  C   LIG    1       25.210 -14.670   2.912  0.00  0.00    +0.103 C 
ATOM      9  C   LIG    1       25.468 -13.221   3.336  0.00  0.00    -0.013 C 
ATOM     10  C   LIG    1       24.460 -12.279   2.629  0.00  0.00    +0.008 C 
ATOM     11  C   LIG    1       23.418 -11.944   3.686  0.00  0.00    +0.001 C 
ATOM     12  C   LIG    1       24.250 -11.818   4.945  0.00  0.00    +0.001 C 
ATOM     13  C   LIG    1       25.223 -12.989   4.852  0.00  0.00    +0.008 C 
ATOM     14  C   LIG    1       26.899 -12.885   2.935  0.00  0.00    +0.103 C 
ENDBRANCH   2   5
ENDBRANCH   1   2
BRANCH   1  15
ATOM     15  C   LIG    1       29.061 -18.192   5.507  0.00  0.00    +0.017 C 
BRANCH  15  16
ATOM     16  C   LIG    1       28.570 -19.087   6.661  0.00  0.00    +0.084 C 
BRANCH  16  17
ATOM     17  N   LIG    1       28.373 -20.500   6.293  0.00  0.00    -0.299 NA
ATOM     18  C   LIG    1       27.327 -21.209   7.061  0.00  0.00    +0.103 C 
ATOM     19  C   LIG    1       25.866 -20.819   6.746  0.00  0.00    +0.123 C 
ATOM     20  N   LIG    1       25.590 -20.853   5.302  0.00  0.00    -0.297 N 
ATOM     21  C   LIG    1       26.609 -20.240   4.438  0.00  0.00    +0.123 C 
ATOM     22  C   LIG    1       28.045 -20.643   4.850  0.00  0.00    +0.103 C 
BRANCH  20  23
ATOM     23  C   LIG    1       24.289 -20.412   5.019  0.00  0.00    +0.218 A 
ATOM     24  N   LIG    1       24.118 -19.265   4.336  0.00  0.00    -0.223 NA
ATOM     25  C   LIG    1       22.861 -18.845   4.105  0.00  0.00    +0.116 A 
ATOM     26  C   LIG    1       21.749 -19.539   4.497  0.00  0.00    +0.039 A 
ATOM     27  C   LIG    1       22.006 -20.706   5.168  0.00  0.00    +0.116 A 
ATOM     28  N   LIG    1       23.248 -21.148   5.450  0.00  0.00    -0.223 NA
ENDBRANCH  20  23
ENDBRANCH  16  17
ENDBRANCH  15  16
ENDBRANCH   1  15
TORSDOF 6
ENDMDL
