MODEL 1
REMARK VINA RESULT:      -5.5      0.000      0.000
REMARK  Name = *****
REMARK                            x       y       z     vdW  Elec       q    Type
REMARK                         _______ _______ _______ _____ _____    ______ ____
ROOT
ATOM      1  C   LIG    1       30.515 -18.503   8.836  0.00  0.00    +0.098 C 
ATOM      2  C   LIG    1       30.786 -17.356   9.470  0.00  0.00    +0.098 C 
ENDROOT
BRANCH   1   3
ATOM      3  C   LIG    1       31.465 -19.476   8.244  0.00  0.00    +0.332 C 
ATOM      4  O   LIG    1       31.704 -19.527   7.047  0.00  0.00    -0.246 OA
BRANCH   3   6
ATOM      5  C   LIG    1       31.322 -21.665   9.118  0.00  0.00    +0.280 C 
ATOM      6  O   LIG    1       31.875 -20.353   9.196  0.00  0.00    -0.465 OA
ENDBRANCH   3   6
ENDBRANCH   1   3
BRANCH   2   7
ATOM      7  C   LIG    1       32.097 -16.687   9.657  0.00  0.00    +0.332 C 
ATOM      8  O   LIG    1       32.484 -15.796   8.924  0.00  0.00    -0.246 OA
BRANCH   7   9
ATOM      9  O   LIG    1       32.801 -17.285  10.650  0.00  0.00    -0.465 OA
ATOM     10  C   LIG    1       32.889 -16.543  11.864  0.00  0.00    +0.280 C 
ENDBRANCH   7   9
ENDBRANCH   2   7
TORSDOF 4
ENDMDL
MODEL 2
REMARK VINA RESULT:      -5.4      0.163      3.943
REMARK  Name = *****
REMARK                            x       y       z     vdW  Elec       q    Type
REMARK                         _______ _______ _______ _____ _____    ______ ____
ROOT
ATOM      1  C   LIG    1       30.691 -17.417   9.481  0.00  0.00    +0.098 C 
ATOM      2  C   LIG    1       30.459 -18.566   8.834  0.00  0.00    +0.098 C 
ENDROOT
BRANCH   1   3
ATOM      3  C   LIG    1       31.985 -16.723   9.690  0.00  0.00    +0.332 C 
ATOM      4  O   LIG    1       32.409 -15.864   8.932  0.00  0.00    -0.246 OA
BRANCH   3   6
ATOM      5  C   LIG    1       32.496 -16.661  11.995  0.00  0.00    +0.280 C 
ATOM      6  O   LIG    1       32.649 -17.296  10.727  0.00  0.00    -0.465 OA
ENDBRANCH   3   6
ENDBRANCH   1   3
BRANCH   2   7
ATOM      7  C   LIG    1       31.437 -19.516   8.250  0.00  0.00    +0.332 C 
ATOM      8  O   LIG    1       31.695 -19.536   7.061  0.00  0.00    -0.246 OA
BRANCH   7   9
ATOM      9  O   LIG    1       31.876 -20.388   9.191  0.00  0.00    -0.465 OA
ATOM     10  C   LIG    1       31.275 -21.680   9.149  0.00  0.00    +0.280 C 
ENDBRANCH   7   9
ENDBRANCH   2   7
TORSDOF 4
ENDMDL
MODEL 3
REMARK VINA RESULT:      -5.4      1.587      4.503
REMARK  Name = *****
REMARK                            x       y       z     vdW  Elec       q    Type
REMARK                         _______ _______ _______ _____ _____    ______ ____
ROOT
ATOM      1  C   LIG    1       30.643 -18.183   8.912  0.00  0.00    +0.098 C 
ATOM      2  C   LIG    1       30.752 -19.356   8.276  0.00  0.00    +0.098 C 
ENDROOT
BRANCH   1   3
ATOM      3  C   LIG    1       30.916 -17.880  10.337  0.00  0.00    +0.332 C 
ATOM      4  O   LIG    1       30.034 -17.621  11.142  0.00  0.00    -0.246 OA
BRANCH   3   6
ATOM      5  C   LIG    1       32.843 -16.515  10.274  0.00  0.00    +0.280 C 
ATOM      6  O   LIG    1       32.257 -17.788  10.537  0.00  0.00    -0.465 OA
ENDBRANCH   3   6
ENDBRANCH   1   3
BRANCH   2   7
ATOM      7  C   LIG    1       31.064 -20.691   8.839  0.00  0.00    +0.332 C 
ATOM      8  O   LIG    1       32.179 -20.991   9.228  0.00  0.00    -0.246 OA
BRANCH   7   9
ATOM      9  O   LIG    1       29.991 -21.515   8.741  0.00  0.00    -0.465 OA
ATOM     10  C   LIG    1       29.088 -21.211   7.681  0.00  0.00    +0.280 C 
ENDBRANCH   7   9
ENDBRANCH   2   7
TORSDOF 4
ENDMDL
MODEL 4
REMARK VINA RESULT:      -5.4      1.591      2.131
REMARK  Name = *****
REMARK                            x       y       z     vdW  Elec       q    Type
REMARK                         _______ _______ _______ _____ _____    ______ ____
ROOT
ATOM      1  C   LIG    1       30.756 -19.342   8.281  0.00  0.00    +0.098 C 
ATOM      2  C   LIG    1       30.642 -18.171   8.918  0.00  0.00    +0.098 C 
ENDROOT
BRANCH   1   3
ATOM      3  C   LIG    1       31.053 -20.677   8.854  0.00  0.00    +0.332 C 
ATOM      4  O   LIG    1       32.170 -21.009   9.221  0.00  0.00    -0.246 OA
BRANCH   3   6
ATOM      5  C   LIG    1       29.106 -21.229   7.636  0.00  0.00    +0.280 C 
ATOM      6  O   LIG    1       29.956 -21.472   8.755  0.00  0.00    -0.465 OA
ENDBRANCH   3   6
ENDBRANCH   1   3
BRANCH   2   7
ATOM      7  C   LIG    1       30.889 -17.864  10.348  0.00  0.00    +0.332 C 
ATOM      8  O   LIG    1       29.985 -17.657  11.136  0.00  0.00    -0.246 OA
BRANCH   7   9
ATOM      9  O   LIG    1       32.219 -17.739  10.587  0.00  0.00    -0.465 OA
ATOM     10  C   LIG    1       32.828 -16.573  10.037  0.00  0.00    +0.280 C 
ENDBRANCH   7   9
ENDBRANCH   2   7
TORSDOF 4
ENDMDL
MODEL 5
REMARK VINA RESULT:      -5.4      0.803      4.117
REMARK  Name = *****
REMARK                            x       y       z     vdW  Elec       q    Type
REMARK                         _______ _______ _______ _____ _____    ______ ____
ROOT
ATOM      1  C   LIG    1       30.796 -17.188   9.660  0.00  0.00    +0.098 C 
ATOM      2  C   LIG    1       30.514 -18.386   9.134  0.00  0.00    +0.098 C 
ENDROOT
BRANCH   1   3
ATOM      3  C   LIG    1       32.117 -16.525   9.786  0.00  0.00    +0.332 C 
ATOM      4  O   LIG    1       32.544 -15.733   8.959  0.00  0.00    -0.246 OA
BRANCH   3   6
ATOM      5  C   LIG    1       32.262 -16.760  12.131  0.00  0.00    +0.280 C 
ATOM      6  O   LIG    1       32.794 -17.050  10.840  0.00  0.00    -0.465 OA
ENDBRANCH   3   6
ENDBRANCH   1   3
BRANCH   2   7
ATOM      7  C   LIG    1       31.449 -19.426   8.639  0.00  0.00    +0.332 C 
ATOM      8  O   LIG    1       32.023 -20.196   9.386  0.00  0.00    -0.246 OA
BRANCH   7   9
ATOM      9  O   LIG    1       31.638 -19.299   7.301  0.00  0.00    -0.465 OA
ATOM     10  C   LIG    1       30.446 -19.213   6.524  0.00  0.00    +0.280 C 
ENDBRANCH   7   9
ENDBRANCH   2   7
TORSDOF 4
ENDMDL
MODEL 6
REMARK VINA RESULT:      -5.2      2.600      4.716
REMARK  Name = *****
REMARK                            x       y       z     vdW  Elec       q    Type
REMARK                         _______ _______ _______ _____ _____    ______ ____
ROOT
ATOM      1  C   LIG    1       30.516 -18.412   8.202  0.00  0.00    +0.098 C 
ATOM      2  C   LIG    1       29.526 -18.900   7.444  0.00  0.00    +0.098 C 
ENDROOT
BRANCH   1   3
ATOM      3  C   LIG    1       31.220 -19.068   9.330  0.00  0.00    +0.332 C 
ATOM      4  O   LIG    1       32.141 -19.855   9.171  0.00  0.00    -0.246 OA
BRANCH   3   6
ATOM      5  C   LIG    1       30.504 -17.393  10.833  0.00  0.00    +0.280 C 
ATOM      6  O   LIG    1       30.588 -18.776  10.496  0.00  0.00    -0.465 OA
ENDBRANCH   3   6
ENDBRANCH   1   3
BRANCH   2   7
ATOM      7  C   LIG    1       28.786 -20.177   7.593  0.00  0.00    +0.332 C 
ATOM      8  O   LIG    1       29.003 -21.143   6.883  0.00  0.00    -0.246 OA
BRANCH   7   9
ATOM      9  O   LIG    1       27.801 -20.054   8.517  0.00  0.00    -0.465 OA
ATOM     10  C   LIG    1       26.514 -20.501   8.096  0.00  0.00    +0.280 C 
ENDBRANCH   7   9
ENDBRANCH   2   7
TORSDOF 4
ENDMDL
MODEL 7
REMARK VINA RESULT:      -5.2      2.662      3.328
REMARK  Name = *****
REMARK                            x       y       z     vdW  Elec       q    Type
REMARK                         _______ _______ _______ _____ _____    ______ ____
ROOT
ATOM      1  C   LIG    1       29.491 -19.101   7.347  0.00  0.00    +0.098 C 
ATOM      2  C   LIG    1       30.494 -18.570   8.056  0.00  0.00    +0.098 C 
ENDROOT
BRANCH   1   3
ATOM      3  C   LIG    1       28.717 -20.334   7.627  0.00  0.00    +0.332 C 
ATOM      4  O   LIG    1       28.877 -21.374   7.006  0.00  0.00    -0.246 OA
BRANCH   3   6
ATOM      5  C   LIG    1       26.432 -20.514   8.196  0.00  0.00    +0.280 C 
ATOM      6  O   LIG    1       27.743 -20.068   8.535  0.00  0.00    -0.465 OA
ENDBRANCH   3   6
ENDBRANCH   1   3
BRANCH   2   7
ATOM      7  C   LIG    1       31.182 -19.123   9.248  0.00  0.00    +0.332 C 
ATOM      8  O   LIG    1       32.136 -19.875   9.160  0.00  0.00    -0.246 OA
BRANCH   7   9
ATOM      9  O   LIG    1       30.530 -18.769  10.384  0.00  0.00    -0.465 OA
ATOM     10  C   LIG    1       30.380 -17.365  10.585  0.00  0.00    +0.280 C 
ENDBRANCH   7   9
ENDBRANCH   2   7
TORSDOF 4
ENDMDL
MODEL 8
REMARK VINA RESULT:      -4.9      2.477      4.459
REMARK  Name = *****
REMARK                            x       y       z     vdW  Elec       q    Type
REMARK                         _______ _______ _______ _____ _____    ______ ____
ROOT
ATOM      1  C   LIG    1       30.844 -18.617   8.031  0.00  0.00    +0.098 C 
ATOM      2  C   LIG    1       29.917 -18.937   7.119  0.00  0.00    +0.098 C 
ENDROOT
BRANCH   1   3
ATOM      3  C   LIG    1       31.192 -19.336   9.280  0.00  0.00    +0.332 C 
ATOM      4  O   LIG    1       30.894 -18.921  10.390  0.00  0.00    -0.246 OA
BRANCH   3   6
ATOM      5  C   LIG    1       31.410 -21.684   9.149  0.00  0.00    +0.280 C 
ATOM      6  O   LIG    1       31.995 -20.393   8.992  0.00  0.00    -0.465 OA
ENDBRANCH   3   6
ENDBRANCH   1   3
BRANCH   2   7
ATOM      7  C   LIG    1       28.912 -20.027   7.160  0.00  0.00    +0.332 C 
ATOM      8  O   LIG    1       28.838 -20.878   6.292  0.00  0.00    -0.246 OA
BRANCH   7   9
ATOM      9  O   LIG    1       28.062 -19.854   8.202  0.00  0.00    -0.465 OA
ATOM     10  C   LIG    1       26.780 -20.458   8.046  0.00  0.00    +0.280 C 
ENDBRANCH   7   9
ENDBRANCH   2   7
TORSDOF 4
ENDMDL
MODEL 9
REMARK VINA RESULT:      -4.9      2.476      3.728
REMARK  Name = *****
REMARK                            x       y       z     vdW  Elec       q    Type
REMARK                         _______ _______ _______ _____ _____    ______ ____
ROOT
ATOM      1  C   LIG    1       30.198 -19.137   7.011  0.00  0.00    +0.098 C 
ATOM      2  C   LIG    1       31.112 -18.873   7.952  0.00  0.00    +0.098 C 
ENDROOT
BRANCH   1   3
ATOM      3  C   LIG    1       29.065 -20.092   7.070  0.00  0.00    +0.332 C 
ATOM      4  O   LIG    1       28.849 -20.922   6.199  0.00  0.00    -0.246 OA
BRANCH   3   6
ATOM      5  C   LIG    1       26.972 -20.391   8.123  0.00  0.00    +0.280 C 
ATOM      6  O   LIG    1       28.264 -19.787   8.124  0.00  0.00    -0.465 OA
ENDBRANCH   3   6
ENDBRANCH   1   3
BRANCH   2   7
ATOM      7  C   LIG    1       31.312 -19.536   9.264  0.00  0.00    +0.332 C 
ATOM      8  O   LIG    1       30.898 -19.061  10.305  0.00  0.00    -0.246 OA
BRANCH   7   9
ATOM      9  O   LIG    1       32.095 -20.636   9.128  0.00  0.00    -0.465 OA
ATOM     10  C   LIG    1       31.403 -21.882   9.156  0.00  0.00    +0.280 C 
ENDBRANCH   7   9
ENDBRANCH   2   7
TORSDOF 4
ENDMDL
