MODEL 1
REMARK VINA RESULT:      -8.8      0.000      0.000
REMARK  Name = *****
REMARK                            x       y       z     vdW  Elec       q    Type
REMARK                         _______ _______ _______ _____ _____    ______ ____
ROOT
ATOM      1  C   LIG    1       25.462 -21.461   6.796  0.00  0.00    +0.133 C 
ATOM      2  C   LIG    1       25.164 -20.955   8.227  0.00  0.00    +0.054 C 
ENDROOT
BRANCH   1   3
ATOM      3  C   LIG    1       25.131 -22.975   6.692  0.00  0.00    +0.077 A 
ATOM      4  N   LIG    1       26.180 -23.862   6.638  0.00  0.00    -0.257 NA
ATOM      5  C   LIG    1       25.917 -25.178   6.499  0.00  0.00    +0.111 A 
ATOM      6  C   LIG    1       24.644 -25.702   6.411  0.00  0.00    +0.020 A 
ATOM      7  C   LIG    1       23.580 -24.807   6.463  0.00  0.00    +0.003 A 
ATOM      8  C   LIG    1       23.822 -23.438   6.597  0.00  0.00    +0.026 A 
ENDBRANCH   1   3
BRANCH   1   9
ATOM      9  C   LIG    1       24.626 -20.581   5.814  0.00  0.00    -0.010 A 
ATOM     10  C   LIG    1       23.280 -20.253   6.082  0.00  0.00    +0.007 A 
ATOM     11  C   LIG    1       22.507 -19.484   5.205  0.00  0.00    +0.000 A 
ATOM     12  C   LIG    1       23.062 -19.040   4.012  0.00  0.00    +0.000 A 
ATOM     13  C   LIG    1       24.376 -19.369   3.702  0.00  0.00    +0.000 A 
ATOM     14  C   LIG    1       25.156 -20.125   4.592  0.00  0.00    +0.007 A 
ENDBRANCH   1   9
BRANCH   1  15
ATOM     15  O   LIG    1       26.844 -21.187   6.458  0.00  0.00    -0.362 OA
BRANCH  15  16
ATOM     16  C   LIG    1       27.672 -20.464   7.358  0.00  0.00    +0.177 C 
BRANCH  16  17
ATOM     17  C   LIG    1       28.892 -21.332   7.794  0.00  0.00    +0.112 C 
BRANCH  17  19
ATOM     18  C   LIG    1       31.007 -21.664   8.995  0.00  0.00    +0.104 C 
ATOM     19  N   LIG    1       30.070 -20.700   8.430  0.00  0.00    -0.306 NA
ATOM     20  C   LIG    1       30.771 -19.788   7.532  0.00  0.00    +0.104 C 
ENDBRANCH  17  19
ENDBRANCH  16  17
ENDBRANCH  15  16
ENDBRANCH   1  15
TORSDOF 6
ENDMDL
MODEL 2
REMARK VINA RESULT:      -8.0      1.985      5.382
REMARK  Name = *****
REMARK                            x       y       z     vdW  Elec       q    Type
REMARK                         _______ _______ _______ _____ _____    ______ ____
ROOT
ATOM      1  C   LIG    1       26.012 -21.811   7.069  0.00  0.00    +0.133 C 
ATOM      2  C   LIG    1       25.594 -21.779   8.558  0.00  0.00    +0.054 C 
ENDROOT
BRANCH   1   3
ATOM      3  C   LIG    1       24.880 -21.213   6.191  0.00  0.00    +0.077 A 
ATOM      4  N   LIG    1       25.031 -21.257   4.825  0.00  0.00    -0.257 NA
ATOM      5  C   LIG    1       24.083 -20.700   4.043  0.00  0.00    +0.111 A 
ATOM      6  C   LIG    1       22.950 -20.084   4.531  0.00  0.00    +0.020 A 
ATOM      7  C   LIG    1       22.794 -20.035   5.913  0.00  0.00    +0.003 A 
ATOM      8  C   LIG    1       23.764 -20.595   6.748  0.00  0.00    +0.026 A 
ENDBRANCH   1   3
BRANCH   1   9
ATOM      9  C   LIG    1       27.359 -21.029   6.953  0.00  0.00    -0.010 A 
ATOM     10  C   LIG    1       27.551 -20.036   5.969  0.00  0.00    +0.007 A 
ATOM     11  C   LIG    1       28.757 -19.339   5.834  0.00  0.00    +0.000 A 
ATOM     12  C   LIG    1       29.820 -19.640   6.675  0.00  0.00    +0.000 A 
ATOM     13  C   LIG    1       29.675 -20.633   7.636  0.00  0.00    +0.000 A 
ATOM     14  C   LIG    1       28.458 -21.319   7.782  0.00  0.00    +0.007 A 
ENDBRANCH   1   9
BRANCH   1  15
ATOM     15  O   LIG    1       26.335 -23.169   6.681  0.00  0.00    -0.362 OA
BRANCH  15  16
ATOM     16  C   LIG    1       25.343 -24.185   6.736  0.00  0.00    +0.177 C 
BRANCH  16  17
ATOM     17  C   LIG    1       25.160 -24.845   5.335  0.00  0.00    +0.112 C 
BRANCH  17  19
ATOM     18  C   LIG    1       26.625 -26.813   5.392  0.00  0.00    +0.104 C 
ATOM     19  N   LIG    1       25.273 -26.312   5.179  0.00  0.00    -0.306 NA
ATOM     20  C   LIG    1       24.331 -27.041   6.022  0.00  0.00    +0.104 C 
ENDBRANCH  17  19
ENDBRANCH  16  17
ENDBRANCH  15  16
ENDBRANCH   1  15
TORSDOF 6
ENDMDL
MODEL 3
REMARK VINA RESULT:      -7.9      1.980      5.406
REMARK  Name = *****
REMARK                            x       y       z     vdW  Elec       q    Type
REMARK                         _______ _______ _______ _____ _____    ______ ____
ROOT
ATOM      1  C   LIG    1       25.944 -21.786   7.013  0.00  0.00    +0.133 C 
ATOM      2  C   LIG    1       25.544 -21.699   8.505  0.00  0.00    +0.054 C 
ENDROOT
BRANCH   1   3
ATOM      3  C   LIG    1       24.818 -21.185   6.129  0.00  0.00    +0.077 A 
ATOM      4  N   LIG    1       25.000 -21.180   4.767  0.00  0.00    -0.257 NA
ATOM      5  C   LIG    1       24.057 -20.619   3.982  0.00  0.00    +0.111 A 
ATOM      6  C   LIG    1       22.900 -20.045   4.464  0.00  0.00    +0.020 A 
ATOM      7  C   LIG    1       22.711 -20.045   5.843  0.00  0.00    +0.003 A 
ATOM      8  C   LIG    1       23.676 -20.610   6.681  0.00  0.00    +0.026 A 
ENDBRANCH   1   3
BRANCH   1   9
ATOM      9  C   LIG    1       27.309 -21.044   6.860  0.00  0.00    -0.010 A 
ATOM     10  C   LIG    1       28.386 -21.294   7.735  0.00  0.00    +0.007 A 
ATOM     11  C   LIG    1       29.610 -20.624   7.629  0.00  0.00    +0.000 A 
ATOM     12  C   LIG    1       29.778 -19.657   6.646  0.00  0.00    +0.000 A 
ATOM     13  C   LIG    1       28.728 -19.364   5.785  0.00  0.00    +0.000 A 
ATOM     14  C   LIG    1       27.507 -20.051   5.882  0.00  0.00    +0.007 A 
ENDBRANCH   1   9
BRANCH   1  15
ATOM     15  O   LIG    1       26.227 -23.163   6.663  0.00  0.00    -0.362 OA
BRANCH  15  16
ATOM     16  C   LIG    1       25.171 -24.110   6.569  0.00  0.00    +0.177 C 
BRANCH  16  17
ATOM     17  C   LIG    1       25.203 -24.827   5.185  0.00  0.00    +0.112 C 
BRANCH  17  19
ATOM     18  C   LIG    1       26.208 -27.034   4.807  0.00  0.00    +0.104 C 
ATOM     19  N   LIG    1       24.989 -26.289   5.094  0.00  0.00    -0.306 NA
ATOM     20  C   LIG    1       24.335 -26.835   6.279  0.00  0.00    +0.104 C 
ENDBRANCH  17  19
ENDBRANCH  16  17
ENDBRANCH  15  16
ENDBRANCH   1  15
TORSDOF 6
ENDMDL
MODEL 4
REMARK VINA RESULT:      -7.2      2.013      5.940
REMARK  Name = *****
REMARK                            x       y       z     vdW  Elec       q    Type
REMARK                         _______ _______ _______ _____ _____    ______ ____
ROOT
ATOM      1  C   LIG    1       25.184 -22.289   6.564  0.00  0.00    +0.133 C 
ATOM      2  C   LIG    1       24.557 -22.205   7.976  0.00  0.00    +0.054 C 
ENDROOT
BRANCH   1   3
ATOM      3  C   LIG    1       26.527 -21.511   6.537  0.00  0.00    +0.077 A 
ATOM      4  N   LIG    1       27.510 -21.890   7.420  0.00  0.00    -0.257 NA
ATOM      5  C   LIG    1       28.668 -21.198   7.448  0.00  0.00    +0.111 A 
ATOM      6  C   LIG    1       28.938 -20.120   6.630  0.00  0.00    +0.020 A 
ATOM      7  C   LIG    1       27.945 -19.731   5.736  0.00  0.00    +0.003 A 
ATOM      8  C   LIG    1       26.732 -20.423   5.693  0.00  0.00    +0.026 A 
ENDBRANCH   1   3
BRANCH   1   9
ATOM      9  C   LIG    1       25.343 -23.804   6.221  0.00  0.00    -0.010 A 
ATOM     10  C   LIG    1       24.988 -24.314   4.955  0.00  0.00    +0.007 A 
ATOM     11  C   LIG    1       25.103 -25.671   4.634  0.00  0.00    +0.000 A 
ATOM     12  C   LIG    1       25.557 -26.565   5.595  0.00  0.00    +0.000 A 
ATOM     13  C   LIG    1       25.888 -26.102   6.862  0.00  0.00    +0.000 A 
ATOM     14  C   LIG    1       25.790 -24.737   7.176  0.00  0.00    +0.007 A 
ENDBRANCH   1   9
BRANCH   1  15
ATOM     15  O   LIG    1       24.247 -21.781   5.583  0.00  0.00    -0.362 OA
BRANCH  15  16
ATOM     16  C   LIG    1       22.943 -21.377   5.978  0.00  0.00    +0.177 C 
BRANCH  16  17
ATOM     17  C   LIG    1       22.340 -20.387   4.936  0.00  0.00    +0.112 C 
BRANCH  17  19
ATOM     18  C   LIG    1       23.935 -19.139   3.551  0.00  0.00    +0.104 C 
ATOM     19  N   LIG    1       23.000 -19.090   4.667  0.00  0.00    -0.306 NA
ATOM     20  C   LIG    1       22.044 -18.003   4.473  0.00  0.00    +0.104 C 
ENDBRANCH  17  19
ENDBRANCH  16  17
ENDBRANCH  15  16
ENDBRANCH   1  15
TORSDOF 6
ENDMDL
MODEL 5
REMARK VINA RESULT:      -7.1      2.000      5.693
REMARK  Name = *****
REMARK                            x       y       z     vdW  Elec       q    Type
REMARK                         _______ _______ _______ _____ _____    ______ ____
ROOT
ATOM      1  C   LIG    1       24.581 -23.025   6.093  0.00  0.00    +0.133 C 
ATOM      2  C   LIG    1       23.178 -23.078   6.743  0.00  0.00    +0.054 C 
ENDROOT
BRANCH   1   3
ATOM      3  C   LIG    1       25.521 -22.127   6.942  0.00  0.00    +0.077 A 
ATOM      4  N   LIG    1       26.866 -22.153   6.660  0.00  0.00    -0.257 NA
ATOM      5  C   LIG    1       27.708 -21.418   7.415  0.00  0.00    +0.111 A 
ATOM      6  C   LIG    1       27.301 -20.624   8.467  0.00  0.00    +0.020 A 
ATOM      7  C   LIG    1       25.941 -20.596   8.758  0.00  0.00    +0.003 A 
ATOM      8  C   LIG    1       25.046 -21.355   7.999  0.00  0.00    +0.026 A 
ENDBRANCH   1   3
BRANCH   1   9
ATOM      9  C   LIG    1       25.085 -24.498   5.968  0.00  0.00    -0.010 A 
ATOM     10  C   LIG    1       25.616 -25.191   7.076  0.00  0.00    +0.007 A 
ATOM     11  C   LIG    1       26.093 -26.503   6.981  0.00  0.00    +0.000 A 
ATOM     12  C   LIG    1       26.073 -27.151   5.753  0.00  0.00    +0.000 A 
ATOM     13  C   LIG    1       25.585 -26.488   4.634  0.00  0.00    +0.000 A 
ATOM     14  C   LIG    1       25.089 -25.178   4.736  0.00  0.00    +0.007 A 
ENDBRANCH   1   9
BRANCH   1  15
ATOM     15  O   LIG    1       24.470 -22.551   4.729  0.00  0.00    -0.362 OA
BRANCH  15  16
ATOM     16  C   LIG    1       23.845 -21.306   4.451  0.00  0.00    +0.177 C 
BRANCH  16  17
ATOM     17  C   LIG    1       24.903 -20.253   4.001  0.00  0.00    +0.112 C 
BRANCH  17  19
ATOM     18  C   LIG    1       23.259 -18.431   3.952  0.00  0.00    +0.104 C 
ATOM     19  N   LIG    1       24.475 -18.985   3.369  0.00  0.00    -0.306 NA
ATOM     20  C   LIG    1       25.531 -17.977   3.362  0.00  0.00    +0.104 C 
ENDBRANCH  17  19
ENDBRANCH  16  17
ENDBRANCH  15  16
ENDBRANCH   1  15
TORSDOF 6
ENDMDL
MODEL 6
REMARK VINA RESULT:      -6.5      1.443      4.351
REMARK  Name = *****
REMARK                            x       y       z     vdW  Elec       q    Type
REMARK                         _______ _______ _______ _____ _____    ______ ____
ROOT
ATOM      1  C   LIG    1       25.326 -21.136   6.382  0.00  0.00    +0.133 C 
ATOM      2  C   LIG    1       26.744 -21.076   5.768  0.00  0.00    +0.054 C 
ENDROOT
BRANCH   1   3
ATOM      3  C   LIG    1       24.341 -20.300   5.520  0.00  0.00    +0.077 A 
ATOM      4  N   LIG    1       24.799 -19.794   4.327  0.00  0.00    -0.257 NA
ATOM      5  C   LIG    1       23.977 -19.024   3.584  0.00  0.00    +0.111 A 
ATOM      6  C   LIG    1       22.683 -18.711   3.946  0.00  0.00    +0.020 A 
ATOM      7  C   LIG    1       22.216 -19.219   5.154  0.00  0.00    +0.003 A 
ATOM      8  C   LIG    1       23.049 -20.011   5.949  0.00  0.00    +0.026 A 
ENDBRANCH   1   3
BRANCH   1   9
ATOM      9  C   LIG    1       24.930 -22.644   6.479  0.00  0.00    -0.010 A 
ATOM     10  C   LIG    1       25.902 -23.665   6.422  0.00  0.00    +0.007 A 
ATOM     11  C   LIG    1       25.567 -25.023   6.485  0.00  0.00    +0.000 A 
ATOM     12  C   LIG    1       24.233 -25.395   6.582  0.00  0.00    +0.000 A 
ATOM     13  C   LIG    1       23.247 -24.416   6.611  0.00  0.00    +0.000 A 
ATOM     14  C   LIG    1       23.587 -23.054   6.566  0.00  0.00    +0.007 A 
ENDBRANCH   1   9
BRANCH   1  15
ATOM     15  O   LIG    1       25.368 -20.673   7.754  0.00  0.00    -0.362 OA
BRANCH  15  16
ATOM     16  C   LIG    1       26.551 -20.823   8.526  0.00  0.00    +0.177 C 
BRANCH  16  17
ATOM     17  C   LIG    1       27.665 -19.862   8.009  0.00  0.00    +0.112 C 
BRANCH  17  19
ATOM     18  C   LIG    1       29.676 -21.269   8.043  0.00  0.00    +0.104 C 
ATOM     19  N   LIG    1       29.062 -20.018   8.472  0.00  0.00    -0.306 NA
ATOM     20  C   LIG    1       29.908 -18.890   8.095  0.00  0.00    +0.104 C 
ENDBRANCH  17  19
ENDBRANCH  16  17
ENDBRANCH  15  16
ENDBRANCH   1  15
TORSDOF 6
ENDMDL
MODEL 7
REMARK VINA RESULT:      -6.4      2.151      4.875
REMARK  Name = *****
REMARK                            x       y       z     vdW  Elec       q    Type
REMARK                         _______ _______ _______ _____ _____    ______ ____
ROOT
ATOM      1  C   LIG    1       24.605 -22.498   5.932  0.00  0.00    +0.133 C 
ATOM      2  C   LIG    1       24.731 -22.141   4.432  0.00  0.00    +0.054 C 
ENDROOT
BRANCH   1   3
ATOM      3  C   LIG    1       24.820 -24.023   6.132  0.00  0.00    +0.077 A 
ATOM      4  N   LIG    1       26.107 -24.474   6.307  0.00  0.00    -0.257 NA
ATOM      5  C   LIG    1       26.324 -25.800   6.434  0.00  0.00    +0.111 A 
ATOM      6  C   LIG    1       25.322 -26.748   6.404  0.00  0.00    +0.020 A 
ATOM      7  C   LIG    1       24.018 -26.295   6.224  0.00  0.00    +0.003 A 
ATOM      8  C   LIG    1       23.765 -24.929   6.080  0.00  0.00    +0.026 A 
ENDBRANCH   1   3
BRANCH   1   9
ATOM      9  C   LIG    1       25.646 -21.624   6.702  0.00  0.00    -0.010 A 
ATOM     10  C   LIG    1       25.504 -21.350   8.078  0.00  0.00    +0.007 A 
ATOM     11  C   LIG    1       26.413 -20.552   8.781  0.00  0.00    +0.000 A 
ATOM     12  C   LIG    1       27.485 -19.981   8.109  0.00  0.00    +0.000 A 
ATOM     13  C   LIG    1       27.639 -20.205   6.747  0.00  0.00    +0.000 A 
ATOM     14  C   LIG    1       26.736 -21.021   6.046  0.00  0.00    +0.007 A 
ENDBRANCH   1   9
BRANCH   1  15
ATOM     15  O   LIG    1       23.314 -22.067   6.430  0.00  0.00    -0.362 OA
BRANCH  15  16
ATOM     16  C   LIG    1       22.408 -21.382   5.576  0.00  0.00    +0.177 C 
BRANCH  16  17
ATOM     17  C   LIG    1       22.659 -19.845   5.635  0.00  0.00    +0.112 C 
BRANCH  17  19
ATOM     18  C   LIG    1       22.122 -17.674   4.624  0.00  0.00    +0.104 C 
ATOM     19  N   LIG    1       22.605 -19.030   4.400  0.00  0.00    -0.306 NA
ATOM     20  C   LIG    1       23.882 -18.996   3.694  0.00  0.00    +0.104 C 
ENDBRANCH  17  19
ENDBRANCH  16  17
ENDBRANCH  15  16
ENDBRANCH   1  15
TORSDOF 6
ENDMDL
MODEL 8
REMARK VINA RESULT:      -6.1      1.767      4.783
REMARK  Name = *****
REMARK                            x       y       z     vdW  Elec       q    Type
REMARK                         _______ _______ _______ _____ _____    ______ ____
ROOT
ATOM      1  C   LIG    1       24.681 -21.814   5.713  0.00  0.00    +0.133 C 
ATOM      2  C   LIG    1       24.933 -22.780   4.532  0.00  0.00    +0.054 C 
ENDROOT
BRANCH   1   3
ATOM      3  C   LIG    1       26.030 -21.437   6.384  0.00  0.00    +0.077 A 
ATOM      4  N   LIG    1       26.423 -22.154   7.488  0.00  0.00    -0.257 NA
ATOM      5  C   LIG    1       27.568 -21.813   8.116  0.00  0.00    +0.111 A 
ATOM      6  C   LIG    1       28.386 -20.779   7.713  0.00  0.00    +0.020 A 
ATOM      7  C   LIG    1       27.990 -20.049   6.596  0.00  0.00    +0.003 A 
ATOM      8  C   LIG    1       26.804 -20.373   5.932  0.00  0.00    +0.026 A 
ENDBRANCH   1   3
BRANCH   1   9
ATOM      9  C   LIG    1       23.912 -20.580   5.142  0.00  0.00    -0.010 A 
ATOM     10  C   LIG    1       24.351 -19.914   3.978  0.00  0.00    +0.007 A 
ATOM     11  C   LIG    1       23.689 -18.794   3.462  0.00  0.00    +0.000 A 
ATOM     12  C   LIG    1       22.574 -18.293   4.121  0.00  0.00    +0.000 A 
ATOM     13  C   LIG    1       22.132 -18.907   5.286  0.00  0.00    +0.000 A 
ATOM     14  C   LIG    1       22.786 -20.042   5.792  0.00  0.00    +0.007 A 
ENDBRANCH   1   9
BRANCH   1  15
ATOM     15  O   LIG    1       23.762 -22.422   6.654  0.00  0.00    -0.362 OA
BRANCH  15  16
ATOM     16  C   LIG    1       23.098 -23.635   6.326  0.00  0.00    +0.177 C 
BRANCH  16  17
ATOM     17  C   LIG    1       23.899 -24.859   6.867  0.00  0.00    +0.112 C 
BRANCH  17  19
ATOM     18  C   LIG    1       26.132 -25.663   6.241  0.00  0.00    +0.104 C 
ATOM     19  N   LIG    1       24.705 -25.691   5.946  0.00  0.00    -0.306 NA
ATOM     20  C   LIG    1       24.234 -27.071   5.880  0.00  0.00    +0.104 C 
ENDBRANCH  17  19
ENDBRANCH  16  17
ENDBRANCH  15  16
ENDBRANCH   1  15
TORSDOF 6
ENDMDL
