MODEL 1
REMARK VINA RESULT:       7.7      0.000      0.000
REMARK  Name = *****
REMARK                            x       y       z     vdW  Elec       q    Type
REMARK                         _______ _______ _______ _____ _____    ______ ____
ROOT
ATOM      1  C   LIG    1       23.456 -18.677   3.419  0.00  0.00    +0.183 C 
ATOM      2  C   LIG    1       24.666 -17.874   3.948  0.00  0.00    +0.008 C 
ATOM      3  C   LIG    1       25.353 -18.617   5.129  0.00  0.00    +0.015 C 
ATOM      4  C   LIG    1       23.993 -16.571   4.470  0.00  0.00    +0.002 C 
ATOM      5  C   LIG    1       23.984 -15.375   3.488  0.00  0.00    -0.003 C 
ATOM      6  C   LIG    1       25.289 -15.190   2.688  0.00  0.00    +0.002 C 
ATOM      7  C   LIG    1       25.573 -16.503   1.944  0.00  0.00    +0.005 C 
ATOM      8  C   LIG    1       26.491 -14.492   3.441  0.00  0.00    -0.007 C 
ATOM      9  C   LIG    1       27.540 -14.097   2.362  0.00  0.00    +0.016 C 
ATOM     10  C   LIG    1       25.973 -13.269   4.216  0.00  0.00    -0.060 C 
ATOM     11  C   LIG    1       26.857 -12.374   4.704  0.00  0.00    +0.046 C 
ATOM     12  C   LIG    1       27.727 -13.081   5.719  0.00  0.00    +0.156 C 
ATOM     13  O   LIG    1       28.141 -12.460   6.694  0.00  0.00    -0.293 OA
ATOM     14  C   LIG    1       28.191 -14.498   5.399  0.00  0.00    +0.080 C 
ATOM     15  C   LIG    1       24.699 -13.471   5.015  0.00  0.00    +0.032 C 
ATOM     16  C   LIG    1       27.224 -15.320   4.526  0.00  0.00    +0.019 C 
ATOM     17  C   LIG    1       23.581 -14.055   4.166  0.00  0.00    +0.008 C 
ATOM     18  C   LIG    1       22.532 -16.972   4.827  0.00  0.00    +0.008 C 
ATOM     19  C   LIG    1       25.738 -17.711   2.850  0.00  0.00    +0.011 C 
ATOM     20  C   LIG    1       22.375 -18.437   4.463  0.00  0.00    +0.045 C 
ENDROOT
BRANCH   1  21
ATOM     21  O   LIG    1       23.745 -20.073   3.392  0.00  0.00    -0.461 OA
BRANCH  21  22
ATOM     22  C   LIG    1       23.405 -20.829   4.463  0.00  0.00    +0.307 C 
ATOM     23  O   LIG    1       22.283 -20.928   4.925  0.00  0.00    -0.251 OA
BRANCH  22  24
ATOM     24  C   LIG    1       24.606 -21.540   5.036  0.00  0.00    +0.120 C 
BRANCH  24  25
ATOM     25  C   LIG    1       24.842 -21.239   6.520  0.00  0.00    +0.011 C 
BRANCH  25  26
ATOM     26  C   LIG    1       26.249 -21.572   7.012  0.00  0.00    +0.000 C 
BRANCH  26  27
ATOM     27  C   LIG    1       27.217 -20.386   7.061  0.00  0.00    -0.000 C 
BRANCH  27  29
ATOM     28  C   LIG    1       28.732 -19.131   5.476  0.00  0.00    +0.004 C 
ATOM     29  C   LIG    1       28.351 -20.490   6.038  0.00  0.00    -0.003 C 
ENDBRANCH  27  29
ENDBRANCH  26  27
ENDBRANCH  25  26
ENDBRANCH  24  25
ENDBRANCH  22  24
ENDBRANCH  21  22
ENDBRANCH   1  21
TORSDOF 7
ENDMDL
MODEL 2
REMARK VINA RESULT:       7.8      1.823      2.857
REMARK  Name = *****
REMARK                            x       y       z     vdW  Elec       q    Type
REMARK                         _______ _______ _______ _____ _____    ______ ____
ROOT
ATOM      1  C   LIG    1       22.546 -16.204   3.588  0.00  0.00    +0.183 C 
ATOM      2  C   LIG    1       23.748 -15.639   4.380  0.00  0.00    +0.008 C 
ATOM      3  C   LIG    1       23.312 -15.173   5.798  0.00  0.00    +0.015 C 
ATOM      4  C   LIG    1       24.152 -14.402   3.523  0.00  0.00    +0.002 C 
ATOM      5  C   LIG    1       25.291 -14.631   2.501  0.00  0.00    -0.003 C 
ATOM      6  C   LIG    1       26.450 -15.508   3.015  0.00  0.00    +0.002 C 
ATOM      7  C   LIG    1       25.857 -16.846   3.478  0.00  0.00    +0.005 C 
ATOM      8  C   LIG    1       27.510 -14.805   3.954  0.00  0.00    -0.007 C 
ATOM      9  C   LIG    1       28.740 -15.753   4.047  0.00  0.00    +0.016 C 
ATOM     10  C   LIG    1       27.884 -13.432   3.372  0.00  0.00    -0.060 C 
ATOM     11  C   LIG    1       28.962 -12.781   3.856  0.00  0.00    +0.046 C 
ATOM     12  C   LIG    1       28.709 -12.478   5.316  0.00  0.00    +0.156 C 
ATOM     13  O   LIG    1       29.164 -11.447   5.805  0.00  0.00    -0.293 OA
ATOM     14  C   LIG    1       28.038 -13.554   6.164  0.00  0.00    +0.080 C 
ATOM     15  C   LIG    1       26.731 -12.571   2.888  0.00  0.00    +0.032 C 
ATOM     16  C   LIG    1       27.065 -14.472   5.400  0.00  0.00    +0.019 C 
ATOM     17  C   LIG    1       25.833 -13.318   1.915  0.00  0.00    +0.008 C 
ATOM     18  C   LIG    1       22.855 -13.969   2.781  0.00  0.00    +0.008 C 
ATOM     19  C   LIG    1       24.827 -16.723   4.587  0.00  0.00    +0.011 C 
ATOM     20  C   LIG    1       21.774 -14.964   3.163  0.00  0.00    +0.045 C 
ENDROOT
BRANCH   1  21
ATOM     21  O   LIG    1       21.704 -16.984   4.434  0.00  0.00    -0.461 OA
BRANCH  21  22
ATOM     22  C   LIG    1       21.410 -18.255   4.065  0.00  0.00    +0.307 C 
ATOM     23  O   LIG    1       20.454 -18.586   3.388  0.00  0.00    -0.251 OA
BRANCH  22  24
ATOM     24  C   LIG    1       22.422 -19.231   4.612  0.00  0.00    +0.120 C 
BRANCH  24  25
ATOM     25  C   LIG    1       21.835 -20.616   4.905  0.00  0.00    +0.011 C 
BRANCH  25  26
ATOM     26  C   LIG    1       22.762 -21.536   5.697  0.00  0.00    +0.000 C 
BRANCH  26  27
ATOM     27  C   LIG    1       23.315 -20.941   6.995  0.00  0.00    -0.000 C 
BRANCH  27  29
ATOM     28  C   LIG    1       25.385 -20.853   5.549  0.00  0.00    +0.004 C 
ATOM     29  C   LIG    1       24.747 -20.419   6.858  0.00  0.00    -0.003 C 
ENDBRANCH  27  29
ENDBRANCH  26  27
ENDBRANCH  25  26
ENDBRANCH  24  25
ENDBRANCH  22  24
ENDBRANCH  21  22
ENDBRANCH   1  21
TORSDOF 7
ENDMDL
MODEL 3
REMARK VINA RESULT:       8.3      1.403      2.071
REMARK  Name = *****
REMARK                            x       y       z     vdW  Elec       q    Type
REMARK                         _______ _______ _______ _____ _____    ______ ____
ROOT
ATOM      1  C   LIG    1       24.213 -20.364   4.417  0.00  0.00    +0.183 C 
ATOM      2  C   LIG    1       25.000 -19.080   4.768  0.00  0.00    +0.008 C 
ATOM      3  C   LIG    1       25.723 -19.228   6.137  0.00  0.00    +0.015 C 
ATOM      4  C   LIG    1       23.864 -18.022   4.886  0.00  0.00    +0.002 C 
ATOM      5  C   LIG    1       23.594 -17.175   3.620  0.00  0.00    -0.003 C 
ATOM      6  C   LIG    1       24.861 -16.728   2.864  0.00  0.00    +0.002 C 
ATOM      7  C   LIG    1       25.668 -17.987   2.515  0.00  0.00    +0.005 C 
ATOM      8  C   LIG    1       25.643 -15.490   3.458  0.00  0.00    -0.007 C 
ATOM      9  C   LIG    1       26.641 -15.010   2.364  0.00  0.00    +0.016 C 
ATOM     10  C   LIG    1       24.644 -14.388   3.849  0.00  0.00    -0.060 C 
ATOM     11  C   LIG    1       25.100 -13.148   4.120  0.00  0.00    +0.046 C 
ATOM     12  C   LIG    1       26.005 -13.236   5.329  0.00  0.00    +0.156 C 
ATOM     13  O   LIG    1       26.047 -12.298   6.120  0.00  0.00    -0.293 OA
ATOM     14  C   LIG    1       26.956 -14.425   5.425  0.00  0.00    +0.080 C 
ATOM     15  C   LIG    1       23.411 -14.840   4.610  0.00  0.00    +0.032 C 
ATOM     16  C   LIG    1       26.450 -15.719   4.760  0.00  0.00    +0.019 C 
ATOM     17  C   LIG    1       22.683 -15.968   3.897  0.00  0.00    +0.008 C 
ATOM     18  C   LIG    1       22.586 -18.825   5.267  0.00  0.00    +0.008 C 
ATOM     19  C   LIG    1       26.098 -18.806   3.719  0.00  0.00    +0.011 C 
ATOM     20  C   LIG    1       22.979 -20.290   5.303  0.00  0.00    +0.045 C 
ENDROOT
BRANCH   1  21
ATOM     21  O   LIG    1       24.953 -21.528   4.780  0.00  0.00    -0.461 OA
BRANCH  21  22
ATOM     22  C   LIG    1       25.615 -21.535   5.962  0.00  0.00    +0.307 C 
ATOM     23  O   LIG    1       25.090 -21.508   7.060  0.00  0.00    -0.251 OA
BRANCH  22  24
ATOM     24  C   LIG    1       27.109 -21.572   5.754  0.00  0.00    +0.120 C 
BRANCH  24  25
ATOM     25  C   LIG    1       27.907 -21.560   7.062  0.00  0.00    +0.011 C 
BRANCH  25  26
ATOM     26  C   LIG    1       29.283 -20.906   6.952  0.00  0.00    +0.000 C 
BRANCH  26  27
ATOM     27  C   LIG    1       29.462 -19.966   5.757  0.00  0.00    -0.000 C 
BRANCH  27  29
ATOM     28  C   LIG    1       29.187 -17.630   4.833  0.00  0.00    +0.004 C 
ATOM     29  C   LIG    1       29.018 -18.530   6.045  0.00  0.00    -0.003 C 
ENDBRANCH  27  29
ENDBRANCH  26  27
ENDBRANCH  25  26
ENDBRANCH  24  25
ENDBRANCH  22  24
ENDBRANCH  21  22
ENDBRANCH   1  21
TORSDOF 7
ENDMDL
MODEL 4
REMARK VINA RESULT:      10.1      1.569      2.397
REMARK  Name = *****
REMARK                            x       y       z     vdW  Elec       q    Type
REMARK                         _______ _______ _______ _____ _____    ______ ____
ROOT
ATOM      1  C   LIG    1       22.269 -16.562   3.833  0.00  0.00    +0.183 C 
ATOM      2  C   LIG    1       23.742 -16.096   3.777  0.00  0.00    +0.008 C 
ATOM      3  C   LIG    1       24.711 -17.276   4.071  0.00  0.00    +0.015 C 
ATOM      4  C   LIG    1       23.803 -15.064   4.942  0.00  0.00    +0.002 C 
ATOM      5  C   LIG    1       23.611 -13.582   4.545  0.00  0.00    -0.003 C 
ATOM      6  C   LIG    1       24.317 -13.170   3.237  0.00  0.00    +0.002 C 
ATOM      7  C   LIG    1       23.821 -14.103   2.122  0.00  0.00    +0.005 C 
ATOM      8  C   LIG    1       25.869 -12.887   3.327  0.00  0.00    -0.007 C 
ATOM      9  C   LIG    1       26.279 -12.159   2.014  0.00  0.00    +0.016 C 
ATOM     10  C   LIG    1       26.167 -12.037   4.574  0.00  0.00    -0.060 C 
ATOM     11  C   LIG    1       27.376 -11.452   4.701  0.00  0.00    +0.046 C 
ATOM     12  C   LIG    1       28.419 -12.545   4.774  0.00  0.00    +0.156 C 
ATOM     13  O   LIG    1       29.421 -12.376   5.463  0.00  0.00    -0.293 OA
ATOM     14  C   LIG    1       28.260 -13.747   3.849  0.00  0.00    +0.080 C 
ATOM     15  C   LIG    1       25.481 -12.465   5.857  0.00  0.00    +0.032 C 
ATOM     16  C   LIG    1       26.805 -14.110   3.497  0.00  0.00    +0.019 C 
ATOM     17  C   LIG    1       23.978 -12.611   5.678  0.00  0.00    +0.008 C 
ATOM     18  C   LIG    1       22.686 -15.494   5.937  0.00  0.00    +0.008 C 
ATOM     19  C   LIG    1       24.099 -15.575   2.369  0.00  0.00    +0.011 C 
ATOM     20  C   LIG    1       21.983 -16.690   5.322  0.00  0.00    +0.045 C 
ENDROOT
BRANCH   1  21
ATOM     21  O   LIG    1       22.122 -17.850   3.239  0.00  0.00    -0.461 OA
BRANCH  21  22
ATOM     22  C   LIG    1       21.324 -18.760   3.849  0.00  0.00    +0.307 C 
ATOM     23  O   LIG    1       20.191 -19.043   3.506  0.00  0.00    -0.251 OA
BRANCH  22  24
ATOM     24  C   LIG    1       22.016 -19.388   5.034  0.00  0.00    +0.120 C 
BRANCH  24  25
ATOM     25  C   LIG    1       22.222 -20.899   4.890  0.00  0.00    +0.011 C 
BRANCH  25  26
ATOM     26  C   LIG    1       23.629 -21.378   5.240  0.00  0.00    +0.000 C 
BRANCH  26  27
ATOM     27  C   LIG    1       23.978 -21.335   6.731  0.00  0.00    -0.000 C 
BRANCH  27  29
ATOM     28  C   LIG    1       26.352 -20.816   6.037  0.00  0.00    +0.004 C 
ATOM     29  C   LIG    1       25.241 -20.525   7.033  0.00  0.00    -0.003 C 
ENDBRANCH  27  29
ENDBRANCH  26  27
ENDBRANCH  25  26
ENDBRANCH  24  25
ENDBRANCH  22  24
ENDBRANCH  21  22
ENDBRANCH   1  21
TORSDOF 7
ENDMDL
MODEL 5
REMARK VINA RESULT:      10.3      2.483      3.956
REMARK  Name = *****
REMARK                            x       y       z     vdW  Elec       q    Type
REMARK                         _______ _______ _______ _____ _____    ______ ____
ROOT
ATOM      1  C   LIG    1       28.094 -17.409   3.774  0.00  0.00    +0.183 C 
ATOM      2  C   LIG    1       27.492 -16.159   4.456  0.00  0.00    +0.008 C 
ATOM      3  C   LIG    1       27.626 -16.250   6.002  0.00  0.00    +0.015 C 
ATOM      4  C   LIG    1       25.991 -16.256   4.053  0.00  0.00    +0.002 C 
ATOM      5  C   LIG    1       25.570 -15.437   2.810  0.00  0.00    -0.003 C 
ATOM      6  C   LIG    1       26.207 -14.036   2.717  0.00  0.00    +0.002 C 
ATOM      7  C   LIG    1       27.732 -14.210   2.764  0.00  0.00    +0.005 C 
ATOM      8  C   LIG    1       25.565 -12.903   3.613  0.00  0.00    -0.007 C 
ATOM      9  C   LIG    1       26.118 -11.543   3.098  0.00  0.00    +0.016 C 
ATOM     10  C   LIG    1       24.032 -12.976   3.516  0.00  0.00    -0.060 C 
ATOM     11  C   LIG    1       23.292 -11.946   3.976  0.00  0.00    +0.046 C 
ATOM     12  C   LIG    1       23.536 -11.822   5.464  0.00  0.00    +0.156 C 
ATOM     13  O   LIG    1       22.624 -11.448   6.195  0.00  0.00    -0.293 OA
ATOM     14  C   LIG    1       24.962 -12.008   5.972  0.00  0.00    +0.080 C 
ATOM     15  C   LIG    1       23.417 -14.359   3.629  0.00  0.00    +0.032 C 
ATOM     16  C   LIG    1       25.831 -12.969   5.138  0.00  0.00    +0.019 C 
ATOM     17  C   LIG    1       24.044 -15.341   2.652  0.00  0.00    +0.008 C 
ATOM     18  C   LIG    1       25.725 -17.769   3.803  0.00  0.00    +0.008 C 
ATOM     19  C   LIG    1       28.246 -14.883   4.024  0.00  0.00    +0.011 C 
ATOM     20  C   LIG    1       27.047 -18.489   4.002  0.00  0.00    +0.045 C 
ENDROOT
BRANCH   1  21
ATOM     21  O   LIG    1       29.298 -17.812   4.424  0.00  0.00    -0.461 OA
BRANCH  21  22
ATOM     22  C   LIG    1       29.221 -18.316   5.679  0.00  0.00    +0.307 C 
ATOM     23  O   LIG    1       29.475 -17.702   6.699  0.00  0.00    -0.251 OA
BRANCH  22  24
ATOM     24  C   LIG    1       28.787 -19.761   5.664  0.00  0.00    +0.120 C 
BRANCH  24  25
ATOM     25  C   LIG    1       28.278 -20.258   7.021  0.00  0.00    +0.011 C 
BRANCH  25  26
ATOM     26  C   LIG    1       27.148 -21.282   6.931  0.00  0.00    +0.000 C 
BRANCH  26  27
ATOM     27  C   LIG    1       25.740 -20.687   6.827  0.00  0.00    -0.000 C 
BRANCH  27  29
ATOM     28  C   LIG    1       23.492 -20.847   5.684  0.00  0.00    +0.004 C 
ATOM     29  C   LIG    1       24.976 -21.159   5.588  0.00  0.00    -0.003 C 
ENDBRANCH  27  29
ENDBRANCH  26  27
ENDBRANCH  25  26
ENDBRANCH  24  25
ENDBRANCH  22  24
ENDBRANCH  21  22
ENDBRANCH   1  21
TORSDOF 7
ENDMDL
