MODEL 1
REMARK VINA RESULT:       0.1      0.000      0.000
REMARK  Name = *****
REMARK                            x       y       z     vdW  Elec       q    Type
REMARK                         _______ _______ _______ _____ _____    ______ ____
ROOT
ATOM      1  N   LIG    1       25.521 -14.656   3.107  0.00  0.00    -0.337 NA
ATOM      2  C   LIG    1       26.636 -13.906   3.457  0.00  0.00    +0.050 C 
ATOM      3  C   LIG    1       27.613 -14.801   3.909  0.00  0.00    +0.008 C 
ATOM      4  C   LIG    1       28.889 -14.270   4.238  0.00  0.00    +0.010 C 
ATOM      5  C   LIG    1       29.159 -12.905   4.104  0.00  0.00    +0.001 C 
ATOM      6  C   LIG    1       28.155 -12.036   3.715  0.00  0.00    +0.002 C 
ATOM      7  C   LIG    1       27.017 -16.115   3.963  0.00  0.00    +0.015 C 
ATOM      8  C   LIG    1       26.882 -12.519   3.407  0.00  0.00    +0.026 C 
ATOM      9  C   LIG    1       25.730 -15.994   3.435  0.00  0.00    +0.051 C 
ENDROOT
BRANCH   7  10
ATOM     10  C   LIG    1       27.604 -17.374   4.467  0.00  0.00    -0.015 C 
ATOM     11  C   LIG    1       26.931 -18.605   4.358  0.00  0.00    +0.011 C 
ATOM     12  C   LIG    1       27.503 -19.791   4.832  0.00  0.00    +0.039 C 
ATOM     13  C   LIG    1       28.736 -19.754   5.464  0.00  0.00    +0.123 C 
ATOM     14  F   LIG    1       29.284 -20.888   5.922  0.00  0.00    -0.205 F 
ATOM     15  C   LIG    1       29.411 -18.554   5.621  0.00  0.00    +0.039 C 
ATOM     16  C   LIG    1       28.856 -17.378   5.105  0.00  0.00    +0.011 C 
ENDBRANCH   7  10
BRANCH   1  18
ATOM     17  C   LIG    1       23.098 -14.177   3.385  0.00  0.00    +0.030 C 
ATOM     18  C   LIG    1       24.312 -14.122   2.458  0.00  0.00    +0.082 C 
ATOM     19  C   LIG    1       24.492 -12.738   1.823  0.00  0.00    +0.030 C 
ENDBRANCH   1  18
BRANCH   9  20
ATOM     20  C   LIG    1       24.676 -16.932   3.225  0.00  0.00    +0.025 C 
ATOM     21  C   LIG    1       23.899 -17.337   4.244  0.00  0.00    +0.006 C 
BRANCH  21  22
ATOM     22  C   LIG    1       22.770 -18.324   4.100  0.00  0.00    +0.140 C 
BRANCH  22  23
ATOM     23  O   LIG    1       21.559 -17.598   3.896  0.00  0.00    -0.388 OA
ATOM     24  H   LIG    1       21.177 -17.907   3.054  0.00  0.00    +0.210 HD
ENDBRANCH  22  23
BRANCH  22  25
ATOM     25  C   LIG    1       22.619 -19.244   5.323  0.00  0.00    +0.067 C 
BRANCH  25  26
ATOM     26  C   LIG    1       22.683 -20.746   4.974  0.00  0.00    +0.128 C 
BRANCH  26  27
ATOM     27  O   LIG    1       21.375 -21.319   4.904  0.00  0.00    -0.391 OA
ATOM     28  H   LIG    1       20.747 -20.597   4.671  0.00  0.00    +0.210 HD
ENDBRANCH  26  27
BRANCH  26  29
ATOM     29  C   LIG    1       23.447 -21.572   6.009  0.00  0.00    +0.151 C 
BRANCH  29  30
ATOM     30  C   LIG    1       24.856 -21.067   6.219  0.00  0.00    +0.307 C 
ATOM     31  O   LIG    1       25.172 -20.271   7.062  0.00  0.00    -0.251 OA
BRANCH  30  32
ATOM     32  O   LIG    1       25.736 -21.570   5.330  0.00  0.00    -0.481 OA
ATOM     33  H   LIG    1       25.990 -20.946   4.599  0.00  0.00    +0.295 HD
ENDBRANCH  30  32
ENDBRANCH  29  30
ENDBRANCH  26  29
ENDBRANCH  25  26
ENDBRANCH  22  25
ENDBRANCH  21  22
ENDBRANCH   9  20
TORSDOF 11
ENDMDL
MODEL 2
REMARK VINA RESULT:       0.9      3.688      7.022
REMARK  Name = *****
REMARK                            x       y       z     vdW  Elec       q    Type
REMARK                         _______ _______ _______ _____ _____    ______ ____
ROOT
ATOM      1  N   LIG    1       27.064 -18.308   4.534  0.00  0.00    -0.337 NA
ATOM      2  C   LIG    1       26.914 -19.344   5.447  0.00  0.00    +0.050 C 
ATOM      3  C   LIG    1       25.582 -19.770   5.378  0.00  0.00    +0.008 C 
ATOM      4  C   LIG    1       25.210 -20.894   6.161  0.00  0.00    +0.010 C 
ATOM      5  C   LIG    1       26.144 -21.556   6.964  0.00  0.00    +0.001 C 
ATOM      6  C   LIG    1       27.437 -21.074   7.060  0.00  0.00    +0.002 C 
ATOM      7  C   LIG    1       24.876 -18.869   4.496  0.00  0.00    +0.015 C 
ATOM      8  C   LIG    1       27.833 -19.957   6.324  0.00  0.00    +0.026 C 
ATOM      9  C   LIG    1       25.829 -17.993   3.971  0.00  0.00    +0.051 C 
ENDROOT
BRANCH   7  10
ATOM     10  C   LIG    1       23.434 -18.835   4.175  0.00  0.00    -0.015 C 
ATOM     11  C   LIG    1       22.787 -17.646   3.792  0.00  0.00    +0.011 C 
ATOM     12  C   LIG    1       21.421 -17.629   3.483  0.00  0.00    +0.039 C 
ATOM     13  C   LIG    1       20.677 -18.793   3.598  0.00  0.00    +0.123 C 
ATOM     14  F   LIG    1       19.369 -18.779   3.306  0.00  0.00    -0.205 F 
ATOM     15  C   LIG    1       21.275 -19.974   4.008  0.00  0.00    +0.039 C 
ATOM     16  C   LIG    1       22.649 -19.996   4.273  0.00  0.00    +0.011 C 
ENDBRANCH   7  10
BRANCH   1  18
ATOM     17  C   LIG    1       28.158 -16.182   3.859  0.00  0.00    +0.030 C 
ATOM     18  C   LIG    1       28.342 -17.662   4.190  0.00  0.00    +0.082 C 
ATOM     19  C   LIG    1       29.463 -17.891   5.211  0.00  0.00    +0.030 C 
ENDBRANCH   1  18
BRANCH   9  20
ATOM     20  C   LIG    1       25.743 -16.904   3.055  0.00  0.00    +0.025 C 
ATOM     21  C   LIG    1       25.245 -15.715   3.441  0.00  0.00    +0.006 C 
BRANCH  21  22
ATOM     22  C   LIG    1       25.122 -14.521   2.531  0.00  0.00    +0.140 C 
BRANCH  22  23
ATOM     23  O   LIG    1       26.424 -14.167   2.072  0.00  0.00    -0.388 OA
ATOM     24  H   LIG    1       26.654 -14.783   1.352  0.00  0.00    +0.210 HD
ENDBRANCH  22  23
BRANCH  22  25
ATOM     25  C   LIG    1       24.472 -13.309   3.220  0.00  0.00    +0.067 C 
BRANCH  25  26
ATOM     26  C   LIG    1       24.978 -13.075   4.659  0.00  0.00    +0.128 C 
BRANCH  26  27
ATOM     27  O   LIG    1       24.006 -12.382   5.445  0.00  0.00    -0.391 OA
ATOM     28  H   LIG    1       24.471 -12.011   6.231  0.00  0.00    +0.210 HD
ENDBRANCH  26  27
BRANCH  26  29
ATOM     29  C   LIG    1       26.248 -12.226   4.719  0.00  0.00    +0.151 C 
BRANCH  29  30
ATOM     30  C   LIG    1       27.484 -13.060   4.962  0.00  0.00    +0.307 C 
ATOM     31  O   LIG    1       28.282 -13.354   4.113  0.00  0.00    -0.251 OA
BRANCH  30  32
ATOM     32  O   LIG    1       27.592 -13.487   6.237  0.00  0.00    -0.481 OA
ATOM     33  H   LIG    1       28.525 -13.589   6.563  0.00  0.00    +0.295 HD
ENDBRANCH  30  32
ENDBRANCH  29  30
ENDBRANCH  26  29
ENDBRANCH  25  26
ENDBRANCH  22  25
ENDBRANCH  21  22
ENDBRANCH   9  20
TORSDOF 11
ENDMDL
MODEL 3
REMARK VINA RESULT:       2.1      3.174      6.451
REMARK  Name = *****
REMARK                            x       y       z     vdW  Elec       q    Type
REMARK                         _______ _______ _______ _____ _____    ______ ____
ROOT
ATOM      1  N   LIG    1       27.129 -16.930   4.123  0.00  0.00    -0.337 NA
ATOM      2  C   LIG    1       27.756 -17.981   4.779  0.00  0.00    +0.050 C 
ATOM      3  C   LIG    1       26.833 -19.030   4.863  0.00  0.00    +0.008 C 
ATOM      4  C   LIG    1       27.281 -20.258   5.416  0.00  0.00    +0.010 C 
ATOM      5  C   LIG    1       28.600 -20.415   5.851  0.00  0.00    +0.001 C 
ATOM      6  C   LIG    1       29.473 -19.342   5.814  0.00  0.00    +0.002 C 
ATOM      7  C   LIG    1       25.566 -18.544   4.365  0.00  0.00    +0.015 C 
ATOM      8  C   LIG    1       29.060 -18.112   5.299  0.00  0.00    +0.026 C 
ATOM      9  C   LIG    1       25.792 -17.249   3.891  0.00  0.00    +0.051 C 
ENDROOT
BRANCH   7  10
ATOM     10  C   LIG    1       24.260 -19.233   4.337  0.00  0.00    -0.015 C 
ATOM     11  C   LIG    1       23.046 -18.524   4.294  0.00  0.00    +0.011 C 
ATOM     12  C   LIG    1       21.815 -19.191   4.260  0.00  0.00    +0.039 C 
ATOM     13  C   LIG    1       21.783 -20.576   4.316  0.00  0.00    +0.123 C 
ATOM     14  F   LIG    1       20.606 -21.217   4.286  0.00  0.00    -0.205 F 
ATOM     15  C   LIG    1       22.958 -21.305   4.395  0.00  0.00    +0.039 C 
ATOM     16  C   LIG    1       24.187 -20.636   4.384  0.00  0.00    +0.011 C 
ENDBRANCH   7  10
BRANCH   1  18
ATOM     17  C   LIG    1       27.076 -15.034   2.518  0.00  0.00    +0.030 C 
ATOM     18  C   LIG    1       27.786 -15.680   3.707  0.00  0.00    +0.082 C 
ATOM     19  C   LIG    1       28.029 -14.682   4.846  0.00  0.00    +0.030 C 
ENDBRANCH   1  18
BRANCH   9  20
ATOM     20  C   LIG    1       24.942 -16.276   3.289  0.00  0.00    +0.025 C 
ATOM     21  C   LIG    1       24.427 -15.266   4.013  0.00  0.00    +0.006 C 
BRANCH  21  22
ATOM     22  C   LIG    1       23.522 -14.203   3.448  0.00  0.00    +0.140 C 
BRANCH  22  23
ATOM     23  O   LIG    1       22.266 -14.800   3.133  0.00  0.00    -0.388 OA
ATOM     24  H   LIG    1       22.453 -15.619   2.639  0.00  0.00    +0.210 HD
ENDBRANCH  22  23
BRANCH  22  25
ATOM     25  C   LIG    1       24.101 -13.529   2.192  0.00  0.00    +0.067 C 
BRANCH  25  26
ATOM     26  C   LIG    1       24.083 -11.987   2.259  0.00  0.00    +0.128 C 
BRANCH  26  27
ATOM     27  O   LIG    1       25.403 -11.447   2.160  0.00  0.00    -0.391 OA
ATOM     28  H   LIG    1       25.438 -10.641   2.725  0.00  0.00    +0.210 HD
ENDBRANCH  26  27
BRANCH  26  29
ATOM     29  C   LIG    1       23.508 -11.448   3.570  0.00  0.00    +0.151 C 
BRANCH  29  30
ATOM     30  C   LIG    1       24.398 -11.750   4.753  0.00  0.00    +0.307 C 
ATOM     31  O   LIG    1       25.493 -12.239   4.670  0.00  0.00    -0.251 OA
BRANCH  30  32
ATOM     32  O   LIG    1       23.825 -11.451   5.936  0.00  0.00    -0.481 OA
ATOM     33  H   LIG    1       24.398 -11.622   6.730  0.00  0.00    +0.295 HD
ENDBRANCH  30  32
ENDBRANCH  29  30
ENDBRANCH  26  29
ENDBRANCH  25  26
ENDBRANCH  22  25
ENDBRANCH  21  22
ENDBRANCH   9  20
TORSDOF 11
ENDMDL
MODEL 4
REMARK VINA RESULT:       2.6      2.599      5.025
REMARK  Name = *****
REMARK                            x       y       z     vdW  Elec       q    Type
REMARK                         _______ _______ _______ _____ _____    ______ ____
ROOT
ATOM      1  N   LIG    1       26.183 -16.006   3.697  0.00  0.00    -0.337 NA
ATOM      2  C   LIG    1       25.461 -14.824   3.593  0.00  0.00    +0.050 C 
ATOM      3  C   LIG    1       24.106 -15.153   3.720  0.00  0.00    +0.008 C 
ATOM      4  C   LIG    1       23.169 -14.086   3.740  0.00  0.00    +0.010 C 
ATOM      5  C   LIG    1       23.588 -12.756   3.647  0.00  0.00    +0.001 C 
ATOM      6  C   LIG    1       24.928 -12.464   3.460  0.00  0.00    +0.002 C 
ATOM      7  C   LIG    1       24.003 -16.594   3.761  0.00  0.00    +0.015 C 
ATOM      8  C   LIG    1       25.874 -13.489   3.410  0.00  0.00    +0.026 C 
ATOM      9  C   LIG    1       25.309 -17.088   3.772  0.00  0.00    +0.051 C 
ENDROOT
BRANCH   7  10
ATOM     10  C   LIG    1       22.787 -17.431   3.789  0.00  0.00    -0.015 C 
ATOM     11  C   LIG    1       21.574 -17.000   3.219  0.00  0.00    +0.011 C 
ATOM     12  C   LIG    1       20.431 -17.808   3.245  0.00  0.00    +0.039 C 
ATOM     13  C   LIG    1       20.474 -19.038   3.882  0.00  0.00    +0.123 C 
ATOM     14  F   LIG    1       19.380 -19.812   3.911  0.00  0.00    -0.205 F 
ATOM     15  C   LIG    1       21.641 -19.479   4.485  0.00  0.00    +0.039 C 
ATOM     16  C   LIG    1       22.794 -18.688   4.418  0.00  0.00    +0.011 C 
ENDBRANCH   7  10
BRANCH   1  18
ATOM     17  C   LIG    1       28.287 -14.777   4.185  0.00  0.00    +0.030 C 
ATOM     18  C   LIG    1       27.652 -16.097   3.751  0.00  0.00    +0.082 C 
ATOM     19  C   LIG    1       28.184 -17.287   4.558  0.00  0.00    +0.030 C 
ENDBRANCH   1  18
BRANCH   9  20
ATOM     20  C   LIG    1       25.845 -18.409   3.812  0.00  0.00    +0.025 C 
ATOM     21  C   LIG    1       25.187 -19.403   4.435  0.00  0.00    +0.006 C 
BRANCH  21  22
ATOM     22  C   LIG    1       25.690 -20.820   4.520  0.00  0.00    +0.140 C 
BRANCH  22  23
ATOM     23  O   LIG    1       25.106 -21.571   3.457  0.00  0.00    -0.388 OA
ATOM     24  H   LIG    1       24.145 -21.599   3.619  0.00  0.00    +0.210 HD
ENDBRANCH  22  23
BRANCH  22  25
ATOM     25  C   LIG    1       25.364 -21.492   5.865  0.00  0.00    +0.067 C 
BRANCH  25  26
ATOM     26  C   LIG    1       26.260 -21.010   7.025  0.00  0.00    +0.128 C 
BRANCH  26  27
ATOM     27  O   LIG    1       26.400 -19.588   7.018  0.00  0.00    -0.391 OA
ATOM     28  H   LIG    1       26.868 -19.340   6.186  0.00  0.00    +0.210 HD
ENDBRANCH  26  27
BRANCH  26  29
ATOM     29  C   LIG    1       27.680 -21.572   6.961  0.00  0.00    +0.151 C 
BRANCH  29  30
ATOM     30  C   LIG    1       28.666 -20.576   6.395  0.00  0.00    +0.307 C 
ATOM     31  O   LIG    1       29.408 -19.905   7.059  0.00  0.00    -0.251 OA
BRANCH  30  32
ATOM     32  O   LIG    1       28.606 -20.477   5.051  0.00  0.00    -0.481 OA
ATOM     33  H   LIG    1       28.984 -19.637   4.679  0.00  0.00    +0.295 HD
ENDBRANCH  30  32
ENDBRANCH  29  30
ENDBRANCH  26  29
ENDBRANCH  25  26
ENDBRANCH  22  25
ENDBRANCH  21  22
ENDBRANCH   9  20
TORSDOF 11
ENDMDL
