MODEL 1
REMARK VINA RESULT:      -5.7      0.000      0.000
REMARK  Name = *****
REMARK                            x       y       z     vdW  Elec       q    Type
REMARK                         _______ _______ _______ _____ _____    ______ ____
ROOT
ATOM      1  C   LIG    1       23.995 -23.095   6.186  0.00  0.00    +0.000 C 
ATOM      2  C   LIG    1       24.658 -24.235   5.912  0.00  0.00    +0.000 C 
ENDROOT
BRANCH   1   5
ATOM      3  C   LIG    1       22.040 -21.124   4.984  0.00  0.00    +0.044 C 
ATOM      4  C   LIG    1       23.536 -20.941   5.041  0.00  0.00    -0.050 C 
ATOM      5  C   LIG    1       24.378 -21.834   5.606  0.00  0.00    +0.003 C 
BRANCH   4   6
ATOM      6  C   LIG    1       24.098 -19.711   4.515  0.00  0.00    +0.003 C 
ATOM      7  C   LIG    1       25.361 -19.561   4.084  0.00  0.00    +0.001 C 
BRANCH   7   8
ATOM      8  C   LIG    1       25.855 -18.340   3.502  0.00  0.00    +0.003 C 
ATOM      9  C   LIG    1       26.965 -17.661   3.871  0.00  0.00    -0.050 C 
ATOM     10  C   LIG    1       27.294 -16.385   3.146  0.00  0.00    +0.044 C 
BRANCH   9  11
ATOM     11  C   LIG    1       27.857 -18.082   4.958  0.00  0.00    +0.003 C 
ATOM     12  C   LIG    1       27.892 -19.308   5.518  0.00  0.00    +0.004 C 
BRANCH  12  13
ATOM     13  C   LIG    1       28.778 -19.732   6.605  0.00  0.00    -0.043 C 
ATOM     14  C   LIG    1       28.215 -20.790   7.604  0.00  0.00    -0.008 C 
ATOM     15  C   LIG    1       27.399 -20.020   8.673  0.00  0.00    +0.016 C 
ATOM     16  C   LIG    1       27.272 -21.836   6.960  0.00  0.00    +0.016 C 
ATOM     17  C   LIG    1       29.313 -21.615   8.355  0.00  0.00    +0.042 C 
ATOM     18  C   LIG    1       30.751 -21.237   8.036  0.00  0.00    +0.119 C 
ATOM     19  C   LIG    1       30.906 -19.735   7.881  0.00  0.00    +0.062 C 
ATOM     20  C   LIG    1       30.032 -19.237   6.757  0.00  0.00    -0.067 C 
ATOM     21  C   LIG    1       30.724 -18.227   5.876  0.00  0.00    +0.039 C 
BRANCH  18  22
ATOM     22  O   LIG    1       31.613 -21.726   9.062  0.00  0.00    -0.391 OA
ATOM     23  H   LIG    1       31.704 -21.027   9.733  0.00  0.00    +0.210 HD
ENDBRANCH  18  22
ENDBRANCH  12  13
ENDBRANCH   9  11
ENDBRANCH   7   8
ENDBRANCH   4   6
ENDBRANCH   1   5
BRANCH   2  24
ATOM     24  C   LIG    1       24.292 -25.488   6.505  0.00  0.00    +0.003 C 
ATOM     25  C   LIG    1       24.617 -26.713   6.038  0.00  0.00    -0.050 C 
ATOM     26  C   LIG    1       25.542 -27.003   4.888  0.00  0.00    +0.044 C 
BRANCH  25  27
ATOM     27  C   LIG    1       24.123 -27.899   6.711  0.00  0.00    +0.003 C 
ATOM     28  C   LIG    1       24.839 -28.594   7.615  0.00  0.00    +0.001 C 
BRANCH  28  29
ATOM     29  C   LIG    1       24.311 -29.757   8.260  0.00  0.00    +0.003 C 
ATOM     30  C   LIG    1       24.617 -30.196   9.500  0.00  0.00    -0.051 C 
ATOM     31  C   LIG    1       25.618 -29.558  10.435  0.00  0.00    +0.044 C 
BRANCH  30  32
ATOM     32  C   LIG    1       23.910 -31.376   9.962  0.00  0.00    -0.001 C 
ATOM     33  C   LIG    1       22.905 -31.377  10.848  0.00  0.00    -0.018 C 
BRANCH  33  34
ATOM     34  C   LIG    1       22.198 -32.632  11.288  0.00  0.00    +0.043 C 
ATOM     35  C   LIG    1       20.648 -32.434  11.414  0.00  0.00    -0.022 C 
ATOM     36  C   LIG    1       20.054 -31.684  10.196  0.00  0.00    +0.012 C 
ATOM     37  C   LIG    1       19.974 -33.824  11.443  0.00  0.00    +0.012 C 
ATOM     38  C   LIG    1       20.308 -31.623  12.692  0.00  0.00    +0.043 C 
ATOM     39  C   LIG    1       20.976 -32.131  13.977  0.00  0.00    +0.138 C 
ATOM     40  C   LIG    1       22.270 -32.858  13.784  0.00  0.00    +0.003 C 
ATOM     41  C   LIG    1       22.838 -33.100  12.589  0.00  0.00    -0.067 C 
ATOM     42  C   LIG    1       24.152 -33.823  12.471  0.00  0.00    +0.039 C 
BRANCH  39  43
ATOM     43  O   LIG    1       20.085 -32.999  14.667  0.00  0.00    -0.388 OA
ATOM     44  H   LIG    1       20.364 -33.026  15.596  0.00  0.00    +0.210 HD
ENDBRANCH  39  43
ENDBRANCH  33  34
ENDBRANCH  30  32
ENDBRANCH  28  29
ENDBRANCH  25  27
ENDBRANCH   2  24
TORSDOF 12
ENDMDL
MODEL 2
REMARK VINA RESULT:      -4.4      2.560      4.920
REMARK  Name = *****
REMARK                            x       y       z     vdW  Elec       q    Type
REMARK                         _______ _______ _______ _____ _____    ______ ____
ROOT
ATOM      1  C   LIG    1       27.030 -22.324   7.279  0.00  0.00    +0.000 C 
ATOM      2  C   LIG    1       26.093 -23.132   6.749  0.00  0.00    +0.000 C 
ENDROOT
BRANCH   1   5
ATOM      3  C   LIG    1       29.692 -20.891   7.358  0.00  0.00    +0.044 C 
ATOM      4  C   LIG    1       28.403 -20.304   6.840  0.00  0.00    -0.050 C 
ATOM      5  C   LIG    1       27.236 -20.982   6.800  0.00  0.00    +0.003 C 
BRANCH   4   6
ATOM      6  C   LIG    1       28.431 -18.958   6.299  0.00  0.00    +0.003 C 
ATOM      7  C   LIG    1       28.294 -18.644   5.000  0.00  0.00    +0.001 C 
BRANCH   7   8
ATOM      8  C   LIG    1       28.256 -17.289   4.516  0.00  0.00    +0.003 C 
ATOM      9  C   LIG    1       27.227 -16.690   3.875  0.00  0.00    -0.050 C 
ATOM     10  C   LIG    1       27.400 -15.264   3.428  0.00  0.00    +0.044 C 
BRANCH   9  11
ATOM     11  C   LIG    1       25.957 -17.357   3.565  0.00  0.00    +0.003 C 
ATOM     12  C   LIG    1       25.227 -18.099   4.423  0.00  0.00    +0.004 C 
BRANCH  12  13
ATOM     13  C   LIG    1       23.962 -18.770   4.117  0.00  0.00    -0.043 C 
ATOM     14  C   LIG    1       24.039 -20.275   3.712  0.00  0.00    -0.008 C 
ATOM     15  C   LIG    1       24.342 -20.325   2.193  0.00  0.00    +0.016 C 
ATOM     16  C   LIG    1       25.150 -21.074   4.437  0.00  0.00    +0.016 C 
ATOM     17  C   LIG    1       22.715 -21.076   3.954  0.00  0.00    +0.042 C 
ATOM     18  C   LIG    1       21.550 -20.267   4.500  0.00  0.00    +0.119 C 
ATOM     19  C   LIG    1       21.495 -18.884   3.875  0.00  0.00    +0.062 C 
ATOM     20  C   LIG    1       22.766 -18.130   4.174  0.00  0.00    -0.067 C 
ATOM     21  C   LIG    1       22.522 -16.692   4.558  0.00  0.00    +0.039 C 
BRANCH  18  22
ATOM     22  O   LIG    1       20.330 -20.969   4.267  0.00  0.00    -0.391 OA
ATOM     23  H   LIG    1       20.409 -21.431   3.415  0.00  0.00    +0.210 HD
ENDBRANCH  18  22
ENDBRANCH  12  13
ENDBRANCH   9  11
ENDBRANCH   7   8
ENDBRANCH   4   6
ENDBRANCH   1   5
BRANCH   2  24
ATOM     24  C   LIG    1       25.900 -24.476   7.209  0.00  0.00    +0.003 C 
ATOM     25  C   LIG    1       25.517 -25.528   6.453  0.00  0.00    -0.050 C 
ATOM     26  C   LIG    1       25.354 -25.529   4.957  0.00  0.00    +0.044 C 
BRANCH  25  27
ATOM     27  C   LIG    1       25.302 -26.823   7.070  0.00  0.00    +0.003 C 
ATOM     28  C   LIG    1       24.581 -27.807   6.501  0.00  0.00    +0.001 C 
BRANCH  28  29
ATOM     29  C   LIG    1       24.397 -29.074   7.141  0.00  0.00    +0.003 C 
ATOM     30  C   LIG    1       24.815 -30.274   6.683  0.00  0.00    -0.051 C 
ATOM     31  C   LIG    1       25.525 -30.514   5.371  0.00  0.00    +0.044 C 
BRANCH  30  32
ATOM     32  C   LIG    1       24.559 -31.419   7.537  0.00  0.00    -0.001 C 
ATOM     33  C   LIG    1       24.134 -31.355   8.807  0.00  0.00    -0.018 C 
BRANCH  33  34
ATOM     34  C   LIG    1       23.875 -32.576   9.649  0.00  0.00    +0.043 C 
ATOM     35  C   LIG    1       22.763 -32.336  10.726  0.00  0.00    -0.022 C 
ATOM     36  C   LIG    1       21.525 -31.614  10.138  0.00  0.00    +0.012 C 
ATOM     37  C   LIG    1       22.265 -33.707  11.237  0.00  0.00    +0.012 C 
ATOM     38  C   LIG    1       23.315 -31.473  11.891  0.00  0.00    +0.043 C 
ATOM     39  C   LIG    1       24.651 -31.954  12.475  0.00  0.00    +0.138 C 
ATOM     40  C   LIG    1       25.525 -32.720  11.531  0.00  0.00    +0.003 C 
ATOM     41  C   LIG    1       25.199 -33.016  10.260  0.00  0.00    -0.067 C 
ATOM     42  C   LIG    1       26.137 -33.775   9.361  0.00  0.00    +0.039 C 
BRANCH  39  43
ATOM     43  O   LIG    1       24.408 -32.776  13.610  0.00  0.00    -0.388 OA
ATOM     44  H   LIG    1       23.763 -32.317  14.170  0.00  0.00    +0.210 HD
ENDBRANCH  39  43
ENDBRANCH  33  34
ENDBRANCH  30  32
ENDBRANCH  28  29
ENDBRANCH  25  27
ENDBRANCH   2  24
TORSDOF 12
ENDMDL
MODEL 3
REMARK VINA RESULT:      -4.2      3.533     13.826
REMARK  Name = *****
REMARK                            x       y       z     vdW  Elec       q    Type
REMARK                         _______ _______ _______ _____ _____    ______ ____
ROOT
ATOM      1  C   LIG    1       25.071 -26.622   6.500  0.00  0.00    +0.000 C 
ATOM      2  C   LIG    1       25.449 -25.548   7.220  0.00  0.00    +0.000 C 
ENDROOT
BRANCH   1   5
ATOM      3  C   LIG    1       25.172 -29.210   4.939  0.00  0.00    +0.044 C 
ATOM      4  C   LIG    1       24.949 -29.099   6.427  0.00  0.00    -0.050 C 
ATOM      5  C   LIG    1       24.931 -27.925   7.094  0.00  0.00    +0.003 C 
BRANCH   4   6
ATOM      6  C   LIG    1       24.805 -30.324   7.192  0.00  0.00    +0.003 C 
ATOM      7  C   LIG    1       23.704 -30.687   7.869  0.00  0.00    +0.001 C 
BRANCH   7   8
ATOM      8  C   LIG    1       23.581 -31.946   8.556  0.00  0.00    +0.003 C 
ATOM      9  C   LIG    1       24.017 -32.230   9.804  0.00  0.00    -0.050 C 
ATOM     10  C   LIG    1       23.810 -33.624  10.331  0.00  0.00    +0.044 C 
BRANCH   9  11
ATOM     11  C   LIG    1       24.706 -31.265  10.669  0.00  0.00    +0.003 C 
ATOM     12  C   LIG    1       24.252 -30.039  10.999  0.00  0.00    +0.004 C 
BRANCH  12  13
ATOM     13  C   LIG    1       24.938 -29.071  11.858  0.00  0.00    -0.043 C 
ATOM     14  C   LIG    1       24.301 -28.789  13.254  0.00  0.00    -0.008 C 
ATOM     15  C   LIG    1       23.206 -27.713  13.048  0.00  0.00    +0.016 C 
ATOM     16  C   LIG    1       23.628 -30.022  13.908  0.00  0.00    +0.016 C 
ATOM     17  C   LIG    1       25.306 -28.239  14.322  0.00  0.00    +0.042 C 
ATOM     18  C   LIG    1       26.729 -28.022  13.832  0.00  0.00    +0.119 C 
ATOM     19  C   LIG    1       26.749 -27.470  12.418  0.00  0.00    +0.062 C 
ATOM     20  C   LIG    1       26.074 -28.435  11.475  0.00  0.00    -0.067 C 
ATOM     21  C   LIG    1       26.818 -28.605  10.175  0.00  0.00    +0.039 C 
BRANCH  18  22
ATOM     22  O   LIG    1       27.411 -27.140  14.723  0.00  0.00    -0.391 OA
ATOM     23  H   LIG    1       27.838 -26.449  14.189  0.00  0.00    +0.210 HD
ENDBRANCH  18  22
ENDBRANCH  12  13
ENDBRANCH   9  11
ENDBRANCH   7   8
ENDBRANCH   4   6
ENDBRANCH   1   5
BRANCH   2  24
ATOM     24  C   LIG    1       25.610 -24.253   6.626  0.00  0.00    +0.003 C 
ATOM     25  C   LIG    1       24.618 -23.384   6.334  0.00  0.00    -0.050 C 
ATOM     26  C   LIG    1       23.168 -23.542   6.701  0.00  0.00    +0.044 C 
BRANCH  25  27
ATOM     27  C   LIG    1       24.925 -22.129   5.675  0.00  0.00    +0.003 C 
ATOM     28  C   LIG    1       23.995 -21.340   5.106  0.00  0.00    +0.001 C 
BRANCH  28  29
ATOM     29  C   LIG    1       24.340 -20.105   4.471  0.00  0.00    +0.003 C 
ATOM     30  C   LIG    1       23.542 -19.025   4.327  0.00  0.00    -0.051 C 
ATOM     31  C   LIG    1       22.103 -18.932   4.777  0.00  0.00    +0.044 C 
BRANCH  30  32
ATOM     32  C   LIG    1       24.134 -17.862   3.692  0.00  0.00    -0.001 C 
ATOM     33  C   LIG    1       24.349 -16.682   4.289  0.00  0.00    -0.018 C 
BRANCH  33  34
ATOM     34  C   LIG    1       24.975 -15.507   3.585  0.00  0.00    +0.043 C 
ATOM     35  C   LIG    1       26.439 -15.804   3.110  0.00  0.00    -0.022 C 
ATOM     36  C   LIG    1       26.560 -17.184   2.417  0.00  0.00    +0.012 C 
ATOM     37  C   LIG    1       26.839 -14.749   2.055  0.00  0.00    +0.012 C 
ATOM     38  C   LIG    1       27.414 -15.785   4.317  0.00  0.00    +0.043 C 
ATOM     39  C   LIG    1       27.293 -14.553   5.226  0.00  0.00    +0.138 C 
ATOM     40  C   LIG    1       25.948 -13.898   5.243  0.00  0.00    +0.003 C 
ATOM     41  C   LIG    1       24.892 -14.303   4.514  0.00  0.00    -0.067 C 
ATOM     42  C   LIG    1       23.561 -13.606   4.597  0.00  0.00    +0.039 C 
BRANCH  39  43
ATOM     43  O   LIG    1       28.250 -13.576   4.834  0.00  0.00    -0.388 OA
ATOM     44  H   LIG    1       29.100 -13.824   5.230  0.00  0.00    +0.210 HD
ENDBRANCH  39  43
ENDBRANCH  33  34
ENDBRANCH  30  32
ENDBRANCH  28  29
ENDBRANCH  25  27
ENDBRANCH   2  24
TORSDOF 12
ENDMDL
MODEL 4
REMARK VINA RESULT:      -2.8      3.276     14.175
REMARK  Name = *****
REMARK                            x       y       z     vdW  Elec       q    Type
REMARK                         _______ _______ _______ _____ _____    ______ ____
ROOT
ATOM      1  C   LIG    1       24.744 -26.409   5.807  0.00  0.00    +0.000 C 
ATOM      2  C   LIG    1       24.028 -25.318   6.138  0.00  0.00    +0.000 C 
ENDROOT
BRANCH   1   5
ATOM      3  C   LIG    1       26.243 -27.982   7.912  0.00  0.00    +0.044 C 
ATOM      4  C   LIG    1       25.025 -28.467   7.166  0.00  0.00    -0.050 C 
ATOM      5  C   LIG    1       24.367 -27.728   6.246  0.00  0.00    +0.003 C 
BRANCH   4   6
ATOM      6  C   LIG    1       24.493 -29.777   7.497  0.00  0.00    +0.003 C 
ATOM      7  C   LIG    1       24.581 -30.364   8.701  0.00  0.00    +0.001 C 
BRANCH   7   8
ATOM      8  C   LIG    1       23.975 -31.634   9.004  0.00  0.00    +0.003 C 
ATOM      9  C   LIG    1       23.463 -32.021  10.194  0.00  0.00    -0.050 C 
ATOM     10  C   LIG    1       22.894 -33.409  10.308  0.00  0.00    +0.044 C 
BRANCH   9  11
ATOM     11  C   LIG    1       23.451 -31.174  11.393  0.00  0.00    +0.003 C 
ATOM     12  C   LIG    1       23.219 -29.846  11.417  0.00  0.00    +0.004 C 
BRANCH  12  13
ATOM     13  C   LIG    1       23.210 -28.997  12.610  0.00  0.00    -0.043 C 
ATOM     14  C   LIG    1       24.595 -28.521  13.150  0.00  0.00    -0.008 C 
ATOM     15  C   LIG    1       25.146 -29.652  14.055  0.00  0.00    +0.016 C 
ATOM     16  C   LIG    1       25.649 -28.249  12.048  0.00  0.00    +0.016 C 
ATOM     17  C   LIG    1       24.537 -27.216  14.013  0.00  0.00    +0.042 C 
ATOM     18  C   LIG    1       23.149 -26.635  14.231  0.00  0.00    +0.119 C 
ATOM     19  C   LIG    1       22.118 -27.730  14.444  0.00  0.00    +0.062 C 
ATOM     20  C   LIG    1       22.062 -28.631  13.235  0.00  0.00    -0.067 C 
ATOM     21  C   LIG    1       20.654 -28.992  12.835  0.00  0.00    +0.039 C 
BRANCH  18  22
ATOM     22  O   LIG    1       23.172 -25.747  15.347  0.00  0.00    -0.391 OA
ATOM     23  H   LIG    1       23.396 -26.267  16.138  0.00  0.00    +0.210 HD
ENDBRANCH  18  22
ENDBRANCH  12  13
ENDBRANCH   9  11
ENDBRANCH   7   8
ENDBRANCH   4   6
ENDBRANCH   1   5
BRANCH   2  24
ATOM     24  C   LIG    1       24.413 -24.001   5.720  0.00  0.00    +0.003 C 
ATOM     25  C   LIG    1       25.059 -23.085   6.474  0.00  0.00    -0.050 C 
ATOM     26  C   LIG    1       25.627 -23.314   7.848  0.00  0.00    +0.044 C 
BRANCH  25  27
ATOM     27  C   LIG    1       25.330 -21.766   5.936  0.00  0.00    +0.003 C 
ATOM     28  C   LIG    1       24.834 -21.323   4.766  0.00  0.00    +0.001 C 
BRANCH  28  29
ATOM     29  C   LIG    1       25.122 -20.010   4.274  0.00  0.00    +0.003 C 
ATOM     30  C   LIG    1       24.233 -19.012   4.081  0.00  0.00    -0.051 C 
ATOM     31  C   LIG    1       22.743 -19.107   4.310  0.00  0.00    +0.044 C 
BRANCH  30  32
ATOM     32  C   LIG    1       24.772 -17.745   3.622  0.00  0.00    -0.001 C 
ATOM     33  C   LIG    1       24.427 -16.541   4.099  0.00  0.00    -0.018 C 
BRANCH  33  34
ATOM     34  C   LIG    1       25.023 -15.254   3.593  0.00  0.00    +0.043 C 
ATOM     35  C   LIG    1       26.458 -15.454   2.995  0.00  0.00    -0.022 C 
ATOM     36  C   LIG    1       26.534 -16.682   2.053  0.00  0.00    +0.012 C 
ATOM     37  C   LIG    1       26.810 -14.221   2.133  0.00  0.00    +0.012 C 
ATOM     38  C   LIG    1       27.495 -15.655   4.132  0.00  0.00    +0.043 C 
ATOM     39  C   LIG    1       27.430 -14.612   5.257  0.00  0.00    +0.138 C 
ATOM     40  C   LIG    1       26.091 -13.976   5.466  0.00  0.00    +0.003 C 
ATOM     41  C   LIG    1       24.997 -14.243   4.731  0.00  0.00    -0.067 C 
ATOM     42  C   LIG    1       23.676 -13.577   5.011  0.00  0.00    +0.039 C 
BRANCH  39  43
ATOM     43  O   LIG    1       28.371 -13.576   5.003  0.00  0.00    -0.388 OA
ATOM     44  H   LIG    1       28.448 -13.482   4.041  0.00  0.00    +0.210 HD
ENDBRANCH  39  43
ENDBRANCH  33  34
ENDBRANCH  30  32
ENDBRANCH  28  29
ENDBRANCH  25  27
ENDBRANCH   2  24
TORSDOF 12
ENDMDL
MODEL 5
REMARK VINA RESULT:      -2.7      2.974      5.577
REMARK  Name = *****
REMARK                            x       y       z     vdW  Elec       q    Type
REMARK                         _______ _______ _______ _____ _____    ______ ____
ROOT
ATOM      1  C   LIG    1       27.290 -21.305   6.601  0.00  0.00    +0.000 C 
ATOM      2  C   LIG    1       26.129 -21.967   6.433  0.00  0.00    +0.000 C 
ENDROOT
BRANCH   1   5
ATOM      3  C   LIG    1       29.955 -19.878   6.652  0.00  0.00    +0.044 C 
ATOM      4  C   LIG    1       28.690 -19.337   6.033  0.00  0.00    -0.050 C 
ATOM      5  C   LIG    1       27.521 -20.013   6.010  0.00  0.00    +0.003 C 
BRANCH   4   6
ATOM      6  C   LIG    1       28.746 -18.046   5.373  0.00  0.00    +0.003 C 
ATOM      7  C   LIG    1       27.862 -17.605   4.463  0.00  0.00    +0.001 C 
BRANCH   7   8
ATOM      8  C   LIG    1       27.917 -16.287   3.887  0.00  0.00    +0.003 C 
ATOM      9  C   LIG    1       26.869 -15.558   3.438  0.00  0.00    -0.050 C 
ATOM     10  C   LIG    1       27.146 -14.204   2.845  0.00  0.00    +0.044 C 
BRANCH   9  11
ATOM     11  C   LIG    1       25.477 -16.022   3.471  0.00  0.00    +0.003 C 
ATOM     12  C   LIG    1       25.026 -17.116   4.117  0.00  0.00    +0.004 C 
BRANCH  12  13
ATOM     13  C   LIG    1       23.639 -17.585   4.149  0.00  0.00    -0.043 C 
ATOM     14  C   LIG    1       22.532 -16.505   4.356  0.00  0.00    -0.008 C 
ATOM     15  C   LIG    1       22.406 -16.267   5.883  0.00  0.00    +0.016 C 
ATOM     16  C   LIG    1       22.843 -15.139   3.695  0.00  0.00    +0.016 C 
ATOM     17  C   LIG    1       21.119 -16.920   3.827  0.00  0.00    +0.042 C 
ATOM     18  C   LIG    1       21.025 -18.317   3.235  0.00  0.00    +0.119 C 
ATOM     19  C   LIG    1       21.860 -19.310   4.024  0.00  0.00    +0.062 C 
ATOM     20  C   LIG    1       23.309 -18.894   4.010  0.00  0.00    -0.067 C 
ATOM     21  C   LIG    1       24.251 -20.051   3.791  0.00  0.00    +0.039 C 
BRANCH  18  22
ATOM     22  O   LIG    1       19.660 -18.729   3.198  0.00  0.00    -0.391 OA
ATOM     23  H   LIG    1       19.536 -19.413   3.878  0.00  0.00    +0.210 HD
ENDBRANCH  18  22
ENDBRANCH  12  13
ENDBRANCH   9  11
ENDBRANCH   7   8
ENDBRANCH   4   6
ENDBRANCH   1   5
BRANCH   2  24
ATOM     24  C   LIG    1       25.904 -23.263   7.002  0.00  0.00    +0.003 C 
ATOM     25  C   LIG    1       25.365 -24.327   6.368  0.00  0.00    -0.050 C 
ATOM     26  C   LIG    1       25.026 -24.405   4.904  0.00  0.00    +0.044 C 
BRANCH  25  27
ATOM     27  C   LIG    1       25.139 -25.564   7.091  0.00  0.00    +0.003 C 
ATOM     28  C   LIG    1       25.770 -26.718   6.807  0.00  0.00    +0.001 C 
BRANCH  28  29
ATOM     29  C   LIG    1       25.522 -27.916   7.550  0.00  0.00    +0.003 C 
ATOM     30  C   LIG    1       24.809 -28.984   7.136  0.00  0.00    -0.051 C 
ATOM     31  C   LIG    1       24.090 -29.101   5.812  0.00  0.00    +0.044 C 
BRANCH  30  32
ATOM     32  C   LIG    1       24.740 -30.111   8.049  0.00  0.00    -0.001 C 
ATOM     33  C   LIG    1       23.612 -30.625   8.558  0.00  0.00    -0.018 C 
BRANCH  33  34
ATOM     34  C   LIG    1       23.596 -31.803   9.496  0.00  0.00    +0.043 C 
ATOM     35  C   LIG    1       23.156 -31.407  10.947  0.00  0.00    -0.022 C 
ATOM     36  C   LIG    1       21.907 -30.489  10.950  0.00  0.00    +0.012 C 
ATOM     37  C   LIG    1       22.756 -32.690  11.710  0.00  0.00    +0.012 C 
ATOM     38  C   LIG    1       24.304 -30.659  11.676  0.00  0.00    +0.043 C 
ATOM     39  C   LIG    1       25.672 -31.353  11.610  0.00  0.00    +0.138 C 
ATOM     40  C   LIG    1       25.888 -32.232  10.418  0.00  0.00    +0.003 C 
ATOM     41  C   LIG    1       24.972 -32.454   9.457  0.00  0.00    -0.067 C 
ATOM     42  C   LIG    1       25.266 -33.338   8.275  0.00  0.00    +0.039 C 
BRANCH  39  43
ATOM     43  O   LIG    1       25.863 -32.144  12.776  0.00  0.00    -0.388 OA
ATOM     44  H   LIG    1       26.776 -32.006  13.076  0.00  0.00    +0.210 HD
ENDBRANCH  39  43
ENDBRANCH  33  34
ENDBRANCH  30  32
ENDBRANCH  28  29
ENDBRANCH  25  27
ENDBRANCH   2  24
TORSDOF 12
ENDMDL
