MODEL 1
REMARK VINA RESULT:      -3.9      0.000      0.000
REMARK  Name = *****
REMARK                            x       y       z     vdW  Elec       q    Type
REMARK                         _______ _______ _______ _____ _____    ______ ____
ROOT
ATOM      1  S   LIG    1       22.262 -18.289   4.475  0.00  0.00    +0.095 S 
ATOM      2  O   LIG    1       20.982 -18.118   3.701  0.00  0.00    -0.249 OA
ENDROOT
BRANCH   1   8
ATOM      3  C   LIG    1       26.117 -13.462   3.584  0.00  0.00    +0.122 A 
ATOM      4  C   LIG    1       26.020 -14.844   3.392  0.00  0.00    +0.073 A 
ATOM      5  C   LIG    1       24.813 -15.448   3.750  0.00  0.00    +0.070 A 
ATOM      6  C   LIG    1       23.736 -14.754   4.288  0.00  0.00    +0.090 A 
ATOM      7  N   LIG    1       22.693 -15.601   4.570  0.00  0.00    -0.220 NA
ATOM      8  C   LIG    1       23.127 -16.801   4.224  0.00  0.00    +0.198 A 
ATOM      9  C   LIG    1       23.850 -13.369   4.486  0.00  0.00    +0.033 A 
ATOM     10  N   LIG    1       24.384 -16.746   3.700  0.00  0.00    -0.331 N 
ATOM     11  H   LIG    1       24.913 -17.559   3.396  0.00  0.00    +0.168 HD
ATOM     12  C   LIG    1       25.055 -12.738   4.141  0.00  0.00    +0.048 A 
BRANCH   3  14
ATOM     13  C   LIG    1       28.468 -13.302   3.699  0.00  0.00    +0.277 C 
ATOM     14  O   LIG    1       27.234 -12.722   3.285  0.00  0.00    -0.495 OA
ENDBRANCH   3  14
ENDBRANCH   1   8
BRANCH   1  15
ATOM     15  C   LIG    1       23.417 -19.316   3.524  0.00  0.00    +0.167 C 
BRANCH  15  16
ATOM     16  C   LIG    1       24.559 -19.854   4.346  0.00  0.00    +0.060 A 
ATOM     17  C   LIG    1       25.892 -19.434   4.217  0.00  0.00    +0.014 A 
ATOM     18  C   LIG    1       26.353 -18.492   3.135  0.00  0.00    +0.049 C 
ATOM     19  C   LIG    1       26.853 -19.950   5.125  0.00  0.00    +0.129 A 
ATOM     20  C   LIG    1       26.474 -20.896   6.083  0.00  0.00    +0.009 A 
ATOM     21  C   LIG    1       27.385 -21.568   7.062  0.00  0.00    +0.049 C 
ATOM     22  C   LIG    1       25.130 -21.249   6.109  0.00  0.00    +0.118 A 
ATOM     23  N   LIG    1       24.182 -20.757   5.285  0.00  0.00    -0.258 NA
BRANCH  19  24
ATOM     24  O   LIG    1       28.138 -19.522   4.892  0.00  0.00    -0.494 OA
ATOM     25  C   LIG    1       28.865 -18.927   5.957  0.00  0.00    +0.277 C 
ENDBRANCH  19  24
ENDBRANCH  15  16
ENDBRANCH   1  15
TORSDOF 5
ENDMDL
