MODEL 1
REMARK VINA RESULT:      -2.5      0.000      0.000
REMARK  Name = *****
REMARK                            x       y       z     vdW  Elec       q    Type
REMARK                         _______ _______ _______ _____ _____    ______ ____
ROOT
ATOM      1  N   LIG    1       23.304 -16.546   3.873  0.00  0.00    -0.302 NA
ATOM      2  C   LIG    1       22.566 -17.391   4.821  0.00  0.00    +0.086 C 
ATOM      3  C   LIG    1       22.575 -18.837   4.305  0.00  0.00    +0.041 C 
ATOM      4  C   LIG    1       23.981 -19.420   4.072  0.00  0.00    +0.095 C 
ATOM      5  C   LIG    1       24.871 -18.382   3.365  0.00  0.00    +0.041 C 
ATOM      6  C   LIG    1       24.724 -16.950   3.886  0.00  0.00    +0.086 C 
ENDROOT
BRANCH   4   7
ATOM      7  N   LIG    1       24.548 -20.053   5.272  0.00  0.00    -0.289 N 
ATOM      8  C   LIG    1       25.938 -20.101   5.565  0.00  0.00    +0.070 A 
ATOM      9  C   LIG    1       26.132 -21.053   6.568  0.00  0.00    +0.067 A 
ATOM     10  C   LIG    1       27.369 -21.404   7.062  0.00  0.00    +0.028 A 
ATOM     11  C   LIG    1       28.468 -20.724   6.541  0.00  0.00    +0.002 A 
ATOM     12  C   LIG    1       28.295 -19.733   5.552  0.00  0.00    +0.002 A 
ATOM     13  N   LIG    1       24.901 -21.567   6.920  0.00  0.00    -0.306 N 
ATOM     14  H   LIG    1       24.711 -22.296   7.588  0.00  0.00    +0.170 HD
ATOM     15  C   LIG    1       27.021 -19.420   5.045  0.00  0.00    +0.028 A 
ATOM     16  C   LIG    1       23.903 -20.976   6.134  0.00  0.00    +0.328 C 
ATOM     17  O   LIG    1       22.735 -21.271   6.213  0.00  0.00    -0.246 OA
ENDBRANCH   4   7
BRANCH   1  18
ATOM     18  C   LIG    1       23.183 -15.093   4.096  0.00  0.00    +0.085 C 
BRANCH  18  19
ATOM     19  C   LIG    1       23.054 -14.217   2.836  0.00  0.00    +0.023 C 
BRANCH  19  20
ATOM     20  C   LIG    1       23.477 -12.757   3.013  0.00  0.00    +0.081 C 
BRANCH  20  22
ATOM     21  O   LIG    1       25.288 -11.573   1.954  0.00  0.00    -0.292 OA
ATOM     22  C   LIG    1       24.945 -12.475   2.716  0.00  0.00    +0.163 C 
BRANCH  22  23
ATOM     23  C   LIG    1       25.995 -13.359   3.310  0.00  0.00    +0.018 A 
ATOM     24  C   LIG    1       26.287 -13.263   4.681  0.00  0.00    +0.014 A 
ATOM     25  C   LIG    1       27.226 -14.123   5.263  0.00  0.00    +0.039 A 
ATOM     26  C   LIG    1       27.861 -15.079   4.477  0.00  0.00    +0.123 A 
ATOM     27  F   LIG    1       28.735 -15.926   5.036  0.00  0.00    -0.205 F 
ATOM     28  C   LIG    1       27.590 -15.177   3.119  0.00  0.00    +0.039 A 
ATOM     29  C   LIG    1       26.659 -14.316   2.535  0.00  0.00    +0.014 A 
ENDBRANCH  22  23
ENDBRANCH  20  22
ENDBRANCH  19  20
ENDBRANCH  18  19
ENDBRANCH   1  18
TORSDOF 6
ENDMDL
MODEL 2
REMARK VINA RESULT:      -2.4      1.011      1.056
REMARK  Name = *****
REMARK                            x       y       z     vdW  Elec       q    Type
REMARK                         _______ _______ _______ _____ _____    ______ ____
ROOT
ATOM      1  N   LIG    1       23.341 -16.550   3.871  0.00  0.00    -0.302 NA
ATOM      2  C   LIG    1       22.597 -17.392   4.819  0.00  0.00    +0.086 C 
ATOM      3  C   LIG    1       22.601 -18.838   4.304  0.00  0.00    +0.041 C 
ATOM      4  C   LIG    1       24.005 -19.427   4.073  0.00  0.00    +0.095 C 
ATOM      5  C   LIG    1       24.901 -18.393   3.367  0.00  0.00    +0.041 C 
ATOM      6  C   LIG    1       24.759 -16.960   3.888  0.00  0.00    +0.086 C 
ENDROOT
BRANCH   4   7
ATOM      7  N   LIG    1       24.568 -20.062   5.274  0.00  0.00    -0.289 N 
ATOM      8  C   LIG    1       25.958 -20.128   5.563  0.00  0.00    +0.070 A 
ATOM      9  C   LIG    1       26.142 -21.078   6.570  0.00  0.00    +0.067 A 
ATOM     10  C   LIG    1       27.376 -21.443   7.061  0.00  0.00    +0.028 A 
ATOM     11  C   LIG    1       28.483 -20.782   6.533  0.00  0.00    +0.002 A 
ATOM     12  C   LIG    1       28.320 -19.794   5.539  0.00  0.00    +0.002 A 
ATOM     13  N   LIG    1       24.905 -21.572   6.930  0.00  0.00    -0.306 N 
ATOM     14  H   LIG    1       24.707 -22.295   7.602  0.00  0.00    +0.170 HD
ATOM     15  C   LIG    1       27.049 -19.465   5.035  0.00  0.00    +0.028 A 
ATOM     16  C   LIG    1       23.913 -20.971   6.144  0.00  0.00    +0.328 C 
ATOM     17  O   LIG    1       22.741 -21.249   6.229  0.00  0.00    -0.246 OA
ENDBRANCH   4   7
BRANCH   1  18
ATOM     18  C   LIG    1       23.225 -15.097   4.094  0.00  0.00    +0.085 C 
BRANCH  18  19
ATOM     19  C   LIG    1       23.105 -14.221   2.833  0.00  0.00    +0.023 C 
BRANCH  19  20
ATOM     20  C   LIG    1       23.205 -12.713   3.077  0.00  0.00    +0.081 C 
BRANCH  20  22
ATOM     21  O   LIG    1       23.814 -11.581   5.114  0.00  0.00    -0.292 OA
ATOM     22  C   LIG    1       24.167 -12.306   4.186  0.00  0.00    +0.163 C 
BRANCH  22  23
ATOM     23  C   LIG    1       25.596 -12.741   4.112  0.00  0.00    +0.018 A 
ATOM     24  C   LIG    1       26.224 -13.257   5.259  0.00  0.00    +0.014 A 
ATOM     25  C   LIG    1       27.543 -13.721   5.191  0.00  0.00    +0.039 A 
ATOM     26  C   LIG    1       28.224 -13.677   3.979  0.00  0.00    +0.123 A 
ATOM     27  F   LIG    1       29.475 -14.151   3.902  0.00  0.00    -0.205 F 
ATOM     28  C   LIG    1       27.621 -13.159   2.841  0.00  0.00    +0.039 A 
ATOM     29  C   LIG    1       26.307 -12.690   2.908  0.00  0.00    +0.014 A 
ENDBRANCH  22  23
ENDBRANCH  20  22
ENDBRANCH  19  20
ENDBRANCH  18  19
ENDBRANCH   1  18
TORSDOF 6
ENDMDL
MODEL 3
REMARK VINA RESULT:      -1.4      2.329      3.744
REMARK  Name = *****
REMARK                            x       y       z     vdW  Elec       q    Type
REMARK                         _______ _______ _______ _____ _____    ______ ____
ROOT
ATOM      1  N   LIG    1       22.945 -20.166   4.431  0.00  0.00    -0.302 NA
ATOM      2  C   LIG    1       23.440 -20.169   5.814  0.00  0.00    +0.086 C 
ATOM      3  C   LIG    1       24.533 -21.238   5.946  0.00  0.00    +0.041 C 
ATOM      4  C   LIG    1       25.712 -21.067   4.970  0.00  0.00    +0.095 C 
ATOM      5  C   LIG    1       25.187 -20.722   3.565  0.00  0.00    +0.041 C 
ATOM      6  C   LIG    1       24.033 -19.716   3.540  0.00  0.00    +0.086 C 
ENDROOT
BRANCH   4   7
ATOM      7  N   LIG    1       26.775 -20.198   5.498  0.00  0.00    -0.289 N 
ATOM      8  C   LIG    1       27.126 -18.940   4.938  0.00  0.00    +0.070 A 
ATOM      9  C   LIG    1       28.367 -18.570   5.461  0.00  0.00    +0.067 A 
ATOM     10  C   LIG    1       29.042 -17.426   5.094  0.00  0.00    +0.028 A 
ATOM     11  C   LIG    1       28.408 -16.591   4.177  0.00  0.00    +0.002 A 
ATOM     12  C   LIG    1       27.139 -16.925   3.660  0.00  0.00    +0.002 A 
ATOM     13  N   LIG    1       28.771 -19.546   6.348  0.00  0.00    -0.306 N 
ATOM     14  H   LIG    1       29.638 -19.587   6.859  0.00  0.00    +0.170 HD
ATOM     15  C   LIG    1       26.488 -18.116   4.031  0.00  0.00    +0.028 A 
ATOM     16  C   LIG    1       27.815 -20.569   6.388  0.00  0.00    +0.328 C 
ATOM     17  O   LIG    1       27.937 -21.565   7.059  0.00  0.00    -0.246 OA
ENDBRANCH   4   7
BRANCH   1  18
ATOM     18  C   LIG    1       21.728 -19.366   4.198  0.00  0.00    +0.085 C 
BRANCH  18  19
ATOM     19  C   LIG    1       21.747 -17.923   4.735  0.00  0.00    +0.023 C 
BRANCH  19  20
ATOM     20  C   LIG    1       22.705 -16.973   4.014  0.00  0.00    +0.081 C 
BRANCH  20  22
ATOM     21  O   LIG    1       22.485 -15.421   5.843  0.00  0.00    -0.292 OA
ATOM     22  C   LIG    1       23.002 -15.676   4.758  0.00  0.00    +0.163 C 
BRANCH  22  23
ATOM     23  C   LIG    1       23.891 -14.654   4.122  0.00  0.00    +0.018 A 
ATOM     24  C   LIG    1       25.108 -14.315   4.739  0.00  0.00    +0.014 A 
ATOM     25  C   LIG    1       25.976 -13.403   4.128  0.00  0.00    +0.039 A 
ATOM     26  C   LIG    1       25.632 -12.843   2.902  0.00  0.00    +0.123 A 
ATOM     27  F   LIG    1       26.475 -11.997   2.297  0.00  0.00    -0.205 F 
ATOM     28  C   LIG    1       24.429 -13.161   2.287  0.00  0.00    +0.039 A 
ATOM     29  C   LIG    1       23.557 -14.065   2.898  0.00  0.00    +0.014 A 
ENDBRANCH  22  23
ENDBRANCH  20  22
ENDBRANCH  19  20
ENDBRANCH  18  19
ENDBRANCH   1  18
TORSDOF 6
ENDMDL
MODEL 4
REMARK VINA RESULT:      -0.9      2.215      3.946
REMARK  Name = *****
REMARK                            x       y       z     vdW  Elec       q    Type
REMARK                         _______ _______ _______ _____ _____    ______ ____
ROOT
ATOM      1  N   LIG    1       27.580 -16.289   4.104  0.00  0.00    -0.302 NA
ATOM      2  C   LIG    1       26.267 -16.885   3.822  0.00  0.00    +0.086 C 
ATOM      3  C   LIG    1       26.477 -18.286   3.233  0.00  0.00    +0.041 C 
ATOM      4  C   LIG    1       27.300 -19.234   4.125  0.00  0.00    +0.095 C 
ATOM      5  C   LIG    1       28.517 -18.491   4.703  0.00  0.00    +0.041 C 
ATOM      6  C   LIG    1       28.230 -17.064   5.180  0.00  0.00    +0.086 C 
ENDROOT
BRANCH   4   7
ATOM      7  N   LIG    1       26.475 -19.979   5.089  0.00  0.00    -0.289 N 
ATOM      8  C   LIG    1       25.058 -20.072   5.020  0.00  0.00    +0.070 A 
ATOM      9  C   LIG    1       24.600 -20.543   6.252  0.00  0.00    +0.067 A 
ATOM     10  C   LIG    1       23.267 -20.703   6.563  0.00  0.00    +0.028 A 
ATOM     11  C   LIG    1       22.349 -20.408   5.558  0.00  0.00    +0.002 A 
ATOM     12  C   LIG    1       22.789 -19.964   4.292  0.00  0.00    +0.002 A 
ATOM     13  N   LIG    1       25.693 -20.772   7.062  0.00  0.00    -0.306 N 
ATOM     14  H   LIG    1       25.691 -21.079   8.021  0.00  0.00    +0.170 HD
ATOM     15  C   LIG    1       24.156 -19.780   4.016  0.00  0.00    +0.028 A 
ATOM     16  C   LIG    1       26.865 -20.427   6.377  0.00  0.00    +0.328 C 
ATOM     17  O   LIG    1       27.966 -20.497   6.868  0.00  0.00    -0.246 OA
ENDBRANCH   4   7
BRANCH   1  18
ATOM     18  C   LIG    1       27.562 -14.854   4.447  0.00  0.00    +0.085 C 
BRANCH  18  19
ATOM     19  C   LIG    1       27.836 -13.873   3.293  0.00  0.00    +0.023 C 
BRANCH  19  20
ATOM     20  C   LIG    1       26.774 -13.850   2.192  0.00  0.00    +0.081 C 
BRANCH  20  22
ATOM     21  O   LIG    1       25.332 -11.926   2.038  0.00  0.00    -0.292 OA
ATOM     22  C   LIG    1       25.526 -13.040   2.522  0.00  0.00    +0.163 C 
BRANCH  22  23
ATOM     23  C   LIG    1       24.543 -13.579   3.512  0.00  0.00    +0.018 A 
ATOM     24  C   LIG    1       23.962 -14.841   3.295  0.00  0.00    +0.014 A 
ATOM     25  C   LIG    1       23.085 -15.384   4.241  0.00  0.00    +0.039 A 
ATOM     26  C   LIG    1       22.799 -14.671   5.401  0.00  0.00    +0.123 A 
ATOM     27  F   LIG    1       21.987 -15.202   6.324  0.00  0.00    -0.205 F 
ATOM     28  C   LIG    1       23.356 -13.420   5.623  0.00  0.00    +0.039 A 
ATOM     29  C   LIG    1       24.227 -12.873   4.677  0.00  0.00    +0.014 A 
ENDBRANCH  22  23
ENDBRANCH  20  22
ENDBRANCH  19  20
ENDBRANCH  18  19
ENDBRANCH   1  18
TORSDOF 6
ENDMDL
MODEL 5
REMARK VINA RESULT:      -0.1      2.840      7.264
REMARK  Name = *****
REMARK                            x       y       z     vdW  Elec       q    Type
REMARK                         _______ _______ _______ _____ _____    ______ ____
ROOT
ATOM      1  N   LIG    1       28.662 -17.051   4.444  0.00  0.00    -0.302 NA
ATOM      2  C   LIG    1       28.235 -15.837   5.154  0.00  0.00    +0.086 C 
ATOM      3  C   LIG    1       27.637 -14.855   4.137  0.00  0.00    +0.041 C 
ATOM      4  C   LIG    1       26.462 -15.422   3.320  0.00  0.00    +0.095 C 
ATOM      5  C   LIG    1       26.785 -16.854   2.856  0.00  0.00    +0.041 C 
ATOM      6  C   LIG    1       27.465 -17.732   3.910  0.00  0.00    +0.086 C 
ENDROOT
BRANCH   4   7
ATOM      7  N   LIG    1       25.159 -15.230   3.975  0.00  0.00    -0.289 N 
ATOM      8  C   LIG    1       24.192 -16.257   4.141  0.00  0.00    +0.070 A 
ATOM      9  C   LIG    1       22.978 -15.653   4.475  0.00  0.00    +0.067 A 
ATOM     10  C   LIG    1       21.802 -16.347   4.656  0.00  0.00    +0.028 A 
ATOM     11  C   LIG    1       21.865 -17.733   4.532  0.00  0.00    +0.002 A 
ATOM     12  C   LIG    1       23.087 -18.370   4.229  0.00  0.00    +0.002 A 
ATOM     13  N   LIG    1       23.179 -14.290   4.551  0.00  0.00    -0.306 N 
ATOM     14  H   LIG    1       22.490 -13.579   4.736  0.00  0.00    +0.170 HD
ATOM     15  C   LIG    1       24.266 -17.631   4.019  0.00  0.00    +0.028 A 
ATOM     16  C   LIG    1       24.513 -13.995   4.241  0.00  0.00    +0.328 C 
ATOM     17  O   LIG    1       24.951 -12.871   4.199  0.00  0.00    -0.246 OA
ENDBRANCH   4   7
BRANCH   1  18
ATOM     18  C   LIG    1       29.475 -17.993   5.237  0.00  0.00    +0.085 C 
BRANCH  18  19
ATOM     19  C   LIG    1       28.700 -19.009   6.096  0.00  0.00    +0.023 C 
BRANCH  19  20
ATOM     20  C   LIG    1       27.705 -19.883   5.330  0.00  0.00    +0.081 C 
BRANCH  20  22
ATOM     21  O   LIG    1       27.411 -21.533   7.061  0.00  0.00    -0.292 OA
ATOM     22  C   LIG    1       26.887 -20.833   6.197  0.00  0.00    +0.163 C 
BRANCH  22  23
ATOM     23  C   LIG    1       25.418 -20.971   5.947  0.00  0.00    +0.018 A 
ATOM     24  C   LIG    1       24.961 -21.271   4.653  0.00  0.00    +0.014 A 
ATOM     25  C   LIG    1       23.594 -21.460   4.415  0.00  0.00    +0.039 A 
ATOM     26  C   LIG    1       22.694 -21.358   5.470  0.00  0.00    +0.123 A 
ATOM     27  F   LIG    1       21.389 -21.572   5.255  0.00  0.00    -0.205 F 
ATOM     28  C   LIG    1       23.130 -21.052   6.752  0.00  0.00    +0.039 A 
ATOM     29  C   LIG    1       24.492 -20.856   6.990  0.00  0.00    +0.014 A 
ENDBRANCH  22  23
ENDBRANCH  20  22
ENDBRANCH  19  20
ENDBRANCH  18  19
ENDBRANCH   1  18
TORSDOF 6
ENDMDL
MODEL 6
REMARK VINA RESULT:       0.1      2.000      6.877
REMARK  Name = *****
REMARK                            x       y       z     vdW  Elec       q    Type
REMARK                         _______ _______ _______ _____ _____    ______ ____
ROOT
ATOM      1  N   LIG    1       23.206 -17.004   4.233  0.00  0.00    -0.302 NA
ATOM      2  C   LIG    1       24.640 -16.788   4.002  0.00  0.00    +0.086 C 
ATOM      3  C   LIG    1       24.810 -15.730   2.903  0.00  0.00    +0.041 C 
ATOM      4  C   LIG    1       24.122 -14.386   3.203  0.00  0.00    +0.095 C 
ATOM      5  C   LIG    1       22.714 -14.630   3.776  0.00  0.00    +0.041 C 
ATOM      6  C   LIG    1       22.626 -15.768   4.797  0.00  0.00    +0.086 C 
ENDROOT
BRANCH   4   7
ATOM      7  N   LIG    1       24.978 -13.456   3.955  0.00  0.00    -0.289 N 
ATOM      8  C   LIG    1       26.392 -13.395   3.828  0.00  0.00    +0.070 A 
ATOM      9  C   LIG    1       26.888 -12.669   4.912  0.00  0.00    +0.067 A 
ATOM     10  C   LIG    1       28.230 -12.458   5.143  0.00  0.00    +0.028 A 
ATOM     11  C   LIG    1       29.117 -12.976   4.202  0.00  0.00    +0.002 A 
ATOM     12  C   LIG    1       28.639 -13.684   3.080  0.00  0.00    +0.002 A 
ATOM     13  N   LIG    1       25.820 -12.255   5.682  0.00  0.00    -0.306 N 
ATOM     14  H   LIG    1       25.852 -11.743   6.549  0.00  0.00    +0.170 HD
ATOM     15  C   LIG    1       27.263 -13.910   2.889  0.00  0.00    +0.028 A 
ATOM     16  C   LIG    1       24.627 -12.730   5.123  0.00  0.00    +0.328 C 
ATOM     17  O   LIG    1       23.541 -12.542   5.617  0.00  0.00    -0.246 OA
ENDBRANCH   4   7
BRANCH   1  18
ATOM     18  C   LIG    1       22.871 -18.161   5.085  0.00  0.00    +0.085 C 
BRANCH  18  19
ATOM     19  C   LIG    1       22.335 -19.410   4.361  0.00  0.00    +0.023 C 
BRANCH  19  20
ATOM     20  C   LIG    1       23.262 -20.627   4.391  0.00  0.00    +0.081 C 
BRANCH  20  22
ATOM     21  O   LIG    1       23.192 -21.248   6.718  0.00  0.00    -0.292 OA
ATOM     22  C   LIG    1       23.881 -20.927   5.751  0.00  0.00    +0.163 C 
BRANCH  22  23
ATOM     23  C   LIG    1       25.356 -20.761   5.938  0.00  0.00    +0.018 A 
ATOM     24  C   LIG    1       26.021 -21.523   6.914  0.00  0.00    +0.014 A 
ATOM     25  C   LIG    1       27.409 -21.421   7.061  0.00  0.00    +0.039 A 
ATOM     26  C   LIG    1       28.127 -20.569   6.229  0.00  0.00    +0.123 A 
ATOM     27  F   LIG    1       29.459 -20.494   6.344  0.00  0.00    -0.205 F 
ATOM     28  C   LIG    1       27.482 -19.803   5.268  0.00  0.00    +0.039 A 
ATOM     29  C   LIG    1       26.096 -19.898   5.123  0.00  0.00    +0.014 A 
ENDBRANCH  22  23
ENDBRANCH  20  22
ENDBRANCH  19  20
ENDBRANCH  18  19
ENDBRANCH   1  18
TORSDOF 6
ENDMDL
MODEL 7
REMARK VINA RESULT:       0.4      2.962      7.358
REMARK  Name = *****
REMARK                            x       y       z     vdW  Elec       q    Type
REMARK                         _______ _______ _______ _____ _____    ______ ____
ROOT
ATOM      1  N   LIG    1       28.276 -17.250   4.481  0.00  0.00    -0.302 NA
ATOM      2  C   LIG    1       28.006 -15.809   4.576  0.00  0.00    +0.086 C 
ATOM      3  C   LIG    1       27.356 -15.341   3.267  0.00  0.00    +0.041 C 
ATOM      4  C   LIG    1       26.064 -16.090   2.895  0.00  0.00    +0.095 C 
ATOM      5  C   LIG    1       26.245 -17.601   3.126  0.00  0.00    +0.041 C 
ATOM      6  C   LIG    1       26.988 -17.969   4.414  0.00  0.00    +0.086 C 
ENDROOT
BRANCH   4   7
ATOM      7  N   LIG    1       24.858 -15.484   3.480  0.00  0.00    -0.289 N 
ATOM      8  C   LIG    1       24.690 -14.088   3.691  0.00  0.00    +0.070 A 
ATOM      9  C   LIG    1       23.609 -13.913   4.558  0.00  0.00    +0.067 A 
ATOM     10  C   LIG    1       23.195 -12.685   5.026  0.00  0.00    +0.028 A 
ATOM     11  C   LIG    1       23.888 -11.570   4.561  0.00  0.00    +0.002 A 
ATOM     12  C   LIG    1       24.961 -11.718   3.657  0.00  0.00    +0.002 A 
ATOM     13  N   LIG    1       23.090 -15.155   4.858  0.00  0.00    -0.306 N 
ATOM     14  H   LIG    1       22.330 -15.365   5.485  0.00  0.00    +0.170 HD
ATOM     15  C   LIG    1       25.381 -12.989   3.222  0.00  0.00    +0.028 A 
ATOM     16  C   LIG    1       23.841 -16.147   4.215  0.00  0.00    +0.328 C 
ATOM     17  O   LIG    1       23.623 -17.328   4.336  0.00  0.00    -0.246 OA
ENDBRANCH   4   7
BRANCH   1  18
ATOM     18  C   LIG    1       29.117 -17.807   5.558  0.00  0.00    +0.085 C 
BRANCH  18  19
ATOM     19  C   LIG    1       28.612 -19.104   6.217  0.00  0.00    +0.023 C 
BRANCH  19  20
ATOM     20  C   LIG    1       27.655 -19.938   5.362  0.00  0.00    +0.081 C 
BRANCH  20  22
ATOM     21  O   LIG    1       27.127 -21.563   7.060  0.00  0.00    -0.292 OA
ATOM     22  C   LIG    1       26.717 -20.845   6.151  0.00  0.00    +0.163 C 
BRANCH  22  23
ATOM     23  C   LIG    1       25.273 -20.917   5.766  0.00  0.00    +0.018 A 
ATOM     24  C   LIG    1       24.292 -20.990   6.770  0.00  0.00    +0.014 A 
ATOM     25  C   LIG    1       22.934 -21.000   6.427  0.00  0.00    +0.039 A 
ATOM     26  C   LIG    1       22.564 -20.928   5.089  0.00  0.00    +0.123 A 
ATOM     27  F   LIG    1       21.266 -20.904   4.759  0.00  0.00    -0.205 F 
ATOM     28  C   LIG    1       23.522 -20.867   4.087  0.00  0.00    +0.039 A 
ATOM     29  C   LIG    1       24.877 -20.863   4.426  0.00  0.00    +0.014 A 
ENDBRANCH  22  23
ENDBRANCH  20  22
ENDBRANCH  19  20
ENDBRANCH  18  19
ENDBRANCH   1  18
TORSDOF 6
ENDMDL
