MODEL 1
REMARK VINA RESULT:       4.2      0.000      0.000
REMARK  Name = *****
REMARK                            x       y       z     vdW  Elec       q    Type
REMARK                         _______ _______ _______ _____ _____    ______ ____
ROOT
ATOM      1  C   LIG    1       25.293 -19.939   3.707  0.00  0.00    +0.162 A 
ATOM      2  C   LIG    1       24.989 -20.688   4.869  0.00  0.00    +0.164 A 
ATOM      3  C   LIG    1       25.930 -20.780   5.908  0.00  0.00    +0.075 A 
ATOM      4  C   LIG    1       27.122 -20.063   5.836  0.00  0.00    +0.055 A 
ATOM      5  N   LIG    1       28.083 -20.090   6.861  0.00  0.00    -0.345 N 
ATOM      6  H   LIG    1       28.104 -20.919   7.445  0.00  0.00    +0.167 HD
ATOM      7  C   LIG    1       29.263 -19.442   6.609  0.00  0.00    +0.199 A 
ATOM      8  N   LIG    1       29.474 -18.537   5.705  0.00  0.00    -0.218 NA
ATOM      9  C   LIG    1       28.359 -18.146   4.997  0.00  0.00    +0.164 A 
ATOM     10  N   LIG    1       28.315 -16.871   4.710  0.00  0.00    -0.225 NA
ATOM     11  C   LIG    1       27.315 -19.181   4.765  0.00  0.00    +0.046 A 
ATOM     12  C   LIG    1       26.485 -19.212   3.650  0.00  0.00    +0.063 A 
ENDROOT
BRANCH  10  13
ATOM     13  C   LIG    1       27.254 -16.137   4.154  0.00  0.00    +0.101 A 
ATOM     14  C   LIG    1       27.418 -14.752   3.974  0.00  0.00    +0.150 A 
ATOM     15  F   LIG    1       28.563 -14.158   4.344  0.00  0.00    -0.203 F 
ATOM     16  C   LIG    1       26.413 -13.946   3.435  0.00  0.00    +0.055 A 
ATOM     17  C   LIG    1       25.216 -14.525   3.034  0.00  0.00    +0.021 A 
ATOM     18 BR   LIG    1       23.867 -13.470   2.239  0.00  0.00    -0.050 Br
ATOM     19  C   LIG    1       24.998 -15.882   3.240  0.00  0.00    +0.017 A 
ATOM     20  C   LIG    1       25.987 -16.658   3.856  0.00  0.00    +0.032 A 
ENDBRANCH  10  13
BRANCH   1  22
ATOM     21  C   LIG    1       23.814 -21.205   2.308  0.00  0.00    +0.277 C 
ATOM     22  O   LIG    1       24.357 -19.948   2.703  0.00  0.00    -0.491 OA
ENDBRANCH   1  22
BRANCH   2  23
ATOM     23  O   LIG    1       23.721 -21.217   4.953  0.00  0.00    -0.488 OA
BRANCH  23  24
ATOM     24  C   LIG    1       22.908 -20.789   6.048  0.00  0.00    +0.232 C 
BRANCH  24  25
ATOM     25  C   LIG    1       21.877 -19.753   5.564  0.00  0.00    +0.029 C 
ATOM     26  C   LIG    1       21.053 -20.317   4.397  0.00  0.00    +0.022 C 
ATOM     27  C   LIG    1       20.123 -19.261   3.792  0.00  0.00    +0.084 C 
ATOM     28  N   LIG    1       20.802 -18.023   3.400  0.00  0.00    -0.305 NA
ATOM     29  C   LIG    1       21.616 -18.185   2.198  0.00  0.00    +0.105 C 
ATOM     30  C   LIG    1       21.565 -17.461   4.522  0.00  0.00    +0.084 C 
ATOM     31  C   LIG    1       22.553 -18.437   5.161  0.00  0.00    +0.022 C 
ENDBRANCH  24  25
ENDBRANCH  23  24
ENDBRANCH   2  23
TORSDOF 5
ENDMDL
