MODEL 1
REMARK VINA RESULT:      -7.8      0.000      0.000
REMARK  Name = *****
REMARK                            x       y       z     vdW  Elec       q    Type
REMARK                         _______ _______ _______ _____ _____    ______ ____
ROOT
ATOM      1  C   LIG    1       23.276 -24.203   6.213  0.00  0.00    -0.027 C 
ATOM      2  C   LIG    1       24.527 -24.682   6.333  0.00  0.00    -0.076 C 
ATOM      3  C   LIG    1       25.603 -24.126   7.236  0.00  0.00    +0.038 C 
ENDROOT
BRANCH   2   4
ATOM      4  C   LIG    1       25.021 -25.678   5.344  0.00  0.00    +0.034 C 
BRANCH   4   5
ATOM      5  C   LIG    1       24.448 -27.064   5.582  0.00  0.00    +0.031 C 
BRANCH   5   6
ATOM      6  C   LIG    1       25.120 -27.703   6.759  0.00  0.00    -0.027 C 
ATOM      7  C   LIG    1       24.915 -28.982   7.101  0.00  0.00    -0.076 C 
ATOM      8  C   LIG    1       24.374 -29.875   6.042  0.00  0.00    +0.038 C 
BRANCH   7   9
ATOM      9  C   LIG    1       25.372 -29.558   8.422  0.00  0.00    +0.034 C 
BRANCH   9  10
ATOM     10  C   LIG    1       24.362 -30.001   9.503  0.00  0.00    +0.031 C 
BRANCH  10  11
ATOM     11  C   LIG    1       23.316 -31.107   9.310  0.00  0.00    -0.027 C 
ATOM     12  C   LIG    1       23.391 -32.452   9.140  0.00  0.00    -0.076 C 
ATOM     13  C   LIG    1       24.672 -33.200   8.997  0.00  0.00    +0.038 C 
BRANCH  12  14
ATOM     14  C   LIG    1       22.209 -33.417   9.144  0.00  0.00    +0.034 C 
BRANCH  14  15
ATOM     15  C   LIG    1       21.171 -33.447  10.277  0.00  0.00    +0.031 C 
BRANCH  15  16
ATOM     16  C   LIG    1       19.905 -32.659  10.049  0.00  0.00    -0.027 C 
ATOM     17  C   LIG    1       19.474 -31.405  10.404  0.00  0.00    -0.076 C 
ATOM     18  C   LIG    1       18.019 -31.197   9.825  0.00  0.00    +0.038 C 
BRANCH  17  19
ATOM     19  C   LIG    1       20.300 -30.412  11.535  0.00  0.00    +0.034 C 
BRANCH  19  20
ATOM     20  C   LIG    1       21.426 -30.578  12.901  0.00  0.00    +0.031 C 
BRANCH  20  21
ATOM     21  C   LIG    1       23.172 -30.288  12.877  0.00  0.00    -0.027 C 
ATOM     22  C   LIG    1       24.270 -31.157  12.882  0.00  0.00    -0.076 C 
ATOM     23  C   LIG    1       24.015 -32.587  12.925  0.00  0.00    +0.038 C 
BRANCH  22  24
ATOM     24  C   LIG    1       25.868 -31.100  13.064  0.00  0.00    +0.034 C 
BRANCH  24  25
ATOM     25  C   LIG    1       26.721 -29.887  12.396  0.00  0.00    +0.031 C 
BRANCH  25  26
ATOM     26  C   LIG    1       26.330 -28.401  12.333  0.00  0.00    -0.027 C 
ATOM     27  C   LIG    1       26.702 -27.423  13.166  0.00  0.00    -0.076 C 
ATOM     28  C   LIG    1       27.376 -27.782  14.404  0.00  0.00    +0.038 C 
BRANCH  27  29
ATOM     29  C   LIG    1       26.517 -25.945  12.936  0.00  0.00    +0.034 C 
BRANCH  29  30
ATOM     30  C   LIG    1       25.355 -25.247  13.665  0.00  0.00    +0.031 C 
BRANCH  30  31
ATOM     31  C   LIG    1       23.934 -25.730  13.536  0.00  0.00    -0.028 C 
ATOM     32  C   LIG    1       23.045 -26.628  14.008  0.00  0.00    -0.080 C 
ATOM     33  C   LIG    1       21.697 -26.813  13.394  0.00  0.00    +0.038 C 
ATOM     34  C   LIG    1       23.249 -27.567  15.073  0.00  0.00    +0.038 C 
ENDBRANCH  30  31
ENDBRANCH  29  30
ENDBRANCH  27  29
ENDBRANCH  25  26
ENDBRANCH  24  25
ENDBRANCH  22  24
ENDBRANCH  20  21
ENDBRANCH  19  20
ENDBRANCH  17  19
ENDBRANCH  15  16
ENDBRANCH  14  15
ENDBRANCH  12  14
ENDBRANCH  10  11
ENDBRANCH   9  10
ENDBRANCH   7   9
ENDBRANCH   5   6
ENDBRANCH   4   5
ENDBRANCH   2   4
BRANCH   1  35
ATOM     35  C   LIG    1       22.728 -22.995   6.907  0.00  0.00    +0.031 C 
BRANCH  35  36
ATOM     36  C   LIG    1       23.552 -21.691   6.862  0.00  0.00    +0.034 C 
BRANCH  36  38
ATOM     37  C   LIG    1       22.584 -19.661   5.722  0.00  0.00    -0.027 C 
ATOM     38  C   LIG    1       23.258 -20.818   5.665  0.00  0.00    -0.076 C 
ATOM     39  C   LIG    1       23.568 -21.360   4.345  0.00  0.00    +0.038 C 
BRANCH  37  40
ATOM     40  C   LIG    1       22.113 -18.911   4.505  0.00  0.00    +0.031 C 
BRANCH  40  41
ATOM     41  C   LIG    1       22.137 -17.366   4.641  0.00  0.00    +0.034 C 
BRANCH  41  43
ATOM     42  C   LIG    1       23.536 -15.119   4.405  0.00  0.00    -0.027 C 
ATOM     43  C   LIG    1       23.336 -16.455   4.207  0.00  0.00    -0.076 C 
ATOM     44  C   LIG    1       24.334 -17.324   3.475  0.00  0.00    +0.038 C 
BRANCH  42  45
ATOM     45  C   LIG    1       24.601 -14.135   3.804  0.00  0.00    +0.031 C 
BRANCH  45  46
ATOM     46  C   LIG    1       25.915 -14.651   3.060  0.00  0.00    +0.034 C 
BRANCH  46  48
ATOM     47  C   LIG    1       27.378 -16.557   3.942  0.00  0.00    -0.023 C 
ATOM     48  C   LIG    1       27.164 -15.219   3.795  0.00  0.00    -0.076 C 
ATOM     49  C   LIG    1       28.165 -14.214   4.262  0.00  0.00    +0.038 C 
BRANCH  47  50
ATOM     50  C   LIG    1       28.594 -17.364   4.484  0.00  0.00    +0.066 C 
BRANCH  50  56
ATOM     51  C   LIG    1       27.868 -20.367   7.614  0.00  0.00    +0.213 C 
ATOM     52  C   LIG    1       27.340 -20.589   6.246  0.00  0.00    +0.227 C 
ATOM     53  O   LIG    1       27.008 -21.778   5.842  0.00  0.00    -0.284 OA
ATOM     54  C   LIG    1       27.254 -19.449   5.296  0.00  0.00    +0.007 C 
ATOM     55  C   LIG    1       26.125 -19.418   4.290  0.00  0.00    +0.048 C 
ATOM     56  C   LIG    1       28.305 -18.579   5.365  0.00  0.00    +0.013 C 
ATOM     57  C   LIG    1       29.283 -18.918   6.399  0.00  0.00    +0.228 C 
ATOM     58  O   LIG    1       30.566 -18.743   6.147  0.00  0.00    -0.284 OA
ATOM     59  C   LIG    1       28.879 -19.441   7.689  0.00  0.00    +0.213 C 
BRANCH  59  60
ATOM     60  O   LIG    1       29.513 -19.133   8.888  0.00  0.00    -0.488 OA
ATOM     61  C   LIG    1       29.962 -17.777   9.007  0.00  0.00    +0.277 C 
ENDBRANCH  59  60
BRANCH  51  63
ATOM     62  C   LIG    1       26.083 -21.013   9.082  0.00  0.00    +0.277 C 
ATOM     63  O   LIG    1       27.471 -21.052   8.752  0.00  0.00    -0.488 OA
ENDBRANCH  51  63
ENDBRANCH  50  56
ENDBRANCH  47  50
ENDBRANCH  46  48
ENDBRANCH  45  46
ENDBRANCH  42  45
ENDBRANCH  41  43
ENDBRANCH  40  41
ENDBRANCH  37  40
ENDBRANCH  36  38
ENDBRANCH  35  36
ENDBRANCH   1  35
TORSDOF 31
ENDMDL
MODEL 2
REMARK VINA RESULT:      -7.3      1.347      4.041
REMARK  Name = *****
REMARK                            x       y       z     vdW  Elec       q    Type
REMARK                         _______ _______ _______ _____ _____    ______ ____
ROOT
ATOM      1  C   LIG    1       23.510 -24.344   6.329  0.00  0.00    -0.027 C 
ATOM      2  C   LIG    1       24.765 -24.763   6.572  0.00  0.00    -0.076 C 
ATOM      3  C   LIG    1       25.757 -24.095   7.493  0.00  0.00    +0.038 C 
ENDROOT
BRANCH   2   4
ATOM      4  C   LIG    1       25.358 -25.817   5.705  0.00  0.00    +0.034 C 
BRANCH   4   5
ATOM      5  C   LIG    1       24.404 -26.974   5.464  0.00  0.00    +0.031 C 
BRANCH   5   6
ATOM      6  C   LIG    1       24.449 -27.926   6.621  0.00  0.00    -0.027 C 
ATOM      7  C   LIG    1       24.573 -29.250   6.462  0.00  0.00    -0.076 C 
ATOM      8  C   LIG    1       25.120 -29.715   5.159  0.00  0.00    +0.038 C 
BRANCH   7   9
ATOM      9  C   LIG    1       24.356 -30.233   7.590  0.00  0.00    +0.034 C 
BRANCH   9  10
ATOM     10  C   LIG    1       24.424 -29.793   9.068  0.00  0.00    +0.031 C 
BRANCH  10  11
ATOM     11  C   LIG    1       23.220 -29.756  10.019  0.00  0.00    -0.027 C 
ATOM     12  C   LIG    1       22.267 -30.658  10.365  0.00  0.00    -0.076 C 
ATOM     13  C   LIG    1       22.136 -32.006   9.743  0.00  0.00    +0.038 C 
BRANCH  12  14
ATOM     14  C   LIG    1       21.241 -30.486  11.481  0.00  0.00    +0.034 C 
BRANCH  14  15
ATOM     15  C   LIG    1       21.545 -29.709  12.771  0.00  0.00    +0.031 C 
BRANCH  15  16
ATOM     16  C   LIG    1       20.652 -28.531  13.071  0.00  0.00    -0.027 C 
ATOM     17  C   LIG    1       20.851 -27.179  13.198  0.00  0.00    -0.076 C 
ATOM     18  C   LIG    1       19.461 -26.500  13.517  0.00  0.00    +0.038 C 
BRANCH  17  19
ATOM     19  C   LIG    1       22.408 -26.462  13.285  0.00  0.00    +0.034 C 
BRANCH  19  20
ATOM     20  C   LIG    1       24.104 -26.949  13.506  0.00  0.00    +0.031 C 
BRANCH  20  21
ATOM     21  C   LIG    1       24.962 -28.229  12.634  0.00  0.00    -0.027 C 
ATOM     22  C   LIG    1       25.217 -29.570  12.946  0.00  0.00    -0.076 C 
ATOM     23  C   LIG    1       24.728 -30.087  14.212  0.00  0.00    +0.038 C 
BRANCH  22  24
ATOM     24  C   LIG    1       26.115 -30.794  12.412  0.00  0.00    +0.034 C 
BRANCH  24  25
ATOM     25  C   LIG    1       25.442 -32.258  12.184  0.00  0.00    +0.031 C 
BRANCH  25  26
ATOM     26  C   LIG    1       25.132 -32.939  10.841  0.00  0.00    -0.027 C 
ATOM     27  C   LIG    1       25.863 -32.908   9.722  0.00  0.00    -0.076 C 
ATOM     28  C   LIG    1       26.973 -31.972   9.641  0.00  0.00    +0.038 C 
BRANCH  27  29
ATOM     29  C   LIG    1       25.670 -33.785   8.512  0.00  0.00    +0.034 C 
BRANCH  29  30
ATOM     30  C   LIG    1       26.354 -33.360   7.201  0.00  0.00    +0.031 C 
BRANCH  30  31
ATOM     31  C   LIG    1       25.658 -33.478   5.870  0.00  0.00    -0.028 C 
ATOM     32  C   LIG    1       24.452 -33.426   5.266  0.00  0.00    -0.080 C 
ATOM     33  C   LIG    1       24.264 -33.790   3.831  0.00  0.00    +0.038 C 
ATOM     34  C   LIG    1       23.194 -33.107   5.876  0.00  0.00    +0.038 C 
ENDBRANCH  30  31
ENDBRANCH  29  30
ENDBRANCH  27  29
ENDBRANCH  25  26
ENDBRANCH  24  25
ENDBRANCH  22  24
ENDBRANCH  20  21
ENDBRANCH  19  20
ENDBRANCH  17  19
ENDBRANCH  15  16
ENDBRANCH  14  15
ENDBRANCH  12  14
ENDBRANCH  10  11
ENDBRANCH   9  10
ENDBRANCH   7   9
ENDBRANCH   5   6
ENDBRANCH   4   5
ENDBRANCH   2   4
BRANCH   1  35
ATOM     35  C   LIG    1       22.877 -23.105   6.882  0.00  0.00    +0.031 C 
BRANCH  35  36
ATOM     36  C   LIG    1       23.670 -21.784   6.808  0.00  0.00    +0.034 C 
BRANCH  36  38
ATOM     37  C   LIG    1       22.643 -19.759   5.712  0.00  0.00    -0.027 C 
ATOM     38  C   LIG    1       23.313 -20.916   5.624  0.00  0.00    -0.076 C 
ATOM     39  C   LIG    1       23.551 -21.465   4.292  0.00  0.00    +0.038 C 
BRANCH  37  40
ATOM     40  C   LIG    1       22.107 -19.015   4.520  0.00  0.00    +0.031 C 
BRANCH  40  41
ATOM     41  C   LIG    1       22.110 -17.470   4.659  0.00  0.00    +0.034 C 
BRANCH  41  43
ATOM     42  C   LIG    1       23.471 -15.200   4.420  0.00  0.00    -0.027 C 
ATOM     43  C   LIG    1       23.297 -16.541   4.232  0.00  0.00    -0.076 C 
ATOM     44  C   LIG    1       24.319 -17.398   3.518  0.00  0.00    +0.038 C 
BRANCH  42  45
ATOM     45  C   LIG    1       24.526 -14.203   3.823  0.00  0.00    +0.031 C 
BRANCH  45  46
ATOM     46  C   LIG    1       25.836 -14.702   3.061  0.00  0.00    +0.034 C 
BRANCH  46  48
ATOM     47  C   LIG    1       27.325 -16.577   3.964  0.00  0.00    -0.023 C 
ATOM     48  C   LIG    1       27.106 -15.245   3.780  0.00  0.00    -0.076 C 
ATOM     49  C   LIG    1       28.117 -14.225   4.186  0.00  0.00    +0.038 C 
BRANCH  47  50
ATOM     50  C   LIG    1       28.556 -17.365   4.498  0.00  0.00    +0.066 C 
BRANCH  50  56
ATOM     51  C   LIG    1       27.845 -20.339   7.660  0.00  0.00    +0.213 C 
ATOM     52  C   LIG    1       27.397 -20.619   6.274  0.00  0.00    +0.227 C 
ATOM     53  O   LIG    1       27.150 -21.832   5.882  0.00  0.00    -0.284 OA
ATOM     54  C   LIG    1       27.295 -19.505   5.295  0.00  0.00    +0.007 C 
ATOM     55  C   LIG    1       26.216 -19.558   4.236  0.00  0.00    +0.048 C 
ATOM     56  C   LIG    1       28.292 -18.576   5.393  0.00  0.00    +0.013 C 
ATOM     57  C   LIG    1       29.236 -18.838   6.479  0.00  0.00    +0.228 C 
ATOM     58  O   LIG    1       30.518 -18.597   6.284  0.00  0.00    -0.284 OA
ATOM     59  C   LIG    1       28.799 -19.357   7.761  0.00  0.00    +0.213 C 
BRANCH  59  60
ATOM     60  O   LIG    1       29.356 -18.989   8.981  0.00  0.00    -0.488 OA
ATOM     61  C   LIG    1       30.777 -18.803   8.969  0.00  0.00    +0.277 C 
ENDBRANCH  59  60
BRANCH  51  63
ATOM     62  C   LIG    1       26.067 -20.865   9.183  0.00  0.00    +0.277 C 
ATOM     63  O   LIG    1       27.431 -21.021   8.794  0.00  0.00    -0.488 OA
ENDBRANCH  51  63
ENDBRANCH  50  56
ENDBRANCH  47  50
ENDBRANCH  46  48
ENDBRANCH  45  46
ENDBRANCH  42  45
ENDBRANCH  41  43
ENDBRANCH  40  41
ENDBRANCH  37  40
ENDBRANCH  36  38
ENDBRANCH  35  36
ENDBRANCH   1  35
TORSDOF 31
ENDMDL
MODEL 3
REMARK VINA RESULT:      -7.2      2.564      7.589
REMARK  Name = *****
REMARK                            x       y       z     vdW  Elec       q    Type
REMARK                         _______ _______ _______ _____ _____    ______ ____
ROOT
ATOM      1  C   LIG    1       26.835 -31.647   8.346  0.00  0.00    -0.027 C 
ATOM      2  C   LIG    1       26.374 -31.750   9.606  0.00  0.00    -0.076 C 
ATOM      3  C   LIG    1       26.075 -33.039  10.333  0.00  0.00    +0.038 C 
ENDROOT
BRANCH   2   4
ATOM      4  C   LIG    1       25.869 -30.533  10.296  0.00  0.00    +0.034 C 
BRANCH   4   5
ATOM      5  C   LIG    1       24.610 -29.981   9.650  0.00  0.00    +0.031 C 
BRANCH   5   6
ATOM      6  C   LIG    1       23.398 -30.600  10.278  0.00  0.00    -0.027 C 
ATOM      7  C   LIG    1       22.576 -31.418   9.607  0.00  0.00    -0.076 C 
ATOM      8  C   LIG    1       23.128 -32.059   8.384  0.00  0.00    +0.038 C 
BRANCH   7   9
ATOM      9  C   LIG    1       21.223 -31.833  10.139  0.00  0.00    +0.034 C 
BRANCH   9  10
ATOM     10  C   LIG    1       21.083 -32.653  11.440  0.00  0.00    +0.031 C 
BRANCH  10  11
ATOM     11  C   LIG    1       21.555 -32.176  12.820  0.00  0.00    -0.027 C 
ATOM     12  C   LIG    1       21.047 -32.278  14.075  0.00  0.00    -0.076 C 
ATOM     13  C   LIG    1       19.716 -32.872  14.385  0.00  0.00    +0.038 C 
BRANCH  12  14
ATOM     14  C   LIG    1       21.767 -31.887  15.362  0.00  0.00    +0.034 C 
BRANCH  14  15
ATOM     15  C   LIG    1       22.625 -30.618  15.475  0.00  0.00    +0.031 C 
BRANCH  15  16
ATOM     16  C   LIG    1       24.120 -30.811  15.432  0.00  0.00    -0.027 C 
ATOM     17  C   LIG    1       25.149 -30.214  14.746  0.00  0.00    -0.076 C 
ATOM     18  C   LIG    1       26.502 -30.903  15.182  0.00  0.00    +0.038 C 
BRANCH  17  19
ATOM     19  C   LIG    1       24.903 -29.130  13.439  0.00  0.00    +0.034 C 
BRANCH  19  20
ATOM     20  C   LIG    1       24.496 -27.420  13.166  0.00  0.00    +0.031 C 
BRANCH  20  21
ATOM     21  C   LIG    1       22.902 -26.669  13.335  0.00  0.00    -0.027 C 
ATOM     22  C   LIG    1       21.606 -27.161  13.140  0.00  0.00    -0.076 C 
ATOM     23  C   LIG    1       21.451 -28.538  12.703  0.00  0.00    +0.038 C 
BRANCH  22  24
ATOM     24  C   LIG    1       20.096 -26.611  13.042  0.00  0.00    +0.034 C 
BRANCH  24  25
ATOM     25  C   LIG    1       19.118 -26.683  14.340  0.00  0.00    +0.031 C 
BRANCH  25  26
ATOM     26  C   LIG    1       17.814 -27.485  14.478  0.00  0.00    -0.027 C 
ATOM     27  C   LIG    1       17.641 -28.664  15.085  0.00  0.00    -0.076 C 
ATOM     28  C   LIG    1       18.816 -29.417  15.492  0.00  0.00    +0.038 C 
BRANCH  27  29
ATOM     29  C   LIG    1       16.318 -29.299  15.427  0.00  0.00    +0.034 C 
BRANCH  29  30
ATOM     30  C   LIG    1       15.776 -30.384  14.478  0.00  0.00    +0.031 C 
BRANCH  30  31
ATOM     31  C   LIG    1       16.387 -30.626  13.123  0.00  0.00    -0.028 C 
ATOM     32  C   LIG    1       16.810 -31.590  12.279  0.00  0.00    -0.080 C 
ATOM     33  C   LIG    1       17.534 -31.278  11.012  0.00  0.00    +0.038 C 
ATOM     34  C   LIG    1       16.716 -33.008  12.472  0.00  0.00    +0.038 C 
ENDBRANCH  30  31
ENDBRANCH  29  30
ENDBRANCH  27  29
ENDBRANCH  25  26
ENDBRANCH  24  25
ENDBRANCH  22  24
ENDBRANCH  20  21
ENDBRANCH  19  20
ENDBRANCH  17  19
ENDBRANCH  15  16
ENDBRANCH  14  15
ENDBRANCH  12  14
ENDBRANCH  10  11
ENDBRANCH   9  10
ENDBRANCH   7   9
ENDBRANCH   5   6
ENDBRANCH   4   5
ENDBRANCH   2   4
BRANCH   1  35
ATOM     35  C   LIG    1       27.083 -32.785   7.406  0.00  0.00    +0.031 C 
BRANCH  35  36
ATOM     36  C   LIG    1       26.040 -33.064   6.304  0.00  0.00    +0.034 C 
BRANCH  36  38
ATOM     37  C   LIG    1       25.516 -30.670   5.712  0.00  0.00    -0.027 C 
ATOM     38  C   LIG    1       25.839 -31.917   5.342  0.00  0.00    -0.076 C 
ATOM     39  C   LIG    1       25.816 -32.232   3.916  0.00  0.00    +0.038 C 
BRANCH  37  40
ATOM     40  C   LIG    1       25.110 -29.594   4.742  0.00  0.00    +0.031 C 
BRANCH  40  41
ATOM     41  C   LIG    1       25.737 -28.201   5.013  0.00  0.00    +0.034 C 
BRANCH  41  43
ATOM     42  C   LIG    1       24.162 -26.140   5.587  0.00  0.00    -0.027 C 
ATOM     43  C   LIG    1       25.086 -27.092   5.908  0.00  0.00    -0.076 C 
ATOM     44  C   LIG    1       25.664 -27.223   7.299  0.00  0.00    +0.038 C 
BRANCH  42  45
ATOM     45  C   LIG    1       23.653 -24.886   6.383  0.00  0.00    +0.031 C 
BRANCH  45  46
ATOM     46  C   LIG    1       24.649 -23.793   6.981  0.00  0.00    +0.034 C 
BRANCH  46  48
ATOM     47  C   LIG    1       26.275 -21.856   6.585  0.00  0.00    -0.023 C 
ATOM     48  C   LIG    1       25.195 -22.579   6.174  0.00  0.00    -0.076 C 
ATOM     49  C   LIG    1       24.516 -22.296   4.874  0.00  0.00    +0.038 C 
BRANCH  47  50
ATOM     50  C   LIG    1       27.093 -20.724   5.897  0.00  0.00    +0.066 C 
BRANCH  50  56
ATOM     51  C   LIG    1       30.632 -19.616   8.261  0.00  0.00    +0.213 C 
ATOM     52  C   LIG    1       29.973 -18.600   7.403  0.00  0.00    +0.227 C 
ATOM     53  O   LIG    1       30.160 -17.331   7.605  0.00  0.00    -0.284 OA
ATOM     54  C   LIG    1       29.030 -19.035   6.340  0.00  0.00    +0.007 C 
ATOM     55  C   LIG    1       28.949 -18.233   5.061  0.00  0.00    +0.048 C 
ATOM     56  C   LIG    1       28.231 -20.086   6.693  0.00  0.00    +0.013 C 
ATOM     57  C   LIG    1       28.500 -20.606   8.033  0.00  0.00    +0.228 C 
ATOM     58  O   LIG    1       27.486 -20.996   8.783  0.00  0.00    -0.284 OA
ATOM     59  C   LIG    1       29.848 -20.703   8.558  0.00  0.00    +0.213 C 
BRANCH  59  60
ATOM     60  O   LIG    1       30.293 -21.735   9.377  0.00  0.00    -0.488 OA
ATOM     61  C   LIG    1       31.609 -22.221   9.082  0.00  0.00    +0.277 C 
ENDBRANCH  59  60
BRANCH  51  63
ATOM     62  C   LIG    1       32.242 -18.258   9.412  0.00  0.00    +0.277 C 
ATOM     63  O   LIG    1       31.900 -19.507   8.810  0.00  0.00    -0.488 OA
ENDBRANCH  51  63
ENDBRANCH  50  56
ENDBRANCH  47  50
ENDBRANCH  46  48
ENDBRANCH  45  46
ENDBRANCH  42  45
ENDBRANCH  41  43
ENDBRANCH  40  41
ENDBRANCH  37  40
ENDBRANCH  36  38
ENDBRANCH  35  36
ENDBRANCH   1  35
TORSDOF 31
ENDMDL
MODEL 4
REMARK VINA RESULT:      -6.7      1.968      4.056
REMARK  Name = *****
REMARK                            x       y       z     vdW  Elec       q    Type
REMARK                         _______ _______ _______ _____ _____    ______ ____
ROOT
ATOM      1  C   LIG    1       26.112 -23.811   6.959  0.00  0.00    -0.027 C 
ATOM      2  C   LIG    1       25.229 -24.656   6.396  0.00  0.00    -0.076 C 
ATOM      3  C   LIG    1       23.726 -24.564   6.503  0.00  0.00    +0.038 C 
ENDROOT
BRANCH   2   4
ATOM      4  C   LIG    1       25.718 -25.938   5.821  0.00  0.00    +0.034 C 
BRANCH   4   5
ATOM      5  C   LIG    1       24.637 -27.003   5.774  0.00  0.00    +0.031 C 
BRANCH   5   6
ATOM      6  C   LIG    1       25.137 -28.211   5.041  0.00  0.00    -0.027 C 
ATOM      7  C   LIG    1       24.998 -29.455   5.519  0.00  0.00    -0.076 C 
ATOM      8  C   LIG    1       23.948 -29.656   6.554  0.00  0.00    +0.038 C 
BRANCH   7   9
ATOM      9  C   LIG    1       25.722 -30.643   4.929  0.00  0.00    +0.034 C 
BRANCH   9  10
ATOM     10  C   LIG    1       25.385 -32.088   5.355  0.00  0.00    +0.031 C 
BRANCH  10  11
ATOM     11  C   LIG    1       25.151 -32.532   6.805  0.00  0.00    -0.027 C 
ATOM     12  C   LIG    1       25.975 -32.853   7.835  0.00  0.00    -0.076 C 
ATOM     13  C   LIG    1       27.458 -32.935   7.715  0.00  0.00    +0.038 C 
BRANCH  12  14
ATOM     14  C   LIG    1       25.544 -33.101   9.277  0.00  0.00    +0.034 C 
BRANCH  14  15
ATOM     15  C   LIG    1       25.257 -31.958  10.262  0.00  0.00    +0.031 C 
BRANCH  15  16
ATOM     16  C   LIG    1       25.547 -30.561   9.773  0.00  0.00    -0.027 C 
ATOM     17  C   LIG    1       26.641 -29.733   9.814  0.00  0.00    -0.076 C 
ATOM     18  C   LIG    1       26.267 -28.378   9.093  0.00  0.00    +0.038 C 
BRANCH  17  19
ATOM     19  C   LIG    1       28.032 -30.061  10.764  0.00  0.00    +0.034 C 
BRANCH  19  20
ATOM     20  C   LIG    1       28.868 -29.415  12.195  0.00  0.00    +0.031 C 
BRANCH  20  21
ATOM     21  C   LIG    1       28.115 -28.725  13.642  0.00  0.00    -0.027 C 
ATOM     22  C   LIG    1       26.825 -28.834  14.172  0.00  0.00    -0.076 C 
ATOM     23  C   LIG    1       25.851 -29.639  13.455  0.00  0.00    +0.038 C 
BRANCH  22  24
ATOM     24  C   LIG    1       25.915 -28.152  15.312  0.00  0.00    +0.034 C 
BRANCH  24  25
ATOM     25  C   LIG    1       24.366 -28.612  15.499  0.00  0.00    +0.031 C 
BRANCH  25  26
ATOM     26  C   LIG    1       23.109 -27.849  15.050  0.00  0.00    -0.027 C 
ATOM     27  C   LIG    1       23.003 -26.966  14.051  0.00  0.00    -0.076 C 
ATOM     28  C   LIG    1       24.220 -26.476  13.424  0.00  0.00    +0.038 C 
BRANCH  27  29
ATOM     29  C   LIG    1       21.718 -26.432  13.473  0.00  0.00    +0.034 C 
BRANCH  29  30
ATOM     30  C   LIG    1       20.682 -27.451  12.966  0.00  0.00    +0.031 C 
BRANCH  30  31
ATOM     31  C   LIG    1       21.077 -28.621  12.103  0.00  0.00    -0.028 C 
ATOM     32  C   LIG    1       21.600 -29.864  12.131  0.00  0.00    -0.080 C 
ATOM     33  C   LIG    1       21.958 -30.606  10.887  0.00  0.00    +0.038 C 
ATOM     34  C   LIG    1       21.959 -30.623  13.294  0.00  0.00    +0.038 C 
ENDBRANCH  30  31
ENDBRANCH  29  30
ENDBRANCH  27  29
ENDBRANCH  25  26
ENDBRANCH  24  25
ENDBRANCH  22  24
ENDBRANCH  20  21
ENDBRANCH  19  20
ENDBRANCH  17  19
ENDBRANCH  15  16
ENDBRANCH  14  15
ENDBRANCH  12  14
ENDBRANCH  10  11
ENDBRANCH   9  10
ENDBRANCH   7   9
ENDBRANCH   5   6
ENDBRANCH   4   5
ENDBRANCH   2   4
BRANCH   1  35
ATOM     35  C   LIG    1       25.774 -22.652   7.845  0.00  0.00    +0.031 C 
BRANCH  35  36
ATOM     36  C   LIG    1       25.511 -21.282   7.187  0.00  0.00    +0.034 C 
BRANCH  36  38
ATOM     37  C   LIG    1       23.758 -20.989   5.398  0.00  0.00    -0.027 C 
ATOM     38  C   LIG    1       24.096 -21.098   6.690  0.00  0.00    -0.076 C 
ATOM     39  C   LIG    1       23.061 -20.842   7.688  0.00  0.00    +0.038 C 
BRANCH  37  40
ATOM     40  C   LIG    1       22.384 -20.594   4.928  0.00  0.00    +0.031 C 
BRANCH  40  41
ATOM     41  C   LIG    1       22.237 -19.103   4.524  0.00  0.00    +0.034 C 
BRANCH  41  43
ATOM     42  C   LIG    1       24.657 -18.518   3.596  0.00  0.00    -0.027 C 
ATOM     43  C   LIG    1       23.422 -18.184   4.074  0.00  0.00    -0.076 C 
ATOM     44  C   LIG    1       22.986 -16.747   4.254  0.00  0.00    +0.038 C 
BRANCH  42  45
ATOM     45  C   LIG    1       25.937 -17.646   3.345  0.00  0.00    +0.031 C 
BRANCH  45  46
ATOM     46  C   LIG    1       27.080 -17.472   4.444  0.00  0.00    +0.034 C 
BRANCH  46  48
ATOM     47  C   LIG    1       29.380 -18.359   5.132  0.00  0.00    -0.023 C 
ATOM     48  C   LIG    1       28.067 -18.602   4.859  0.00  0.00    -0.076 C 
ATOM     49  C   LIG    1       27.476 -19.963   5.022  0.00  0.00    +0.038 C 
BRANCH  47  50
ATOM     50  C   LIG    1       30.509 -19.264   5.705  0.00  0.00    +0.066 C 
BRANCH  50  56
ATOM     51  C   LIG    1       30.694 -18.784  10.073  0.00  0.00    +0.213 C 
ATOM     52  C   LIG    1       30.509 -20.135   9.489  0.00  0.00    +0.227 C 
ATOM     53  O   LIG    1       30.773 -21.204  10.178  0.00  0.00    -0.284 OA
ATOM     54  C   LIG    1       30.081 -20.272   8.072  0.00  0.00    +0.007 C 
ATOM     55  C   LIG    1       29.200 -21.438   7.683  0.00  0.00    +0.048 C 
ATOM     56  C   LIG    1       30.643 -19.359   7.225  0.00  0.00    +0.013 C 
ATOM     57  C   LIG    1       31.516 -18.395   7.893  0.00  0.00    +0.228 C 
ATOM     58  O   LIG    1       32.625 -18.012   7.289  0.00  0.00    -0.284 OA
ATOM     59  C   LIG    1       31.195 -17.852   9.198  0.00  0.00    +0.213 C 
BRANCH  59  60
ATOM     60  O   LIG    1       31.463 -16.543   9.585  0.00  0.00    -0.488 OA
ATOM     61  C   LIG    1       32.843 -16.163   9.530  0.00  0.00    +0.277 C 
ENDBRANCH  59  60
BRANCH  51  63
ATOM     62  C   LIG    1       31.219 -17.344  11.919  0.00  0.00    +0.277 C 
ATOM     63  O   LIG    1       30.469 -18.441  11.397  0.00  0.00    -0.488 OA
ENDBRANCH  51  63
ENDBRANCH  50  56
ENDBRANCH  47  50
ENDBRANCH  46  48
ENDBRANCH  45  46
ENDBRANCH  42  45
ENDBRANCH  41  43
ENDBRANCH  40  41
ENDBRANCH  37  40
ENDBRANCH  36  38
ENDBRANCH  35  36
ENDBRANCH   1  35
TORSDOF 31
ENDMDL
MODEL 5
REMARK VINA RESULT:      -6.7      1.866      3.740
REMARK  Name = *****
REMARK                            x       y       z     vdW  Elec       q    Type
REMARK                         _______ _______ _______ _____ _____    ______ ____
ROOT
ATOM      1  C   LIG    1       25.987 -23.667   6.867  0.00  0.00    -0.027 C 
ATOM      2  C   LIG    1       25.130 -24.565   6.348  0.00  0.00    -0.076 C 
ATOM      3  C   LIG    1       23.663 -24.682   6.687  0.00  0.00    +0.038 C 
ENDROOT
BRANCH   2   4
ATOM      4  C   LIG    1       25.665 -25.710   5.564  0.00  0.00    +0.034 C 
BRANCH   4   5
ATOM      5  C   LIG    1       24.628 -26.798   5.346  0.00  0.00    +0.031 C 
BRANCH   5   6
ATOM      6  C   LIG    1       25.298 -28.062   4.899  0.00  0.00    -0.027 C 
ATOM      7  C   LIG    1       25.065 -29.247   5.481  0.00  0.00    -0.076 C 
ATOM      8  C   LIG    1       23.806 -29.366   6.265  0.00  0.00    +0.038 C 
BRANCH   7   9
ATOM      9  C   LIG    1       25.919 -30.467   5.222  0.00  0.00    +0.034 C 
BRANCH   9  10
ATOM     10  C   LIG    1       25.434 -31.886   5.592  0.00  0.00    +0.031 C 
BRANCH  10  11
ATOM     11  C   LIG    1       25.560 -32.508   6.989  0.00  0.00    -0.027 C 
ATOM     12  C   LIG    1       26.593 -33.037   7.693  0.00  0.00    -0.076 C 
ATOM     13  C   LIG    1       27.965 -33.223   7.140  0.00  0.00    +0.038 C 
BRANCH  12  14
ATOM     14  C   LIG    1       26.552 -33.448   9.161  0.00  0.00    +0.034 C 
BRANCH  14  15
ATOM     15  C   LIG    1       25.237 -33.723   9.906  0.00  0.00    +0.031 C 
BRANCH  15  16
ATOM     16  C   LIG    1       25.172 -33.271  11.344  0.00  0.00    -0.027 C 
ATOM     17  C   LIG    1       24.158 -32.899  12.191  0.00  0.00    -0.076 C 
ATOM     18  C   LIG    1       24.790 -32.543  13.595  0.00  0.00    +0.038 C 
BRANCH  17  19
ATOM     19  C   LIG    1       22.553 -32.600  11.663  0.00  0.00    +0.034 C 
BRANCH  19  20
ATOM     20  C   LIG    1       21.600 -31.294  10.923  0.00  0.00    +0.031 C 
BRANCH  20  21
ATOM     21  C   LIG    1       21.363 -29.660  11.562  0.00  0.00    -0.027 C 
ATOM     22  C   LIG    1       21.614 -29.097  12.819  0.00  0.00    -0.076 C 
ATOM     23  C   LIG    1       22.162 -29.952  13.859  0.00  0.00    +0.038 C 
BRANCH  22  24
ATOM     24  C   LIG    1       21.293 -27.748  13.635  0.00  0.00    +0.034 C 
BRANCH  24  25
ATOM     25  C   LIG    1       22.306 -26.478  13.538  0.00  0.00    +0.031 C 
BRANCH  25  26
ATOM     26  C   LIG    1       23.826 -26.517  13.316  0.00  0.00    -0.027 C 
ATOM     27  C   LIG    1       24.757 -27.029  14.128  0.00  0.00    -0.076 C 
ATOM     28  C   LIG    1       24.370 -27.412  15.476  0.00  0.00    +0.038 C 
BRANCH  27  29
ATOM     29  C   LIG    1       26.200 -27.284  13.774  0.00  0.00    +0.034 C 
BRANCH  29  30
ATOM     30  C   LIG    1       26.666 -26.914  12.354  0.00  0.00    +0.031 C 
BRANCH  30  31
ATOM     31  C   LIG    1       26.855 -27.958  11.285  0.00  0.00    -0.028 C 
ATOM     32  C   LIG    1       26.270 -29.011  10.679  0.00  0.00    -0.080 C 
ATOM     33  C   LIG    1       26.995 -29.872   9.700  0.00  0.00    +0.038 C 
ATOM     34  C   LIG    1       24.945 -29.513  10.910  0.00  0.00    +0.038 C 
ENDBRANCH  30  31
ENDBRANCH  29  30
ENDBRANCH  27  29
ENDBRANCH  25  26
ENDBRANCH  24  25
ENDBRANCH  22  24
ENDBRANCH  20  21
ENDBRANCH  19  20
ENDBRANCH  17  19
ENDBRANCH  15  16
ENDBRANCH  14  15
ENDBRANCH  12  14
ENDBRANCH  10  11
ENDBRANCH   9  10
ENDBRANCH   7   9
ENDBRANCH   5   6
ENDBRANCH   4   5
ENDBRANCH   2   4
BRANCH   1  35
ATOM     35  C   LIG    1       25.665 -22.653   7.920  0.00  0.00    +0.031 C 
BRANCH  35  36
ATOM     36  C   LIG    1       25.226 -21.245   7.467  0.00  0.00    +0.034 C 
BRANCH  36  38
ATOM     37  C   LIG    1       23.690 -20.685   5.547  0.00  0.00    -0.027 C 
ATOM     38  C   LIG    1       23.890 -21.213   6.763  0.00  0.00    -0.076 C 
ATOM     39  C   LIG    1       22.715 -21.615   7.531  0.00  0.00    +0.038 C 
BRANCH  37  40
ATOM     40  C   LIG    1       22.328 -20.466   4.949  0.00  0.00    +0.031 C 
BRANCH  40  41
ATOM     41  C   LIG    1       22.029 -19.004   4.525  0.00  0.00    +0.034 C 
BRANCH  41  43
ATOM     42  C   LIG    1       24.356 -18.104   3.609  0.00  0.00    -0.027 C 
ATOM     43  C   LIG    1       23.124 -17.939   4.176  0.00  0.00    -0.076 C 
ATOM     44  C   LIG    1       22.596 -16.582   4.585  0.00  0.00    +0.038 C 
BRANCH  42  45
ATOM     45  C   LIG    1       25.558 -17.108   3.446  0.00  0.00    +0.031 C 
BRANCH  45  46
ATOM     46  C   LIG    1       26.980 -17.369   4.121  0.00  0.00    +0.034 C 
BRANCH  46  48
ATOM     47  C   LIG    1       28.708 -18.958   5.140  0.00  0.00    -0.023 C 
ATOM     48  C   LIG    1       27.491 -18.775   4.554  0.00  0.00    -0.076 C 
ATOM     49  C   LIG    1       26.538 -19.908   4.365  0.00  0.00    +0.038 C 
BRANCH  47  50
ATOM     50  C   LIG    1       29.372 -20.206   5.792  0.00  0.00    +0.066 C 
BRANCH  50  56
ATOM     51  C   LIG    1       31.360 -18.892   9.489  0.00  0.00    +0.213 C 
ATOM     52  C   LIG    1       30.756 -20.245   9.420  0.00  0.00    +0.227 C 
ATOM     53  O   LIG    1       31.110 -21.180  10.250  0.00  0.00    -0.284 OA
ATOM     54  C   LIG    1       29.781 -20.562   8.343  0.00  0.00    +0.007 C 
ATOM     55  C   LIG    1       28.653 -21.526   8.637  0.00  0.00    +0.048 C 
ATOM     56  C   LIG    1       30.087 -20.014   7.129  0.00  0.00    +0.013 C 
ATOM     57  C   LIG    1       31.289 -19.181   7.145  0.00  0.00    +0.228 C 
ATOM     58  O   LIG    1       32.107 -19.220   6.111  0.00  0.00    -0.284 OA
ATOM     59  C   LIG    1       31.604 -18.316   8.266  0.00  0.00    +0.213 C 
BRANCH  59  60
ATOM     60  O   LIG    1       32.197 -17.064   8.143  0.00  0.00    -0.488 OA
ATOM     61  C   LIG    1       32.211 -16.278   9.341  0.00  0.00    +0.277 C 
ENDBRANCH  59  60
BRANCH  51  63
ATOM     62  C   LIG    1       30.694 -17.776  11.506  0.00  0.00    +0.277 C 
ATOM     63  O   LIG    1       31.739 -18.237  10.650  0.00  0.00    -0.488 OA
ENDBRANCH  51  63
ENDBRANCH  50  56
ENDBRANCH  47  50
ENDBRANCH  46  48
ENDBRANCH  45  46
ENDBRANCH  42  45
ENDBRANCH  41  43
ENDBRANCH  40  41
ENDBRANCH  37  40
ENDBRANCH  36  38
ENDBRANCH  35  36
ENDBRANCH   1  35
TORSDOF 31
ENDMDL
MODEL 6
REMARK VINA RESULT:      -6.3      1.664      4.655
REMARK  Name = *****
REMARK                            x       y       z     vdW  Elec       q    Type
REMARK                         _______ _______ _______ _____ _____    ______ ____
ROOT
ATOM      1  C   LIG    1       23.147 -19.244   5.415  0.00  0.00    -0.027 C 
ATOM      2  C   LIG    1       23.142 -20.438   6.034  0.00  0.00    -0.076 C 
ATOM      3  C   LIG    1       22.052 -21.479   5.936  0.00  0.00    +0.038 C 
ENDROOT
BRANCH   2   4
ATOM      4  C   LIG    1       24.139 -20.705   7.105  0.00  0.00    +0.034 C 
BRANCH   4   5
ATOM      5  C   LIG    1       24.067 -22.131   7.623  0.00  0.00    +0.031 C 
BRANCH   5   6
ATOM      6  C   LIG    1       25.058 -22.991   6.899  0.00  0.00    -0.027 C 
ATOM      7  C   LIG    1       24.794 -24.256   6.546  0.00  0.00    -0.076 C 
ATOM      8  C   LIG    1       23.359 -24.642   6.478  0.00  0.00    +0.038 C 
BRANCH   7   9
ATOM      9  C   LIG    1       25.862 -25.209   6.059  0.00  0.00    +0.034 C 
BRANCH   9  10
ATOM     10  C   LIG    1       26.375 -26.368   6.942  0.00  0.00    +0.031 C 
BRANCH  10  11
ATOM     11  C   LIG    1       25.628 -27.691   7.154  0.00  0.00    -0.027 C 
ATOM     12  C   LIG    1       25.108 -28.623   6.315  0.00  0.00    -0.076 C 
ATOM     13  C   LIG    1       25.078 -28.477   4.832  0.00  0.00    +0.038 C 
BRANCH  12  14
ATOM     14  C   LIG    1       24.551 -29.982   6.727  0.00  0.00    +0.034 C 
BRANCH  14  15
ATOM     15  C   LIG    1       23.719 -30.181   8.003  0.00  0.00    +0.031 C 
BRANCH  15  16
ATOM     16  C   LIG    1       23.512 -31.605   8.455  0.00  0.00    -0.027 C 
ATOM     17  C   LIG    1       22.669 -32.220   9.347  0.00  0.00    -0.076 C 
ATOM     18  C   LIG    1       22.975 -33.769   9.333  0.00  0.00    +0.038 C 
BRANCH  17  19
ATOM     19  C   LIG    1       21.696 -31.358  10.468  0.00  0.00    +0.034 C 
BRANCH  19  20
ATOM     20  C   LIG    1       21.848 -30.565  12.052  0.00  0.00    +0.031 C 
BRANCH  20  21
ATOM     21  C   LIG    1       22.584 -28.989  12.384  0.00  0.00    -0.027 C 
ATOM     22  C   LIG    1       22.154 -27.890  13.136  0.00  0.00    -0.076 C 
ATOM     23  C   LIG    1       20.861 -27.971  13.795  0.00  0.00    +0.038 C 
BRANCH  22  24
ATOM     24  C   LIG    1       22.557 -26.352  13.387  0.00  0.00    +0.034 C 
BRANCH  24  25
ATOM     25  C   LIG    1       24.077 -25.970  13.823  0.00  0.00    +0.031 C 
BRANCH  25  26
ATOM     26  C   LIG    1       25.371 -26.281  13.053  0.00  0.00    -0.027 C 
ATOM     27  C   LIG    1       26.055 -27.430  13.036  0.00  0.00    -0.076 C 
ATOM     28  C   LIG    1       25.704 -28.464  13.996  0.00  0.00    +0.038 C 
BRANCH  27  29
ATOM     29  C   LIG    1       27.165 -27.786  12.081  0.00  0.00    +0.034 C 
BRANCH  29  30
ATOM     30  C   LIG    1       26.781 -28.131  10.631  0.00  0.00    +0.031 C 
BRANCH  30  31
ATOM     31  C   LIG    1       26.710 -29.556  10.147  0.00  0.00    -0.028 C 
ATOM     32  C   LIG    1       26.314 -30.800  10.486  0.00  0.00    -0.080 C 
ATOM     33  C   LIG    1       26.631 -31.993   9.649  0.00  0.00    +0.038 C 
ATOM     34  C   LIG    1       25.624 -31.189  11.682  0.00  0.00    +0.038 C 
ENDBRANCH  30  31
ENDBRANCH  29  30
ENDBRANCH  27  29
ENDBRANCH  25  26
ENDBRANCH  24  25
ENDBRANCH  22  24
ENDBRANCH  20  21
ENDBRANCH  19  20
ENDBRANCH  17  19
ENDBRANCH  15  16
ENDBRANCH  14  15
ENDBRANCH  12  14
ENDBRANCH  10  11
ENDBRANCH   9  10
ENDBRANCH   7   9
ENDBRANCH   5   6
ENDBRANCH   4   5
ENDBRANCH   2   4
BRANCH   1  35
ATOM     35  C   LIG    1       22.050 -18.695   4.557  0.00  0.00    +0.031 C 
BRANCH  35  36
ATOM     36  C   LIG    1       22.373 -17.505   3.631  0.00  0.00    +0.034 C 
BRANCH  36  38
ATOM     37  C   LIG    1       23.197 -15.131   3.845  0.00  0.00    -0.027 C 
ATOM     38  C   LIG    1       22.556 -16.192   4.356  0.00  0.00    -0.076 C 
ATOM     39  C   LIG    1       22.173 -16.142   5.764  0.00  0.00    +0.038 C 
BRANCH  37  40
ATOM     40  C   LIG    1       23.559 -13.912   4.648  0.00  0.00    +0.031 C 
BRANCH  40  41
ATOM     41  C   LIG    1       25.073 -13.576   4.675  0.00  0.00    +0.034 C 
BRANCH  41  43
ATOM     42  C   LIG    1       26.134 -15.854   3.812  0.00  0.00    -0.027 C 
ATOM     43  C   LIG    1       26.214 -14.586   4.313  0.00  0.00    -0.076 C 
ATOM     44  C   LIG    1       27.536 -13.917   4.617  0.00  0.00    +0.038 C 
BRANCH  42  45
ATOM     45  C   LIG    1       27.227 -16.967   3.643  0.00  0.00    +0.031 C 
BRANCH  45  46
ATOM     46  C   LIG    1       26.856 -18.511   3.493  0.00  0.00    +0.034 C 
BRANCH  46  48
ATOM     47  C   LIG    1       27.948 -19.422   5.621  0.00  0.00    -0.023 C 
ATOM     48  C   LIG    1       27.022 -19.561   4.631  0.00  0.00    -0.076 C 
ATOM     49  C   LIG    1       26.051 -20.695   4.625  0.00  0.00    +0.038 C 
BRANCH  47  50
ATOM     50  C   LIG    1       28.204 -20.229   6.927  0.00  0.00    +0.066 C 
BRANCH  50  56
ATOM     51  C   LIG    1       31.304 -18.618   9.599  0.00  0.00    +0.213 C 
ATOM     52  C   LIG    1       31.398 -20.021   9.126  0.00  0.00    +0.227 C 
ATOM     53  O   LIG    1       32.526 -20.663   9.157  0.00  0.00    -0.284 OA
ATOM     54  C   LIG    1       30.202 -20.682   8.542  0.00  0.00    +0.007 C 
ATOM     55  C   LIG    1       30.010 -22.167   8.753  0.00  0.00    +0.048 C 
ATOM     56  C   LIG    1       29.437 -19.867   7.756  0.00  0.00    +0.013 C 
ATOM     57  C   LIG    1       29.922 -18.489   7.688  0.00  0.00    +0.228 C 
ATOM     58  O   LIG    1       29.850 -17.842   6.540  0.00  0.00    -0.284 OA
ATOM     59  C   LIG    1       30.480 -17.818   8.846  0.00  0.00    +0.213 C 
BRANCH  59  60
ATOM     60  O   LIG    1       30.300 -16.468   9.127  0.00  0.00    -0.488 OA
ATOM     61  C   LIG    1       31.509 -15.716   9.297  0.00  0.00    +0.277 C 
ENDBRANCH  59  60
BRANCH  51  63
ATOM     62  C   LIG    1       31.255 -17.546  11.746  0.00  0.00    +0.277 C 
ATOM     63  O   LIG    1       32.014 -18.076  10.659  0.00  0.00    -0.488 OA
ENDBRANCH  51  63
ENDBRANCH  50  56
ENDBRANCH  47  50
ENDBRANCH  46  48
ENDBRANCH  45  46
ENDBRANCH  42  45
ENDBRANCH  41  43
ENDBRANCH  40  41
ENDBRANCH  37  40
ENDBRANCH  36  38
ENDBRANCH  35  36
ENDBRANCH   1  35
TORSDOF 31
ENDMDL
MODEL 7
REMARK VINA RESULT:      -5.7      2.690     13.104
REMARK  Name = *****
REMARK                            x       y       z     vdW  Elec       q    Type
REMARK                         _______ _______ _______ _____ _____    ______ ____
ROOT
ATOM      1  C   LIG    1       25.585 -25.618   6.441  0.00  0.00    -0.027 C 
ATOM      2  C   LIG    1       24.940 -24.450   6.274  0.00  0.00    -0.076 C 
ATOM      3  C   LIG    1       23.442 -24.267   6.224  0.00  0.00    +0.038 C 
ENDROOT
BRANCH   2   4
ATOM      4  C   LIG    1       25.711 -23.249   5.854  0.00  0.00    +0.034 C 
BRANCH   4   5
ATOM      5  C   LIG    1       25.114 -22.575   4.631  0.00  0.00    +0.031 C 
BRANCH   5   6
ATOM      6  C   LIG    1       25.258 -21.087   4.743  0.00  0.00    -0.027 C 
ATOM      7  C   LIG    1       24.962 -20.255   3.735  0.00  0.00    -0.076 C 
ATOM      8  C   LIG    1       24.066 -20.788   2.675  0.00  0.00    +0.038 C 
BRANCH   7   9
ATOM      9  C   LIG    1       25.350 -18.794   3.741  0.00  0.00    +0.034 C 
BRANCH   9  10
ATOM     10  C   LIG    1       26.819 -18.347   3.583  0.00  0.00    +0.031 C 
BRANCH  10  11
ATOM     11  C   LIG    1       27.789 -18.126   4.751  0.00  0.00    -0.027 C 
ATOM     12  C   LIG    1       28.582 -18.950   5.483  0.00  0.00    -0.076 C 
ATOM     13  C   LIG    1       28.598 -20.433   5.334  0.00  0.00    +0.038 C 
BRANCH  12  14
ATOM     14  C   LIG    1       29.626 -18.507   6.503  0.00  0.00    +0.034 C 
BRANCH  14  15
ATOM     15  C   LIG    1       30.978 -19.220   6.665  0.00  0.00    +0.031 C 
BRANCH  15  16
ATOM     16  C   LIG    1       31.086 -20.206   7.800  0.00  0.00    -0.027 C 
ATOM     17  C   LIG    1       30.233 -21.120   8.366  0.00  0.00    -0.076 C 
ATOM     18  C   LIG    1       30.995 -21.851   9.541  0.00  0.00    +0.038 C 
BRANCH  17  19
ATOM     19  C   LIG    1       28.555 -21.186   8.011  0.00  0.00    +0.034 C 
BRANCH  19  20
ATOM     20  C   LIG    1       27.033 -20.442   8.553  0.00  0.00    +0.031 C 
BRANCH  20  21
ATOM     21  C   LIG    1       25.519 -20.338   7.642  0.00  0.00    -0.027 C 
ATOM     22  C   LIG    1       24.275 -20.956   7.812  0.00  0.00    -0.076 C 
ATOM     23  C   LIG    1       24.114 -21.885   8.917  0.00  0.00    +0.038 C 
BRANCH  22  24
ATOM     24  C   LIG    1       22.892 -21.151   7.012  0.00  0.00    +0.034 C 
BRANCH  24  25
ATOM     25  C   LIG    1       22.515 -20.152   5.784  0.00  0.00    +0.031 C 
BRANCH  25  26
ATOM     26  C   LIG    1       22.728 -18.631   5.724  0.00  0.00    -0.027 C 
ATOM     27  C   LIG    1       22.217 -17.769   4.839  0.00  0.00    -0.076 C 
ATOM     28  C   LIG    1       21.554 -18.296   3.657  0.00  0.00    +0.038 C 
BRANCH  27  29
ATOM     29  C   LIG    1       22.233 -16.266   4.954  0.00  0.00    +0.034 C 
BRANCH  29  30
ATOM     30  C   LIG    1       23.136 -15.482   3.985  0.00  0.00    +0.031 C 
BRANCH  30  31
ATOM     31  C   LIG    1       24.318 -14.685   4.473  0.00  0.00    -0.028 C 
ATOM     32  C   LIG    1       25.569 -14.292   4.156  0.00  0.00    -0.080 C 
ATOM     33  C   LIG    1       26.449 -13.576   5.124  0.00  0.00    +0.038 C 
ATOM     34  C   LIG    1       26.267 -14.544   2.928  0.00  0.00    +0.038 C 
ENDBRANCH  30  31
ENDBRANCH  29  30
ENDBRANCH  27  29
ENDBRANCH  25  26
ENDBRANCH  24  25
ENDBRANCH  22  24
ENDBRANCH  20  21
ENDBRANCH  19  20
ENDBRANCH  17  19
ENDBRANCH  15  16
ENDBRANCH  14  15
ENDBRANCH  12  14
ENDBRANCH  10  11
ENDBRANCH   9  10
ENDBRANCH   7   9
ENDBRANCH   5   6
ENDBRANCH   4   5
ENDBRANCH   2   4
BRANCH   1  35
ATOM     35  C   LIG    1       24.944 -26.967   6.551  0.00  0.00    +0.031 C 
BRANCH  35  36
ATOM     36  C   LIG    1       25.580 -28.143   5.781  0.00  0.00    +0.034 C 
BRANCH  36  38
ATOM     37  C   LIG    1       24.418 -29.786   7.301  0.00  0.00    -0.027 C 
ATOM     38  C   LIG    1       24.998 -29.493   6.128  0.00  0.00    -0.076 C 
ATOM     39  C   LIG    1       25.247 -30.592   5.200  0.00  0.00    +0.038 C 
BRANCH  37  40
ATOM     40  C   LIG    1       24.037 -31.181   7.715  0.00  0.00    +0.031 C 
BRANCH  40  41
ATOM     41  C   LIG    1       23.918 -31.397   9.247  0.00  0.00    +0.034 C 
BRANCH  41  43
ATOM     42  C   LIG    1       21.486 -31.421  10.317  0.00  0.00    -0.027 C 
ATOM     43  C   LIG    1       22.727 -30.884  10.126  0.00  0.00    -0.076 C 
ATOM     44  C   LIG    1       23.168 -29.603  10.798  0.00  0.00    +0.038 C 
BRANCH  42  45
ATOM     45  C   LIG    1       20.203 -30.833  11.004  0.00  0.00    +0.031 C 
BRANCH  45  46
ATOM     46  C   LIG    1       20.093 -30.642  12.584  0.00  0.00    +0.034 C 
BRANCH  46  48
ATOM     47  C   LIG    1       21.928 -29.883  14.199  0.00  0.00    -0.023 C 
ATOM     48  C   LIG    1       20.881 -29.565  13.387  0.00  0.00    -0.076 C 
ATOM     49  C   LIG    1       20.478 -28.147  13.154  0.00  0.00    +0.038 C 
BRANCH  47  50
ATOM     50  C   LIG    1       22.954 -29.001  14.969  0.00  0.00    +0.066 C 
BRANCH  50  56
ATOM     51  C   LIG    1       26.402 -28.222  12.352  0.00  0.00    +0.213 C 
ATOM     52  C   LIG    1       25.736 -27.093  13.046  0.00  0.00    +0.227 C 
ATOM     53  O   LIG    1       26.344 -25.957  13.213  0.00  0.00    -0.284 OA
ATOM     54  C   LIG    1       24.379 -27.280  13.622  0.00  0.00    +0.007 C 
ATOM     55  C   LIG    1       23.419 -26.112  13.631  0.00  0.00    +0.048 C 
ATOM     56  C   LIG    1       24.178 -28.501  14.202  0.00  0.00    +0.013 C 
ATOM     57  C   LIG    1       25.327 -29.400  14.094  0.00  0.00    +0.228 C 
ATOM     58  O   LIG    1       25.627 -30.180  15.116  0.00  0.00    -0.284 OA
ATOM     59  C   LIG    1       26.143 -29.456  12.897  0.00  0.00    +0.213 C 
BRANCH  59  60
ATOM     60  O   LIG    1       26.711 -30.621  12.394  0.00  0.00    -0.488 OA
ATOM     61  C   LIG    1       25.835 -31.754  12.350  0.00  0.00    +0.277 C 
ENDBRANCH  59  60
BRANCH  51  63
ATOM     62  C   LIG    1       26.793 -28.495  10.000  0.00  0.00    +0.277 C 
ATOM     63  O   LIG    1       27.279 -28.108  11.285  0.00  0.00    -0.488 OA
ENDBRANCH  51  63
ENDBRANCH  50  56
ENDBRANCH  47  50
ENDBRANCH  46  48
ENDBRANCH  45  46
ENDBRANCH  42  45
ENDBRANCH  41  43
ENDBRANCH  40  41
ENDBRANCH  37  40
ENDBRANCH  36  38
ENDBRANCH  35  36
ENDBRANCH   1  35
TORSDOF 31
ENDMDL
MODEL 8
REMARK VINA RESULT:      -5.7      2.736     13.120
REMARK  Name = *****
REMARK                            x       y       z     vdW  Elec       q    Type
REMARK                         _______ _______ _______ _____ _____    ______ ____
ROOT
ATOM      1  C   LIG    1       25.473 -23.791   6.117  0.00  0.00    -0.027 C 
ATOM      2  C   LIG    1       24.190 -23.458   5.884  0.00  0.00    -0.076 C 
ATOM      3  C   LIG    1       22.985 -24.047   6.577  0.00  0.00    +0.038 C 
ENDROOT
BRANCH   2   4
ATOM      4  C   LIG    1       23.860 -22.633   4.691  0.00  0.00    +0.034 C 
BRANCH   4   5
ATOM      5  C   LIG    1       25.099 -22.096   3.995  0.00  0.00    +0.031 C 
BRANCH   5   6
ATOM      6  C   LIG    1       25.283 -20.646   4.323  0.00  0.00    -0.027 C 
ATOM      7  C   LIG    1       24.991 -19.667   3.456  0.00  0.00    -0.076 C 
ATOM      8  C   LIG    1       24.063 -20.017   2.347  0.00  0.00    +0.038 C 
BRANCH   7   9
ATOM      9  C   LIG    1       25.415 -18.232   3.669  0.00  0.00    +0.034 C 
BRANCH   9  10
ATOM     10  C   LIG    1       26.872 -17.776   3.434  0.00  0.00    +0.031 C 
BRANCH  10  11
ATOM     11  C   LIG    1       27.941 -17.693   4.531  0.00  0.00    -0.027 C 
ATOM     12  C   LIG    1       28.593 -18.617   5.282  0.00  0.00    -0.076 C 
ATOM     13  C   LIG    1       28.292 -20.076   5.245  0.00  0.00    +0.038 C 
BRANCH  12  14
ATOM     14  C   LIG    1       29.771 -18.341   6.210  0.00  0.00    +0.034 C 
BRANCH  14  15
ATOM     15  C   LIG    1       29.682 -18.517   7.734  0.00  0.00    +0.031 C 
BRANCH  15  16
ATOM     16  C   LIG    1       30.199 -19.820   8.291  0.00  0.00    -0.027 C 
ATOM     17  C   LIG    1       29.687 -21.088   8.411  0.00  0.00    -0.076 C 
ATOM     18  C   LIG    1       30.778 -22.003   9.094  0.00  0.00    +0.038 C 
BRANCH  17  19
ATOM     19  C   LIG    1       28.036 -21.465   8.128  0.00  0.00    +0.034 C 
BRANCH  19  20
ATOM     20  C   LIG    1       26.429 -20.751   8.389  0.00  0.00    +0.031 C 
BRANCH  20  21
ATOM     21  C   LIG    1       25.295 -20.205   7.142  0.00  0.00    -0.027 C 
ATOM     22  C   LIG    1       23.904 -20.306   7.028  0.00  0.00    -0.076 C 
ATOM     23  C   LIG    1       23.174 -20.983   8.086  0.00  0.00    +0.038 C 
BRANCH  22  24
ATOM     24  C   LIG    1       22.752 -20.073   5.929  0.00  0.00    +0.034 C 
BRANCH  24  25
ATOM     25  C   LIG    1       22.114 -18.590   5.721  0.00  0.00    +0.031 C 
BRANCH  25  26
ATOM     26  C   LIG    1       22.533 -17.535   4.685  0.00  0.00    -0.027 C 
ATOM     27  C   LIG    1       22.591 -16.209   4.847  0.00  0.00    -0.076 C 
ATOM     28  C   LIG    1       22.003 -15.627   6.042  0.00  0.00    +0.038 C 
BRANCH  27  29
ATOM     29  C   LIG    1       23.245 -15.229   3.907  0.00  0.00    +0.034 C 
BRANCH  29  30
ATOM     30  C   LIG    1       23.957 -14.011   4.522  0.00  0.00    +0.031 C 
BRANCH  30  31
ATOM     31  C   LIG    1       25.458 -13.878   4.504  0.00  0.00    -0.028 C 
ATOM     32  C   LIG    1       26.544 -13.933   3.706  0.00  0.00    -0.080 C 
ATOM     33  C   LIG    1       27.933 -13.873   4.245  0.00  0.00    +0.038 C 
ATOM     34  C   LIG    1       26.560 -14.125   2.284  0.00  0.00    +0.038 C 
ENDBRANCH  30  31
ENDBRANCH  29  30
ENDBRANCH  27  29
ENDBRANCH  25  26
ENDBRANCH  24  25
ENDBRANCH  22  24
ENDBRANCH  20  21
ENDBRANCH  19  20
ENDBRANCH  17  19
ENDBRANCH  15  16
ENDBRANCH  14  15
ENDBRANCH  12  14
ENDBRANCH  10  11
ENDBRANCH   9  10
ENDBRANCH   7   9
ENDBRANCH   5   6
ENDBRANCH   4   5
ENDBRANCH   2   4
BRANCH   1  35
ATOM     35  C   LIG    1       25.946 -24.849   7.065  0.00  0.00    +0.031 C 
BRANCH  35  36
ATOM     36  C   LIG    1       26.651 -26.090   6.481  0.00  0.00    +0.034 C 
BRANCH  36  38
ATOM     37  C   LIG    1       24.875 -27.875   6.337  0.00  0.00    -0.027 C 
ATOM     38  C   LIG    1       25.729 -27.031   5.741  0.00  0.00    -0.076 C 
ATOM     39  C   LIG    1       25.914 -27.157   4.298  0.00  0.00    +0.038 C 
BRANCH  37  40
ATOM     40  C   LIG    1       24.122 -28.952   5.605  0.00  0.00    +0.031 C 
BRANCH  40  41
ATOM     41  C   LIG    1       23.878 -30.247   6.422  0.00  0.00    +0.034 C 
BRANCH  41  43
ATOM     42  C   LIG    1       25.769 -31.435   7.862  0.00  0.00    -0.027 C 
ATOM     43  C   LIG    1       24.666 -30.643   7.717  0.00  0.00    -0.076 C 
ATOM     44  C   LIG    1       23.988 -29.976   8.892  0.00  0.00    +0.038 C 
BRANCH  42  45
ATOM     45  C   LIG    1       26.450 -32.029   9.145  0.00  0.00    +0.031 C 
BRANCH  45  46
ATOM     46  C   LIG    1       25.640 -32.876  10.227  0.00  0.00    +0.034 C 
BRANCH  46  48
ATOM     47  C   LIG    1       25.492 -31.396  12.311  0.00  0.00    -0.023 C 
ATOM     48  C   LIG    1       24.885 -32.247  11.436  0.00  0.00    -0.076 C 
ATOM     49  C   LIG    1       23.430 -32.564  11.539  0.00  0.00    +0.038 C 
BRANCH  47  50
ATOM     50  C   LIG    1       24.933 -30.532  13.479  0.00  0.00    +0.066 C 
BRANCH  50  56
ATOM     51  C   LIG    1       24.779 -26.141  13.679  0.00  0.00    +0.213 C 
ATOM     52  C   LIG    1       26.038 -26.814  13.274  0.00  0.00    +0.227 C 
ATOM     53  O   LIG    1       26.961 -26.173  12.624  0.00  0.00    -0.284 OA
ATOM     54  C   LIG    1       26.219 -28.263  13.552  0.00  0.00    +0.007 C 
ATOM     55  C   LIG    1       27.605 -28.781  13.865  0.00  0.00    +0.048 C 
ATOM     56  C   LIG    1       25.090 -29.014  13.379  0.00  0.00    +0.013 C 
ATOM     57  C   LIG    1       23.914 -28.232  13.002  0.00  0.00    +0.228 C 
ATOM     58  O   LIG    1       23.067 -28.733  12.123  0.00  0.00    -0.284 OA
ATOM     59  C   LIG    1       23.655 -26.922  13.567  0.00  0.00    +0.213 C 
BRANCH  59  60
ATOM     60  O   LIG    1       22.387 -26.441  13.873  0.00  0.00    -0.488 OA
ATOM     61  C   LIG    1       21.992 -26.593  15.242  0.00  0.00    +0.277 C 
ENDBRANCH  59  60
BRANCH  51  63
ATOM     62  C   LIG    1       25.153 -24.486  15.376  0.00  0.00    +0.277 C 
ATOM     63  O   LIG    1       24.666 -24.818  14.076  0.00  0.00    -0.488 OA
ENDBRANCH  51  63
ENDBRANCH  50  56
ENDBRANCH  47  50
ENDBRANCH  46  48
ENDBRANCH  45  46
ENDBRANCH  42  45
ENDBRANCH  41  43
ENDBRANCH  40  41
ENDBRANCH  37  40
ENDBRANCH  36  38
ENDBRANCH  35  36
ENDBRANCH   1  35
TORSDOF 31
ENDMDL
MODEL 9
REMARK VINA RESULT:      -5.7      3.745     14.533
REMARK  Name = *****
REMARK                            x       y       z     vdW  Elec       q    Type
REMARK                         _______ _______ _______ _____ _____    ______ ____
ROOT
ATOM      1  C   LIG    1       26.118 -28.636   8.084  0.00  0.00    -0.027 C 
ATOM      2  C   LIG    1       25.154 -29.346   7.470  0.00  0.00    -0.076 C 
ATOM      3  C   LIG    1       24.059 -30.127   8.157  0.00  0.00    +0.038 C 
ENDROOT
BRANCH   2   4
ATOM      4  C   LIG    1       25.273 -29.623   6.013  0.00  0.00    +0.034 C 
BRANCH   4   5
ATOM      5  C   LIG    1       24.973 -28.400   5.164  0.00  0.00    +0.031 C 
BRANCH   5   6
ATOM      6  C   LIG    1       25.671 -27.200   5.728  0.00  0.00    -0.027 C 
ATOM      7  C   LIG    1       25.092 -25.994   5.796  0.00  0.00    -0.076 C 
ATOM      8  C   LIG    1       23.607 -25.964   5.726  0.00  0.00    +0.038 C 
BRANCH   7   9
ATOM      9  C   LIG    1       25.864 -24.733   6.112  0.00  0.00    +0.034 C 
BRANCH   9  10
ATOM     10  C   LIG    1       25.494 -23.839   7.315  0.00  0.00    +0.031 C 
BRANCH  10  11
ATOM     11  C   LIG    1       26.329 -22.645   7.798  0.00  0.00    -0.027 C 
ATOM     12  C   LIG    1       26.042 -21.347   8.074  0.00  0.00    -0.076 C 
ATOM     13  C   LIG    1       24.706 -20.727   7.846  0.00  0.00    +0.038 C 
BRANCH  12  14
ATOM     14  C   LIG    1       26.990 -20.344   8.724  0.00  0.00    +0.034 C 
BRANCH  14  15
ATOM     15  C   LIG    1       28.516 -20.429   8.568  0.00  0.00    +0.031 C 
BRANCH  15  16
ATOM     16  C   LIG    1       29.312 -19.270   9.114  0.00  0.00    -0.027 C 
ATOM     17  C   LIG    1       30.047 -18.256   8.552  0.00  0.00    -0.076 C 
ATOM     18  C   LIG    1       30.625 -17.358   9.715  0.00  0.00    +0.038 C 
BRANCH  17  19
ATOM     19  C   LIG    1       30.471 -18.213   6.890  0.00  0.00    +0.034 C 
BRANCH  19  20
ATOM     20  C   LIG    1       29.686 -18.307   5.297  0.00  0.00    +0.031 C 
BRANCH  20  21
ATOM     21  C   LIG    1       27.955 -18.489   4.977  0.00  0.00    -0.027 C 
ATOM     22  C   LIG    1       27.114 -19.609   4.962  0.00  0.00    -0.076 C 
ATOM     23  C   LIG    1       27.697 -20.910   5.240  0.00  0.00    +0.038 C 
BRANCH  22  24
ATOM     24  C   LIG    1       25.620 -20.004   4.512  0.00  0.00    +0.034 C 
BRANCH  24  25
ATOM     25  C   LIG    1       24.814 -19.068   3.453  0.00  0.00    +0.031 C 
BRANCH  25  26
ATOM     26  C   LIG    1       24.225 -17.671   3.710  0.00  0.00    -0.027 C 
ATOM     27  C   LIG    1       23.025 -17.372   4.218  0.00  0.00    -0.076 C 
ATOM     28  C   LIG    1       22.046 -18.437   4.365  0.00  0.00    +0.038 C 
BRANCH  27  29
ATOM     29  C   LIG    1       22.578 -16.014   4.695  0.00  0.00    +0.034 C 
BRANCH  29  30
ATOM     30  C   LIG    1       23.191 -14.777   4.014  0.00  0.00    +0.031 C 
BRANCH  30  31
ATOM     31  C   LIG    1       24.549 -14.251   4.403  0.00  0.00    -0.028 C 
ATOM     32  C   LIG    1       25.815 -14.084   3.967  0.00  0.00    -0.080 C 
ATOM     33  C   LIG    1       26.909 -13.609   4.862  0.00  0.00    +0.038 C 
ATOM     34  C   LIG    1       26.325 -14.389   2.661  0.00  0.00    +0.038 C 
ENDBRANCH  30  31
ENDBRANCH  29  30
ENDBRANCH  27  29
ENDBRANCH  25  26
ENDBRANCH  24  25
ENDBRANCH  22  24
ENDBRANCH  20  21
ENDBRANCH  19  20
ENDBRANCH  17  19
ENDBRANCH  15  16
ENDBRANCH  14  15
ENDBRANCH  12  14
ENDBRANCH  10  11
ENDBRANCH   9  10
ENDBRANCH   7   9
ENDBRANCH   5   6
ENDBRANCH   4   5
ENDBRANCH   2   4
BRANCH   1  35
ATOM     35  C   LIG    1       26.323 -28.531   9.563  0.00  0.00    +0.031 C 
BRANCH  35  36
ATOM     36  C   LIG    1       26.621 -29.822  10.353  0.00  0.00    +0.034 C 
BRANCH  36  38
ATOM     37  C   LIG    1       26.416 -30.554  12.758  0.00  0.00    -0.027 C 
ATOM     38  C   LIG    1       25.931 -29.897  11.695  0.00  0.00    -0.076 C 
ATOM     39  C   LIG    1       24.568 -29.378  11.780  0.00  0.00    +0.038 C 
BRANCH  37  40
ATOM     40  C   LIG    1       25.627 -30.802  14.014  0.00  0.00    +0.031 C 
BRANCH  40  41
ATOM     41  C   LIG    1       25.144 -32.264  14.203  0.00  0.00    +0.034 C 
BRANCH  41  43
ATOM     42  C   LIG    1       23.912 -32.906  11.938  0.00  0.00    -0.027 C 
ATOM     43  C   LIG    1       24.088 -32.975  13.290  0.00  0.00    -0.076 C 
ATOM     44  C   LIG    1       23.207 -33.824  14.179  0.00  0.00    +0.038 C 
BRANCH  42  45
ATOM     45  C   LIG    1       22.745 -33.421  11.022  0.00  0.00    +0.031 C 
BRANCH  45  46
ATOM     46  C   LIG    1       21.601 -32.453  10.474  0.00  0.00    +0.034 C 
BRANCH  46  48
ATOM     47  C   LIG    1       19.995 -32.704  12.451  0.00  0.00    -0.023 C 
ATOM     48  C   LIG    1       20.273 -32.162  11.232  0.00  0.00    -0.076 C 
ATOM     49  C   LIG    1       19.348 -31.185  10.584  0.00  0.00    +0.038 C 
BRANCH  47  50
ATOM     50  C   LIG    1       18.838 -32.455  13.462  0.00  0.00    +0.066 C 
BRANCH  50  56
ATOM     51  C   LIG    1       18.896 -28.184  14.515  0.00  0.00    +0.213 C 
ATOM     52  C   LIG    1       17.652 -28.971  14.702  0.00  0.00    +0.227 C 
ATOM     53  O   LIG    1       16.712 -28.559  15.499  0.00  0.00    -0.284 OA
ATOM     54  C   LIG    1       17.503 -30.285  14.023  0.00  0.00    +0.007 C 
ATOM     55  C   LIG    1       16.130 -30.721  13.564  0.00  0.00    +0.048 C 
ATOM     56  C   LIG    1       18.647 -31.031  13.987  0.00  0.00    +0.013 C 
ATOM     57  C   LIG    1       19.805 -30.364  14.580  0.00  0.00    +0.228 C 
ATOM     58  O   LIG    1       20.661 -31.076  15.289  0.00  0.00    -0.284 OA
ATOM     59  C   LIG    1       20.036 -28.942  14.411  0.00  0.00    +0.213 C 
BRANCH  59  60
ATOM     60  O   LIG    1       21.295 -28.369  14.266  0.00  0.00    -0.488 OA
ATOM     61  C   LIG    1       21.579 -27.290  15.165  0.00  0.00    +0.277 C 
ENDBRANCH  59  60
BRANCH  51  63
ATOM     62  C   LIG    1       17.917 -26.087  13.882  0.00  0.00    +0.277 C 
ATOM     63  O   LIG    1       18.981 -26.801  14.510  0.00  0.00    -0.488 OA
ENDBRANCH  51  63
ENDBRANCH  50  56
ENDBRANCH  47  50
ENDBRANCH  46  48
ENDBRANCH  45  46
ENDBRANCH  42  45
ENDBRANCH  41  43
ENDBRANCH  40  41
ENDBRANCH  37  40
ENDBRANCH  36  38
ENDBRANCH  35  36
ENDBRANCH   1  35
TORSDOF 31
ENDMDL
