MODEL 1
REMARK VINA RESULT:      -8.3      0.000      0.000
REMARK  Name = *****
REMARK                            x       y       z     vdW  Elec       q    Type
REMARK                         _______ _______ _______ _____ _____    ______ ____
ROOT
ATOM      1  C   LIG    1       29.196 -20.739   7.499  0.00  0.00    +0.262 C 
ATOM      2  N   LIG    1       28.049 -19.980   7.611  0.00  0.00    -0.281 N 
ATOM      3  H   LIG    1       28.132 -19.134   8.171  0.00  0.00    +0.155 HD
ATOM      4  O   LIG    1       29.284 -21.811   6.907  0.00  0.00    -0.269 OA
ENDROOT
BRANCH   2   5
ATOM      5  C   LIG    1       26.769 -20.270   7.101  0.00  0.00    +0.034 A 
ATOM      6  C   LIG    1       26.590 -20.192   5.715  0.00  0.00    +0.024 A 
ATOM      7  C   LIG    1       25.334 -20.429   5.143  0.00  0.00    +0.014 A 
ATOM      8  C   LIG    1       24.233 -20.753   5.948  0.00  0.00    +0.055 A 
ATOM      9  C   LIG    1       24.422 -20.850   7.331  0.00  0.00    +0.014 A 
ATOM     10  C   LIG    1       25.677 -20.614   7.899  0.00  0.00    +0.024 A 
BRANCH   8  11
ATOM     11  C   LIG    1       22.878 -20.986   5.330  0.00  0.00    +0.417 C 
ATOM     12  F   LIG    1       22.957 -21.301   4.008  0.00  0.00    -0.166 F 
ATOM     13  F   LIG    1       22.078 -19.886   5.404  0.00  0.00    -0.166 F 
ATOM     14  F   LIG    1       22.177 -21.997   5.914  0.00  0.00    -0.166 F 
ENDBRANCH   8  11
ENDBRANCH   2   5
BRANCH   1  17
ATOM     15  C   LIG    1       32.042 -18.302   8.696  0.00  0.00    +0.087 C 
ATOM     16  C   LIG    1       30.805 -18.860   8.039  0.00  0.00    +0.113 C 
ATOM     17  C   LIG    1       30.431 -20.159   8.136  0.00  0.00    +0.150 C 
BRANCH  17  18
ATOM     18  C   LIG    1       31.195 -21.072   8.920  0.00  0.00    +0.108 C 
ATOM     19  N   LIG    1       31.878 -21.804   9.515  0.00  0.00    -0.191 NA
ENDBRANCH  17  18
BRANCH  16  20
ATOM     20  O   LIG    1       30.064 -17.940   7.306  0.00  0.00    -0.510 OA
ATOM     21  H   LIG    1       29.157 -17.902   7.669  0.00  0.00    +0.292 HD
ENDBRANCH  16  20
ENDBRANCH   1  17
TORSDOF 5
ENDMDL
MODEL 2
REMARK VINA RESULT:      -8.0      1.395      2.035
REMARK  Name = *****
REMARK                            x       y       z     vdW  Elec       q    Type
REMARK                         _______ _______ _______ _____ _____    ______ ____
ROOT
ATOM      1  C   LIG    1       29.175 -20.624   7.327  0.00  0.00    +0.262 C 
ATOM      2  N   LIG    1       28.127 -20.969   8.156  0.00  0.00    -0.281 N 
ATOM      3  H   LIG    1       28.311 -20.895   9.155  0.00  0.00    +0.155 HD
ATOM      4  O   LIG    1       29.165 -20.690   6.102  0.00  0.00    -0.269 OA
ENDROOT
BRANCH   2   5
ATOM      5  C   LIG    1       26.865 -21.471   7.786  0.00  0.00    +0.034 A 
ATOM      6  C   LIG    1       25.765 -20.615   7.907  0.00  0.00    +0.024 A 
ATOM      7  C   LIG    1       24.474 -21.061   7.595  0.00  0.00    +0.014 A 
ATOM      8  C   LIG    1       24.263 -22.374   7.151  0.00  0.00    +0.055 A 
ATOM      9  C   LIG    1       25.368 -23.220   7.012  0.00  0.00    +0.014 A 
ATOM     10  C   LIG    1       26.655 -22.771   7.324  0.00  0.00    +0.024 A 
BRANCH   8  11
ATOM     11  C   LIG    1       22.869 -22.857   6.836  0.00  0.00    +0.417 C 
ATOM     12  F   LIG    1       21.996 -22.627   7.855  0.00  0.00    -0.166 F 
ATOM     13  F   LIG    1       22.826 -24.199   6.603  0.00  0.00    -0.166 F 
ATOM     14  F   LIG    1       22.323 -22.270   5.735  0.00  0.00    -0.166 F 
ENDBRANCH   8  11
ENDBRANCH   2   5
BRANCH   1  17
ATOM     15  C   LIG    1       32.045 -18.291   8.672  0.00  0.00    +0.087 C 
ATOM     16  C   LIG    1       30.813 -18.800   7.966  0.00  0.00    +0.113 C 
ATOM     17  C   LIG    1       30.406 -20.092   8.014  0.00  0.00    +0.150 C 
BRANCH  17  18
ATOM     18  C   LIG    1       31.127 -21.045   8.791  0.00  0.00    +0.108 C 
ATOM     19  N   LIG    1       31.771 -21.773   9.433  0.00  0.00    -0.191 NA
ENDBRANCH  17  18
BRANCH  16  20
ATOM     20  O   LIG    1       30.114 -17.842   7.241  0.00  0.00    -0.510 OA
ATOM     21  H   LIG    1       29.367 -18.274   6.781  0.00  0.00    +0.292 HD
ENDBRANCH  16  20
ENDBRANCH   1  17
TORSDOF 5
ENDMDL
MODEL 3
REMARK VINA RESULT:      -7.5      5.729      7.493
REMARK  Name = *****
REMARK                            x       y       z     vdW  Elec       q    Type
REMARK                         _______ _______ _______ _____ _____    ______ ____
ROOT
ATOM      1  C   LIG    1       24.362 -26.802   5.982  0.00  0.00    +0.262 C 
ATOM      2  N   LIG    1       24.420 -25.693   6.802  0.00  0.00    -0.281 N 
ATOM      3  H   LIG    1       24.639 -25.878   7.779  0.00  0.00    +0.155 HD
ATOM      4  O   LIG    1       24.069 -26.791   4.790  0.00  0.00    -0.269 OA
ENDROOT
BRANCH   2   5
ATOM      5  C   LIG    1       24.147 -24.355   6.462  0.00  0.00    +0.034 A 
ATOM      6  C   LIG    1       22.889 -23.843   6.799  0.00  0.00    +0.024 A 
ATOM      7  C   LIG    1       22.536 -22.532   6.456  0.00  0.00    +0.014 A 
ATOM      8  C   LIG    1       23.439 -21.707   5.771  0.00  0.00    +0.055 A 
ATOM      9  C   LIG    1       24.703 -22.216   5.454  0.00  0.00    +0.014 A 
ATOM     10  C   LIG    1       25.053 -23.525   5.799  0.00  0.00    +0.024 A 
BRANCH   8  11
ATOM     11  C   LIG    1       23.047 -20.303   5.385  0.00  0.00    +0.417 C 
ATOM     12  F   LIG    1       22.767 -19.525   6.467  0.00  0.00    -0.166 F 
ATOM     13  F   LIG    1       21.930 -20.273   4.605  0.00  0.00    -0.166 F 
ATOM     14  F   LIG    1       24.008 -19.639   4.685  0.00  0.00    -0.166 F 
ENDBRANCH   8  11
ENDBRANCH   2   5
BRANCH   1  17
ATOM     15  C   LIG    1       24.587 -30.612   6.938  0.00  0.00    +0.087 C 
ATOM     16  C   LIG    1       24.194 -29.312   6.284  0.00  0.00    +0.113 C 
ATOM     17  C   LIG    1       24.729 -28.113   6.626  0.00  0.00    +0.150 C 
BRANCH  17  18
ATOM     18  C   LIG    1       25.745 -28.037   7.623  0.00  0.00    +0.108 C 
ATOM     19  N   LIG    1       26.534 -27.923   8.472  0.00  0.00    -0.191 NA
ENDBRANCH  17  18
BRANCH  16  20
ATOM     20  O   LIG    1       23.223 -29.421   5.296  0.00  0.00    -0.510 OA
ATOM     21  H   LIG    1       23.651 -29.688   4.458  0.00  0.00    +0.292 HD
ENDBRANCH  16  20
ENDBRANCH   1  17
TORSDOF 5
ENDMDL
MODEL 4
REMARK VINA RESULT:      -7.5      5.493      6.942
REMARK  Name = *****
REMARK                            x       y       z     vdW  Elec       q    Type
REMARK                         _______ _______ _______ _____ _____    ______ ____
ROOT
ATOM      1  C   LIG    1       24.074 -21.478   5.333  0.00  0.00    +0.262 C 
ATOM      2  N   LIG    1       25.011 -22.425   4.972  0.00  0.00    -0.281 N 
ATOM      3  H   LIG    1       25.650 -22.152   4.229  0.00  0.00    +0.155 HD
ATOM      4  O   LIG    1       23.192 -21.633   6.173  0.00  0.00    -0.269 OA
ENDROOT
BRANCH   2   5
ATOM      5  C   LIG    1       25.142 -23.738   5.461  0.00  0.00    +0.034 A 
ATOM      6  C   LIG    1       24.717 -24.784   4.634  0.00  0.00    +0.024 A 
ATOM      7  C   LIG    1       24.782 -26.113   5.072  0.00  0.00    +0.014 A 
ATOM      8  C   LIG    1       25.276 -26.419   6.348  0.00  0.00    +0.055 A 
ATOM      9  C   LIG    1       25.718 -25.372   7.164  0.00  0.00    +0.014 A 
ATOM     10  C   LIG    1       25.653 -24.047   6.723  0.00  0.00    +0.024 A 
BRANCH   8  11
ATOM     11  C   LIG    1       25.324 -27.849   6.824  0.00  0.00    +0.417 C 
ATOM     12  F   LIG    1       24.088 -28.344   7.109  0.00  0.00    -0.166 F 
ATOM     13  F   LIG    1       26.055 -27.992   7.964  0.00  0.00    -0.166 F 
ATOM     14  F   LIG    1       25.872 -28.709   5.921  0.00  0.00    -0.166 F 
ENDBRANCH   8  11
ENDBRANCH   2   5
BRANCH   1  17
ATOM     15  C   LIG    1       25.443 -18.296   3.468  0.00  0.00    +0.087 C 
ATOM     16  C   LIG    1       25.352 -19.632   4.160  0.00  0.00    +0.113 C 
ATOM     17  C   LIG    1       24.194 -20.142   4.648  0.00  0.00    +0.150 C 
BRANCH  17  18
ATOM     18  C   LIG    1       22.970 -19.429   4.487  0.00  0.00    +0.108 C 
ATOM     19  N   LIG    1       21.972 -18.832   4.429  0.00  0.00    -0.191 NA
ENDBRANCH  17  18
BRANCH  16  20
ATOM     20  O   LIG    1       26.556 -20.317   4.276  0.00  0.00    -0.510 OA
ATOM     21  H   LIG    1       27.203 -19.930   3.653  0.00  0.00    +0.292 HD
ENDBRANCH  16  20
ENDBRANCH   1  17
TORSDOF 5
ENDMDL
MODEL 5
REMARK VINA RESULT:      -7.4      5.703      7.435
REMARK  Name = *****
REMARK                            x       y       z     vdW  Elec       q    Type
REMARK                         _______ _______ _______ _____ _____    ______ ____
ROOT
ATOM      1  C   LIG    1       24.098 -22.554   5.980  0.00  0.00    +0.262 C 
ATOM      2  N   LIG    1       24.870 -23.542   5.404  0.00  0.00    -0.281 N 
ATOM      3  H   LIG    1       25.354 -23.281   4.547  0.00  0.00    +0.155 HD
ATOM      4  O   LIG    1       23.405 -22.687   6.985  0.00  0.00    -0.269 OA
ENDROOT
BRANCH   2   5
ATOM      5  C   LIG    1       25.011 -24.879   5.822  0.00  0.00    +0.034 A 
ATOM      6  C   LIG    1       24.121 -25.821   5.294  0.00  0.00    +0.024 A 
ATOM      7  C   LIG    1       24.179 -27.162   5.695  0.00  0.00    +0.014 A 
ATOM      8  C   LIG    1       25.133 -27.584   6.632  0.00  0.00    +0.055 A 
ATOM      9  C   LIG    1       26.033 -26.643   7.142  0.00  0.00    +0.014 A 
ATOM     10  C   LIG    1       25.974 -25.306   6.738  0.00  0.00    +0.024 A 
BRANCH   8  11
ATOM     11  C   LIG    1       25.178 -29.024   7.078  0.00  0.00    +0.417 C 
ATOM     12  F   LIG    1       26.009 -29.214   8.140  0.00  0.00    -0.166 F 
ATOM     13  F   LIG    1       25.628 -29.856   6.098  0.00  0.00    -0.166 F 
ATOM     14  F   LIG    1       23.966 -29.518   7.457  0.00  0.00    -0.166 F 
ENDBRANCH   8  11
ENDBRANCH   2   5
BRANCH   1  17
ATOM     15  C   LIG    1       23.181 -19.198   4.141  0.00  0.00    +0.087 C 
ATOM     16  C   LIG    1       23.092 -20.557   4.790  0.00  0.00    +0.113 C 
ATOM     17  C   LIG    1       24.161 -21.203   5.317  0.00  0.00    +0.150 C 
BRANCH  17  18
ATOM     18  C   LIG    1       25.447 -20.588   5.312  0.00  0.00    +0.108 C 
ATOM     19  N   LIG    1       26.519 -20.135   5.360  0.00  0.00    -0.191 NA
ENDBRANCH  17  18
BRANCH  16  20
ATOM     20  O   LIG    1       21.820 -21.117   4.807  0.00  0.00    -0.510 OA
ATOM     21  H   LIG    1       21.406 -20.940   5.675  0.00  0.00    +0.292 HD
ENDBRANCH  16  20
ENDBRANCH   1  17
TORSDOF 5
ENDMDL
MODEL 6
REMARK VINA RESULT:      -7.4      4.978      7.229
REMARK  Name = *****
REMARK                            x       y       z     vdW  Elec       q    Type
REMARK                         _______ _______ _______ _____ _____    ______ ____
ROOT
ATOM      1  C   LIG    1       26.162 -22.270   7.801  0.00  0.00    +0.262 C 
ATOM      2  N   LIG    1       27.174 -21.875   6.950  0.00  0.00    -0.281 N 
ATOM      3  H   LIG    1       27.165 -22.300   6.025  0.00  0.00    +0.155 HD
ATOM      4  O   LIG    1       26.030 -21.907   8.966  0.00  0.00    -0.269 OA
ENDROOT
BRANCH   2   5
ATOM      5  C   LIG    1       28.249 -21.010   7.231  0.00  0.00    +0.034 A 
ATOM      6  C   LIG    1       29.258 -21.484   8.079  0.00  0.00    +0.024 A 
ATOM      7  C   LIG    1       30.336 -20.664   8.433  0.00  0.00    +0.014 A 
ATOM      8  C   LIG    1       30.426 -19.353   7.942  0.00  0.00    +0.055 A 
ATOM      9  C   LIG    1       29.427 -18.892   7.079  0.00  0.00    +0.014 A 
ATOM     10  C   LIG    1       28.352 -19.714   6.726  0.00  0.00    +0.024 A 
BRANCH   8  11
ATOM     11  C   LIG    1       31.578 -18.467   8.343  0.00  0.00    +0.417 C 
ATOM     12  F   LIG    1       32.532 -18.384   7.375  0.00  0.00    -0.166 F 
ATOM     13  F   LIG    1       32.216 -18.919   9.458  0.00  0.00    -0.166 F 
ATOM     14  F   LIG    1       31.212 -17.184   8.618  0.00  0.00    -0.166 F 
ENDBRANCH   8  11
ENDBRANCH   2   5
BRANCH   1  17
ATOM     15  C   LIG    1       22.792 -23.873   6.555  0.00  0.00    +0.087 C 
ATOM     16  C   LIG    1       23.802 -22.933   7.164  0.00  0.00    +0.113 C 
ATOM     17  C   LIG    1       25.132 -23.195   7.209  0.00  0.00    +0.150 C 
BRANCH  17  18
ATOM     18  C   LIG    1       25.650 -24.390   6.630  0.00  0.00    +0.108 C 
ATOM     19  N   LIG    1       26.067 -25.399   6.224  0.00  0.00    -0.191 NA
ENDBRANCH  17  18
BRANCH  16  20
ATOM     20  O   LIG    1       23.271 -21.763   7.693  0.00  0.00    -0.510 OA
ATOM     21  H   LIG    1       22.361 -21.939   8.004  0.00  0.00    +0.292 HD
ENDBRANCH  16  20
ENDBRANCH   1  17
TORSDOF 5
ENDMDL
MODEL 7
REMARK VINA RESULT:      -7.4      4.731      7.326
REMARK  Name = *****
REMARK                            x       y       z     vdW  Elec       q    Type
REMARK                         _______ _______ _______ _____ _____    ______ ____
ROOT
ATOM      1  C   LIG    1       24.563 -21.096   6.882  0.00  0.00    +0.262 C 
ATOM      2  N   LIG    1       25.697 -21.124   6.096  0.00  0.00    -0.281 N 
ATOM      3  H   LIG    1       25.574 -21.496   5.157  0.00  0.00    +0.155 HD
ATOM      4  O   LIG    1       24.516 -20.728   8.052  0.00  0.00    -0.269 OA
ENDROOT
BRANCH   2   5
ATOM      5  C   LIG    1       27.008 -20.764   6.462  0.00  0.00    +0.034 A 
ATOM      6  C   LIG    1       27.608 -21.474   7.508  0.00  0.00    +0.024 A 
ATOM      7  C   LIG    1       28.895 -21.143   7.950  0.00  0.00    +0.014 A 
ATOM      8  C   LIG    1       29.607 -20.095   7.349  0.00  0.00    +0.055 A 
ATOM      9  C   LIG    1       29.011 -19.401   6.291  0.00  0.00    +0.014 A 
ATOM     10  C   LIG    1       27.727 -19.735   5.851  0.00  0.00    +0.024 A 
BRANCH   8  11
ATOM     11  C   LIG    1       30.984 -19.728   7.843  0.00  0.00    +0.417 C 
ATOM     12  F   LIG    1       31.562 -20.729   8.563  0.00  0.00    -0.166 F 
ATOM     13  F   LIG    1       30.968 -18.640   8.662  0.00  0.00    -0.166 F 
ATOM     14  F   LIG    1       31.862 -19.430   6.845  0.00  0.00    -0.166 F 
ENDBRANCH   8  11
ENDBRANCH   2   5
BRANCH   1  17
ATOM     15  C   LIG    1       21.325 -21.222   4.650  0.00  0.00    +0.087 C 
ATOM     16  C   LIG    1       22.595 -20.765   5.321  0.00  0.00    +0.113 C 
ATOM     17  C   LIG    1       23.287 -21.525   6.206  0.00  0.00    +0.150 C 
BRANCH  17  18
ATOM     18  C   LIG    1       22.847 -22.844   6.519  0.00  0.00    +0.108 C 
ATOM     19  N   LIG    1       22.550 -23.930   6.815  0.00  0.00    -0.191 NA
ENDBRANCH  17  18
BRANCH  16  20
ATOM     20  O   LIG    1       23.015 -19.486   4.974  0.00  0.00    -0.510 OA
ATOM     21  H   LIG    1       23.768 -19.233   5.544  0.00  0.00    +0.292 HD
ENDBRANCH  16  20
ENDBRANCH   1  17
TORSDOF 5
ENDMDL
MODEL 8
REMARK VINA RESULT:      -7.3      1.900      2.342
REMARK  Name = *****
REMARK                            x       y       z     vdW  Elec       q    Type
REMARK                         _______ _______ _______ _____ _____    ______ ____
ROOT
ATOM      1  C   LIG    1       28.835 -20.372   7.824  0.00  0.00    +0.262 C 
ATOM      2  N   LIG    1       27.657 -20.040   7.186  0.00  0.00    -0.281 N 
ATOM      3  H   LIG    1       27.633 -19.118   6.755  0.00  0.00    +0.155 HD
ATOM      4  O   LIG    1       29.042 -21.414   8.438  0.00  0.00    -0.269 OA
ENDROOT
BRANCH   2   5
ATOM      5  C   LIG    1       26.470 -20.794   7.119  0.00  0.00    +0.034 A 
ATOM      6  C   LIG    1       25.869 -20.947   5.865  0.00  0.00    +0.024 A 
ATOM      7  C   LIG    1       24.666 -21.652   5.731  0.00  0.00    +0.014 A 
ATOM      8  C   LIG    1       24.044 -22.220   6.852  0.00  0.00    +0.055 A 
ATOM      9  C   LIG    1       24.660 -22.082   8.101  0.00  0.00    +0.014 A 
ATOM     10  C   LIG    1       25.861 -21.379   8.230  0.00  0.00    +0.024 A 
BRANCH   8  11
ATOM     11  C   LIG    1       22.738 -22.959   6.706  0.00  0.00    +0.417 C 
ATOM     12  F   LIG    1       21.999 -22.508   5.655  0.00  0.00    -0.166 F 
ATOM     13  F   LIG    1       21.943 -22.828   7.805  0.00  0.00    -0.166 F 
ATOM     14  F   LIG    1       22.886 -24.299   6.512  0.00  0.00    -0.166 F 
ENDBRANCH   8  11
ENDBRANCH   2   5
BRANCH   1  17
ATOM     15  C   LIG    1       32.019 -18.162   8.500  0.00  0.00    +0.087 C 
ATOM     16  C   LIG    1       30.906 -19.169   8.647  0.00  0.00    +0.113 C 
ATOM     17  C   LIG    1       29.950 -19.366   7.707  0.00  0.00    +0.150 C 
BRANCH  17  18
ATOM     18  C   LIG    1       29.980 -18.632   6.485  0.00  0.00    +0.108 C 
ATOM     19  N   LIG    1       29.973 -18.091   5.453  0.00  0.00    -0.191 NA
ENDBRANCH  17  18
BRANCH  16  20
ATOM     20  O   LIG    1       30.920 -19.890   9.835  0.00  0.00    -0.510 OA
ATOM     21  H   LIG    1       31.657 -20.532   9.809  0.00  0.00    +0.292 HD
ENDBRANCH  16  20
ENDBRANCH   1  17
TORSDOF 5
ENDMDL
MODEL 9
REMARK VINA RESULT:      -7.2      5.822      7.325
REMARK  Name = *****
REMARK                            x       y       z     vdW  Elec       q    Type
REMARK                         _______ _______ _______ _____ _____    ______ ____
ROOT
ATOM      1  C   LIG    1       24.641 -22.940   6.097  0.00  0.00    +0.262 C 
ATOM      2  N   LIG    1       25.327 -24.011   5.560  0.00  0.00    -0.281 N 
ATOM      3  H   LIG    1       25.971 -23.787   4.804  0.00  0.00    +0.155 HD
ATOM      4  O   LIG    1       23.791 -23.011   6.980  0.00  0.00    -0.269 OA
ENDROOT
BRANCH   2   5
ATOM      5  C   LIG    1       25.191 -25.373   5.886  0.00  0.00    +0.034 A 
ATOM      6  C   LIG    1       26.030 -25.889   6.881  0.00  0.00    +0.024 A 
ATOM      7  C   LIG    1       25.977 -27.244   7.228  0.00  0.00    +0.014 A 
ATOM      8  C   LIG    1       25.078 -28.109   6.587  0.00  0.00    +0.055 A 
ATOM      9  C   LIG    1       24.228 -27.585   5.608  0.00  0.00    +0.014 A 
ATOM     10  C   LIG    1       24.283 -26.231   5.264  0.00  0.00    +0.024 A 
BRANCH   8  11
ATOM     11  C   LIG    1       25.039 -29.573   6.949  0.00  0.00    +0.417 C 
ATOM     12  F   LIG    1       25.365 -30.377   5.900  0.00  0.00    -0.166 F 
ATOM     13  F   LIG    1       23.802 -29.973   7.355  0.00  0.00    -0.166 F 
ATOM     14  F   LIG    1       25.889 -29.910   7.958  0.00  0.00    -0.166 F 
ENDBRANCH   8  11
ENDBRANCH   2   5
BRANCH   1  17
ATOM     15  C   LIG    1       24.964 -19.715   3.866  0.00  0.00    +0.087 C 
ATOM     16  C   LIG    1       24.581 -21.082   4.377  0.00  0.00    +0.113 C 
ATOM     17  C   LIG    1       25.016 -21.584   5.559  0.00  0.00    +0.150 C 
BRANCH  17  18
ATOM     18  C   LIG    1       25.849 -20.802   6.411  0.00  0.00    +0.108 C 
ATOM     19  N   LIG    1       26.528 -20.219   7.157  0.00  0.00    -0.191 NA
ENDBRANCH  17  18
BRANCH  16  20
ATOM     20  O   LIG    1       23.745 -21.809   3.539  0.00  0.00    -0.510 OA
ATOM     21  H   LIG    1       23.150 -22.360   4.085  0.00  0.00    +0.292 HD
ENDBRANCH  16  20
ENDBRANCH   1  17
TORSDOF 5
ENDMDL
