MODEL 1
REMARK VINA RESULT:      -5.2      0.000      0.000
REMARK  Name = *****
REMARK                            x       y       z     vdW  Elec       q    Type
REMARK                         _______ _______ _______ _____ _____    ______ ____
ROOT
ATOM      1  C   LIG    1       24.178 -19.239   3.822  0.00  0.00    +0.064 C 
ATOM      2  C   LIG    1       24.932 -20.521   4.346  0.00  0.00    +0.039 C 
ATOM      3  C   LIG    1       23.781 -21.323   5.032  0.00  0.00    -0.002 C 
ATOM      4  C   LIG    1       22.570 -20.955   4.169  0.00  0.00    +0.009 C 
ATOM      5  C   LIG    1       23.361 -20.688   6.369  0.00  0.00    +0.004 C 
ATOM      6  C   LIG    1       22.715 -19.366   5.933  0.00  0.00    +0.005 C 
ATOM      7  C   LIG    1       22.747 -19.450   4.396  0.00  0.00    +0.007 C 
ENDROOT
BRANCH   2   8
ATOM      8  C   LIG    1       26.185 -20.438   5.199  0.00  0.00    -0.043 A 
ATOM      9  C   LIG    1       27.200 -19.531   4.846  0.00  0.00    +0.004 A 
ATOM     10  C   LIG    1       28.382 -19.451   5.588  0.00  0.00    +0.000 A 
ATOM     11  C   LIG    1       28.571 -20.274   6.695  0.00  0.00    +0.000 A 
ATOM     12  C   LIG    1       27.576 -21.175   7.062  0.00  0.00    +0.000 A 
ATOM     13  C   LIG    1       26.403 -21.256   6.314  0.00  0.00    +0.004 A 
ENDBRANCH   2   8
BRANCH   1  14
ATOM     14  N   LIG    1       24.722 -17.900   4.048  0.00  0.00    -0.313 NA
ATOM     15  H   LIG    1       23.970 -17.213   4.025  0.00  0.00    +0.122 HD
BRANCH  14  17
ATOM     16  C   LIG    1       26.337 -16.189   3.331  0.00  0.00    +0.020 C 
ATOM     17  C   LIG    1       25.726 -17.551   3.036  0.00  0.00    +0.077 C 
ENDBRANCH  14  17
ENDBRANCH   1  14
TORSDOF 3
ENDMDL
MODEL 2
REMARK VINA RESULT:      -4.8      1.224      1.278
REMARK  Name = *****
REMARK                            x       y       z     vdW  Elec       q    Type
REMARK                         _______ _______ _______ _____ _____    ______ ____
ROOT
ATOM      1  C   LIG    1       23.836 -19.603   4.083  0.00  0.00    +0.064 C 
ATOM      2  C   LIG    1       24.892 -20.649   4.609  0.00  0.00    +0.039 C 
ATOM      3  C   LIG    1       24.018 -21.571   5.518  0.00  0.00    -0.002 C 
ATOM      4  C   LIG    1       22.664 -21.542   4.802  0.00  0.00    +0.009 C 
ATOM      5  C   LIG    1       23.639 -20.877   6.838  0.00  0.00    +0.004 C 
ATOM      6  C   LIG    1       22.689 -19.762   6.380  0.00  0.00    +0.005 C 
ATOM      7  C   LIG    1       22.556 -20.014   4.867  0.00  0.00    +0.007 C 
ENDROOT
BRANCH   2   8
ATOM      8  C   LIG    1       26.193 -20.232   5.269  0.00  0.00    -0.043 A 
ATOM      9  C   LIG    1       27.026 -19.302   4.623  0.00  0.00    +0.004 A 
ATOM     10  C   LIG    1       28.249 -18.919   5.184  0.00  0.00    +0.000 A 
ATOM     11  C   LIG    1       28.659 -19.458   6.400  0.00  0.00    +0.000 A 
ATOM     12  C   LIG    1       27.847 -20.377   7.057  0.00  0.00    +0.000 A 
ATOM     13  C   LIG    1       26.633 -20.761   6.490  0.00  0.00    +0.004 A 
ENDBRANCH   2   8
BRANCH   1  14
ATOM     14  N   LIG    1       24.119 -18.168   4.111  0.00  0.00    -0.313 NA
ATOM     15  H   LIG    1       24.676 -17.942   4.934  0.00  0.00    +0.122 HD
BRANCH  14  17
ATOM     16  C   LIG    1       23.187 -15.911   4.404  0.00  0.00    +0.020 C 
ATOM     17  C   LIG    1       22.883 -17.377   4.134  0.00  0.00    +0.077 C 
ENDBRANCH  14  17
ENDBRANCH   1  14
TORSDOF 3
ENDMDL
MODEL 3
REMARK VINA RESULT:      -3.5      3.344      5.807
REMARK  Name = *****
REMARK                            x       y       z     vdW  Elec       q    Type
REMARK                         _______ _______ _______ _____ _____    ______ ____
ROOT
ATOM      1  C   LIG    1       26.298 -13.160   4.059  0.00  0.00    +0.064 C 
ATOM      2  C   LIG    1       25.955 -14.381   3.124  0.00  0.00    +0.039 C 
ATOM      3  C   LIG    1       24.414 -14.222   2.927  0.00  0.00    -0.002 C 
ATOM      4  C   LIG    1       24.237 -12.701   2.969  0.00  0.00    +0.009 C 
ATOM      5  C   LIG    1       23.633 -14.619   4.192  0.00  0.00    +0.004 C 
ATOM      6  C   LIG    1       24.018 -13.519   5.192  0.00  0.00    +0.005 C 
ATOM      7  C   LIG    1       24.889 -12.569   4.350  0.00  0.00    +0.007 C 
ENDROOT
BRANCH   2   8
ATOM      8  C   LIG    1       26.364 -15.804   3.458  0.00  0.00    -0.043 A 
ATOM      9  C   LIG    1       25.492 -16.862   3.148  0.00  0.00    +0.004 A 
ATOM     10  C   LIG    1       25.820 -18.183   3.471  0.00  0.00    +0.000 A 
ATOM     11  C   LIG    1       27.024 -18.469   4.107  0.00  0.00    +0.000 A 
ATOM     12  C   LIG    1       27.902 -17.435   4.419  0.00  0.00    +0.000 A 
ATOM     13  C   LIG    1       27.567 -16.120   4.102  0.00  0.00    +0.004 A 
ENDBRANCH   2   8
BRANCH   1  14
ATOM     14  N   LIG    1       27.131 -13.334   5.250  0.00  0.00    -0.313 NA
ATOM     15  H   LIG    1       26.612 -13.049   6.080  0.00  0.00    +0.122 HD
BRANCH  14  17
ATOM     16  C   LIG    1       29.051 -12.766   3.821  0.00  0.00    +0.020 C 
ATOM     17  C   LIG    1       28.366 -12.545   5.161  0.00  0.00    +0.077 C 
ENDBRANCH  14  17
ENDBRANCH   1  14
TORSDOF 3
ENDMDL
MODEL 4
REMARK VINA RESULT:      -3.5      3.338      5.788
REMARK  Name = *****
REMARK                            x       y       z     vdW  Elec       q    Type
REMARK                         _______ _______ _______ _____ _____    ______ ____
ROOT
ATOM      1  C   LIG    1       26.341 -13.172   4.019  0.00  0.00    +0.064 C 
ATOM      2  C   LIG    1       25.972 -14.401   3.104  0.00  0.00    +0.039 C 
ATOM      3  C   LIG    1       24.440 -14.199   2.883  0.00  0.00    -0.002 C 
ATOM      4  C   LIG    1       24.309 -12.673   2.891  0.00  0.00    +0.009 C 
ATOM      5  C   LIG    1       23.631 -14.545   4.145  0.00  0.00    +0.004 C 
ATOM      6  C   LIG    1       24.037 -13.437   5.127  0.00  0.00    +0.005 C 
ATOM      7  C   LIG    1       24.947 -12.532   4.278  0.00  0.00    +0.007 C 
ENDROOT
BRANCH   2   8
ATOM      8  C   LIG    1       26.333 -15.829   3.472  0.00  0.00    -0.043 A 
ATOM      9  C   LIG    1       27.563 -16.088   4.103  0.00  0.00    +0.004 A 
ATOM     10  C   LIG    1       27.944 -17.394   4.427  0.00  0.00    +0.000 A 
ATOM     11  C   LIG    1       27.103 -18.462   4.127  0.00  0.00    +0.000 A 
ATOM     12  C   LIG    1       25.880 -18.226   3.507  0.00  0.00    +0.000 A 
ATOM     13  C   LIG    1       25.509 -16.923   3.179  0.00  0.00    +0.004 A 
ENDBRANCH   2   8
BRANCH   1  14
ATOM     14  N   LIG    1       27.153 -13.346   5.223  0.00  0.00    -0.313 NA
ATOM     15  H   LIG    1       26.619 -13.063   6.044  0.00  0.00    +0.122 HD
BRANCH  14  17
ATOM     16  C   LIG    1       29.071 -12.735   3.810  0.00  0.00    +0.020 C 
ATOM     17  C   LIG    1       28.388 -12.557   5.158  0.00  0.00    +0.077 C 
ENDBRANCH  14  17
ENDBRANCH   1  14
TORSDOF 3
ENDMDL
MODEL 5
REMARK VINA RESULT:      -3.5      1.801      4.172
REMARK  Name = *****
REMARK                            x       y       z     vdW  Elec       q    Type
REMARK                         _______ _______ _______ _____ _____    ______ ____
ROOT
ATOM      1  C   LIG    1       22.818 -19.690   3.993  0.00  0.00    +0.064 C 
ATOM      2  C   LIG    1       24.233 -19.252   3.452  0.00  0.00    +0.039 C 
ATOM      3  C   LIG    1       25.178 -20.304   4.113  0.00  0.00    -0.002 C 
ATOM      4  C   LIG    1       24.288 -21.549   4.171  0.00  0.00    +0.009 C 
ATOM      5  C   LIG    1       25.367 -20.038   5.616  0.00  0.00    +0.004 C 
ATOM      6  C   LIG    1       23.977 -20.339   6.195  0.00  0.00    +0.005 C 
ATOM      7  C   LIG    1       23.189 -20.841   4.971  0.00  0.00    +0.007 C 
ENDROOT
BRANCH   2   8
ATOM      8  C   LIG    1       24.750 -17.831   3.579  0.00  0.00    -0.043 A 
ATOM      9  C   LIG    1       23.869 -16.810   3.977  0.00  0.00    +0.004 A 
ATOM     10  C   LIG    1       24.301 -15.483   4.073  0.00  0.00    +0.000 A 
ATOM     11  C   LIG    1       25.620 -15.154   3.773  0.00  0.00    +0.000 A 
ATOM     12  C   LIG    1       26.508 -16.151   3.380  0.00  0.00    +0.000 A 
ATOM     13  C   LIG    1       26.070 -17.470   3.279  0.00  0.00    +0.004 A 
ENDBRANCH   2   8
BRANCH   1  14
ATOM     14  N   LIG    1       21.888 -18.707   4.550  0.00  0.00    -0.313 NA
ATOM     15  H   LIG    1       21.333 -19.137   5.289  0.00  0.00    +0.122 HD
BRANCH  14  17
ATOM     16  C   LIG    1       19.722 -19.015   3.426  0.00  0.00    +0.020 C 
ATOM     17  C   LIG    1       20.988 -18.176   3.520  0.00  0.00    +0.077 C 
ENDBRANCH  14  17
ENDBRANCH   1  14
TORSDOF 3
ENDMDL
MODEL 6
REMARK VINA RESULT:      -3.4      1.669      3.910
REMARK  Name = *****
REMARK                            x       y       z     vdW  Elec       q    Type
REMARK                         _______ _______ _______ _____ _____    ______ ____
ROOT
ATOM      1  C   LIG    1       23.059 -19.486   4.237  0.00  0.00    +0.064 C 
ATOM      2  C   LIG    1       24.403 -19.199   3.466  0.00  0.00    +0.039 C 
ATOM      3  C   LIG    1       25.314 -20.375   3.943  0.00  0.00    -0.002 C 
ATOM      4  C   LIG    1       24.303 -21.509   4.139  0.00  0.00    +0.009 C 
ATOM      5  C   LIG    1       25.784 -20.180   5.395  0.00  0.00    +0.004 C 
ATOM      6  C   LIG    1       24.486 -20.335   6.200  0.00  0.00    +0.005 C 
ATOM      7  C   LIG    1       23.448 -20.703   5.124  0.00  0.00    +0.007 C 
ENDROOT
BRANCH   2   8
ATOM      8  C   LIG    1       25.102 -17.853   3.519  0.00  0.00    -0.043 A 
ATOM      9  C   LIG    1       26.507 -17.803   3.489  0.00  0.00    +0.004 A 
ATOM     10  C   LIG    1       27.186 -16.584   3.569  0.00  0.00    +0.000 A 
ATOM     11  C   LIG    1       26.473 -15.393   3.680  0.00  0.00    +0.000 A 
ATOM     12  C   LIG    1       25.083 -15.421   3.708  0.00  0.00    +0.000 A 
ATOM     13  C   LIG    1       24.411 -16.640   3.635  0.00  0.00    +0.004 A 
ENDBRANCH   2   8
BRANCH   1  14
ATOM     14  N   LIG    1       22.361 -18.420   4.956  0.00  0.00    -0.313 NA
ATOM     15  H   LIG    1       21.927 -18.798   5.798  0.00  0.00    +0.122 HD
BRANCH  14  17
ATOM     16  C   LIG    1       20.481 -18.854   3.430  0.00  0.00    +0.020 C 
ATOM     17  C   LIG    1       21.328 -17.796   4.121  0.00  0.00    +0.077 C 
ENDBRANCH  14  17
ENDBRANCH   1  14
TORSDOF 3
ENDMDL
MODEL 7
REMARK VINA RESULT:      -3.3      1.512      2.571
REMARK  Name = *****
REMARK                            x       y       z     vdW  Elec       q    Type
REMARK                         _______ _______ _______ _____ _____    ______ ____
ROOT
ATOM      1  C   LIG    1       22.753 -19.176   4.371  0.00  0.00    +0.064 C 
ATOM      2  C   LIG    1       24.097 -19.761   3.793  0.00  0.00    +0.039 C 
ATOM      3  C   LIG    1       24.082 -21.224   4.341  0.00  0.00    -0.002 C 
ATOM      4  C   LIG    1       22.584 -21.546   4.362  0.00  0.00    +0.009 C 
ATOM      5  C   LIG    1       24.388 -21.272   5.847  0.00  0.00    +0.004 C 
ATOM      6  C   LIG    1       23.155 -20.605   6.471  0.00  0.00    +0.005 C 
ATOM      7  C   LIG    1       22.244 -20.349   5.256  0.00  0.00    +0.007 C 
ENDROOT
BRANCH   2   8
ATOM      8  C   LIG    1       25.436 -19.073   3.984  0.00  0.00    -0.043 A 
ATOM      9  C   LIG    1       26.426 -19.697   4.764  0.00  0.00    +0.004 A 
ATOM     10  C   LIG    1       27.660 -19.078   4.990  0.00  0.00    +0.000 A 
ATOM     11  C   LIG    1       27.925 -17.826   4.442  0.00  0.00    +0.000 A 
ATOM     12  C   LIG    1       26.959 -17.195   3.665  0.00  0.00    +0.000 A 
ATOM     13  C   LIG    1       25.729 -17.812   3.449  0.00  0.00    +0.004 A 
ENDBRANCH   2   8
BRANCH   1  14
ATOM     14  N   LIG    1       22.723 -17.871   5.032  0.00  0.00    -0.313 NA
ATOM     15  H   LIG    1       22.043 -17.883   5.791  0.00  0.00    +0.122 HD
BRANCH  14  17
ATOM     16  C   LIG    1       23.094 -15.509   4.454  0.00  0.00    +0.020 C 
ATOM     17  C   LIG    1       22.375 -16.800   4.092  0.00  0.00    +0.077 C 
ENDBRANCH  14  17
ENDBRANCH   1  14
TORSDOF 3
ENDMDL
MODEL 8
REMARK VINA RESULT:      -3.1      2.398      5.843
REMARK  Name = *****
REMARK                            x       y       z     vdW  Elec       q    Type
REMARK                         _______ _______ _______ _____ _____    ______ ____
ROOT
ATOM      1  C   LIG    1       27.592 -15.488   3.853  0.00  0.00    +0.064 C 
ATOM      2  C   LIG    1       26.235 -15.674   3.073  0.00  0.00    +0.039 C 
ATOM      3  C   LIG    1       25.674 -14.216   3.037  0.00  0.00    -0.002 C 
ATOM      4  C   LIG    1       26.955 -13.378   2.964  0.00  0.00    +0.009 C 
ATOM      5  C   LIG    1       25.142 -13.775   4.411  0.00  0.00    +0.004 C 
ATOM      6  C   LIG    1       26.416 -13.686   5.261  0.00  0.00    +0.005 C 
ATOM      7  C   LIG    1       27.535 -13.984   4.247  0.00  0.00    +0.007 C 
ENDROOT
BRANCH   2   8
ATOM      8  C   LIG    1       25.193 -16.698   3.483  0.00  0.00    -0.043 A 
ATOM      9  C   LIG    1       25.477 -18.067   3.337  0.00  0.00    +0.004 A 
ATOM     10  C   LIG    1       24.529 -19.039   3.672  0.00  0.00    +0.000 A 
ATOM     11  C   LIG    1       23.281 -18.659   4.159  0.00  0.00    +0.000 A 
ATOM     12  C   LIG    1       22.982 -17.309   4.313  0.00  0.00    +0.000 A 
ATOM     13  C   LIG    1       23.928 -16.345   3.971  0.00  0.00    +0.004 A 
ENDBRANCH   2   8
BRANCH   1  14
ATOM     14  N   LIG    1       27.956 -16.381   4.954  0.00  0.00    -0.313 NA
ATOM     15  H   LIG    1       28.490 -15.867   5.654  0.00  0.00    +0.122 HD
BRANCH  14  17
ATOM     16  C   LIG    1       29.181 -18.398   5.646  0.00  0.00    +0.020 C 
ATOM     17  C   LIG    1       28.754 -17.518   4.481  0.00  0.00    +0.077 C 
ENDBRANCH  14  17
ENDBRANCH   1  14
TORSDOF 3
ENDMDL
MODEL 9
REMARK VINA RESULT:      -3.0      3.927      6.765
REMARK  Name = *****
REMARK                            x       y       z     vdW  Elec       q    Type
REMARK                         _______ _______ _______ _____ _____    ______ ____
ROOT
ATOM      1  C   LIG    1       25.679 -12.943   3.286  0.00  0.00    +0.064 C 
ATOM      2  C   LIG    1       25.365 -13.929   4.475  0.00  0.00    +0.039 C 
ATOM      3  C   LIG    1       26.791 -14.247   5.025  0.00  0.00    -0.002 C 
ATOM      4  C   LIG    1       27.539 -12.935   4.766  0.00  0.00    +0.009 C 
ATOM      5  C   LIG    1       27.568 -15.188   4.087  0.00  0.00    +0.004 C 
ATOM      6  C   LIG    1       27.809 -14.316   2.848  0.00  0.00    +0.005 C 
ATOM      7  C   LIG    1       27.234 -12.949   3.264  0.00  0.00    +0.007 C 
ENDROOT
BRANCH   2   8
ATOM      8  C   LIG    1       24.509 -15.170   4.301  0.00  0.00    -0.043 A 
ATOM      9  C   LIG    1       23.156 -15.133   4.683  0.00  0.00    +0.004 A 
ATOM     10  C   LIG    1       22.345 -16.266   4.569  0.00  0.00    +0.000 A 
ATOM     11  C   LIG    1       22.871 -17.455   4.071  0.00  0.00    +0.000 A 
ATOM     12  C   LIG    1       24.206 -17.510   3.684  0.00  0.00    +0.000 A 
ATOM     13  C   LIG    1       25.012 -16.380   3.807  0.00  0.00    +0.004 A 
ENDBRANCH   2   8
BRANCH   1  14
ATOM     14  N   LIG    1       25.061 -13.126   1.973  0.00  0.00    -0.313 NA
ATOM     15  H   LIG    1       25.734 -12.905   1.240  0.00  0.00    +0.122 HD
BRANCH  14  17
ATOM     16  C   LIG    1       23.635 -11.447   3.066  0.00  0.00    +0.020 C 
ATOM     17  C   LIG    1       23.877 -12.273   1.812  0.00  0.00    +0.077 C 
ENDBRANCH  14  17
ENDBRANCH   1  14
TORSDOF 3
ENDMDL
