MODEL 1
REMARK VINA RESULT:      -5.3      0.000      0.000
REMARK  Name = *****
REMARK                            x       y       z     vdW  Elec       q    Type
REMARK                         _______ _______ _______ _____ _____    ______ ____
ROOT
ATOM      1  N   LIG    1       22.715 -19.091   4.857  0.00  0.00    -0.168 N 
ATOM      2  H   LIG    1       21.976 -19.129   5.549  0.00  0.00    +0.178 HD
ATOM      3  C   LIG    1       23.061 -17.811   4.433  0.00  0.00    +0.333 C 
ATOM      4  N   LIG    1       24.177 -17.702   3.630  0.00  0.00    -0.231 N 
ATOM      5  H   LIG    1       24.795 -18.512   3.577  0.00  0.00    +0.171 HD
ATOM      6  O   LIG    1       22.359 -16.880   4.801  0.00  0.00    -0.250 OA
ENDROOT
BRANCH   4   7
ATOM      7  N   LIG    1       24.662 -16.445   3.244  0.00  0.00    -0.225 NA
ATOM      8  C   LIG    1       24.282 -15.380   4.177  0.00  0.00    +0.109 C 
ATOM      9  C   LIG    1       25.194 -14.250   3.719  0.00  0.00    +0.009 C 
ATOM     10  C   LIG    1       26.512 -14.969   3.423  0.00  0.00    +0.009 C 
ATOM     11  C   LIG    1       27.338 -14.750   4.688  0.00  0.00    +0.005 C 
ATOM     12  C   LIG    1       26.976 -13.333   5.102  0.00  0.00    +0.001 C 
ATOM     13  C   LIG    1       25.489 -13.195   4.782  0.00  0.00    +0.005 C 
ATOM     14  C   LIG    1       26.132 -16.424   3.161  0.00  0.00    +0.109 C 
ENDBRANCH   4   7
BRANCH   1  15
ATOM     15  S   LIG    1       23.444 -20.529   4.511  0.00  0.00    +0.076 S 
ATOM     16  O   LIG    1       22.751 -21.570   5.240  0.00  0.00    -0.150 OA
ATOM     17  O   LIG    1       23.620 -20.587   3.077  0.00  0.00    -0.150 OA
BRANCH  15  22
ATOM     18  C   LIG    1       29.030 -20.115   6.842  0.00  0.00    +0.044 C 
ATOM     19  C   LIG    1       27.629 -20.144   6.302  0.00  0.00    -0.050 A 
ATOM     20  C   LIG    1       27.367 -19.694   5.002  0.00  0.00    +0.005 A 
ATOM     21  C   LIG    1       26.082 -19.787   4.466  0.00  0.00    +0.029 A 
ATOM     22  C   LIG    1       25.052 -20.332   5.236  0.00  0.00    +0.109 A 
ATOM     23  C   LIG    1       25.297 -20.785   6.535  0.00  0.00    +0.029 A 
ATOM     24  C   LIG    1       26.587 -20.694   7.062  0.00  0.00    +0.005 A 
ENDBRANCH  15  22
ENDBRANCH   1  15
TORSDOF 3
ENDMDL
MODEL 2
REMARK VINA RESULT:      -4.5      1.839      2.394
REMARK  Name = *****
REMARK                            x       y       z     vdW  Elec       q    Type
REMARK                         _______ _______ _______ _____ _____    ______ ____
ROOT
ATOM      1  N   LIG    1       21.926 -17.317   5.119  0.00  0.00    -0.168 N 
ATOM      2  H   LIG    1       21.368 -17.541   5.935  0.00  0.00    +0.178 HD
ATOM      3  C   LIG    1       22.479 -16.039   5.116  0.00  0.00    +0.333 C 
ATOM      4  N   LIG    1       23.386 -15.756   4.116  0.00  0.00    -0.231 N 
ATOM      5  H   LIG    1       23.757 -16.545   3.586  0.00  0.00    +0.171 HD
ATOM      6  O   LIG    1       22.128 -15.264   5.994  0.00  0.00    -0.250 OA
ENDROOT
BRANCH   4   7
ATOM      7  N   LIG    1       24.074 -14.536   4.097  0.00  0.00    -0.225 NA
ATOM      8  C   LIG    1       25.183 -14.494   5.054  0.00  0.00    +0.109 C 
ATOM      9  C   LIG    1       25.926 -13.250   4.587  0.00  0.00    +0.009 C 
ATOM     10  C   LIG    1       25.855 -13.357   3.063  0.00  0.00    +0.009 C 
ATOM     11  C   LIG    1       27.200 -13.967   2.677  0.00  0.00    +0.005 C 
ATOM     12  C   LIG    1       28.172 -13.313   3.648  0.00  0.00    +0.001 C 
ATOM     13  C   LIG    1       27.405 -13.209   4.964  0.00  0.00    +0.005 C 
ATOM     14  C   LIG    1       24.651 -14.249   2.774  0.00  0.00    +0.109 C 
ENDBRANCH   4   7
BRANCH   1  15
ATOM     15  S   LIG    1       22.181 -18.559   4.065  0.00  0.00    +0.076 S 
ATOM     16  O   LIG    1       20.975 -19.359   4.014  0.00  0.00    -0.150 OA
ATOM     17  O   LIG    1       22.776 -17.996   2.874  0.00  0.00    -0.150 OA
BRANCH  15  22
ATOM     18  C   LIG    1       26.511 -21.572   7.062  0.00  0.00    +0.044 C 
ATOM     19  C   LIG    1       25.426 -20.895   6.274  0.00  0.00    -0.050 A 
ATOM     20  C   LIG    1       24.125 -20.824   6.788  0.00  0.00    +0.005 A 
ATOM     21  C   LIG    1       23.127 -20.134   6.099  0.00  0.00    +0.029 A 
ATOM     22  C   LIG    1       23.434 -19.511   4.886  0.00  0.00    +0.109 A 
ATOM     23  C   LIG    1       24.726 -19.574   4.359  0.00  0.00    +0.029 A 
ATOM     24  C   LIG    1       25.720 -20.262   5.059  0.00  0.00    +0.005 A 
ENDBRANCH  15  22
ENDBRANCH   1  15
TORSDOF 3
ENDMDL
MODEL 3
REMARK VINA RESULT:      -3.4      3.211      6.875
REMARK  Name = *****
REMARK                            x       y       z     vdW  Elec       q    Type
REMARK                         _______ _______ _______ _____ _____    ______ ____
ROOT
ATOM      1  N   LIG    1       27.797 -15.651   4.050  0.00  0.00    -0.168 N 
ATOM      2  H   LIG    1       28.443 -15.506   4.818  0.00  0.00    +0.178 HD
ATOM      3  C   LIG    1       27.191 -16.904   4.019  0.00  0.00    +0.333 C 
ATOM      4  N   LIG    1       26.177 -17.082   3.101  0.00  0.00    -0.231 N 
ATOM      5  H   LIG    1       25.789 -16.244   2.666  0.00  0.00    +0.171 HD
ATOM      6  O   LIG    1       27.595 -17.752   4.802  0.00  0.00    -0.250 OA
ENDROOT
BRANCH   4   7
ATOM      7  N   LIG    1       25.438 -18.273   3.071  0.00  0.00    -0.225 NA
ATOM      8  C   LIG    1       25.881 -19.240   4.080  0.00  0.00    +0.109 C 
ATOM      9  C   LIG    1       24.733 -20.240   4.050  0.00  0.00    +0.009 C 
ATOM     10  C   LIG    1       23.498 -19.345   3.919  0.00  0.00    +0.009 C 
ATOM     11  C   LIG    1       22.986 -19.221   5.352  0.00  0.00    +0.005 C 
ATOM     12  C   LIG    1       23.233 -20.604   5.933  0.00  0.00    +0.001 C 
ATOM     13  C   LIG    1       24.561 -21.055   5.329  0.00  0.00    +0.005 C 
ATOM     14  C   LIG    1       24.006 -18.038   3.314  0.00  0.00    +0.109 C 
ENDBRANCH   4   7
BRANCH   1  15
ATOM     15  S   LIG    1       27.491 -14.329   3.114  0.00  0.00    +0.076 S 
ATOM     16  O   LIG    1       28.632 -13.441   3.205  0.00  0.00    -0.150 OA
ATOM     17  O   LIG    1       26.995 -14.808   1.844  0.00  0.00    -0.150 OA
BRANCH  15  22
ATOM     18  C   LIG    1       22.902 -11.447   5.842  0.00  0.00    +0.044 C 
ATOM     19  C   LIG    1       24.016 -12.230   5.209  0.00  0.00    -0.050 A 
ATOM     20  C   LIG    1       23.846 -12.793   3.938  0.00  0.00    +0.005 A 
ATOM     21  C   LIG    1       24.900 -13.459   3.311  0.00  0.00    +0.029 A 
ATOM     22  C   LIG    1       26.133 -13.562   3.960  0.00  0.00    +0.109 A 
ATOM     23  C   LIG    1       26.319 -13.005   5.228  0.00  0.00    +0.029 A 
ATOM     24  C   LIG    1       25.260 -12.336   5.846  0.00  0.00    +0.005 A 
ENDBRANCH  15  22
ENDBRANCH   1  15
TORSDOF 3
ENDMDL
