MODEL 1
REMARK VINA RESULT:      -9.5      0.000      0.000
REMARK  Name = *****
REMARK                            x       y       z     vdW  Elec       q    Type
REMARK                         _______ _______ _______ _____ _____    ______ ____
ROOT
ATOM      1  C   LIG    1       26.542 -21.075   8.212  0.00  0.00    +0.151 C 
ENDROOT
BRANCH   1   2
ATOM      2  O   LIG    1       25.897 -21.191   9.489  0.00  0.00    -0.389 OA
ATOM      3  H   LIG    1       26.437 -21.706  10.102  0.00  0.00    +0.210 HD
ENDBRANCH   1   2
BRANCH   1   4
ATOM      4  C   LIG    1       27.986 -21.598   8.351  0.00  0.00    +0.142 C 
BRANCH   4   5
ATOM      5  N   LIG    1       29.092 -20.618   8.104  0.00  0.00    -0.174 NA
BRANCH   5   6
ATOM      6  S   LIG    1       30.670 -20.746   8.756  0.00  0.00    +0.061 S 
ATOM      7  O   LIG    1       31.593 -20.990   7.670  0.00  0.00    -0.153 OA
ATOM      8  O   LIG    1       30.713 -21.545   9.965  0.00  0.00    -0.153 OA
BRANCH   6   9
ATOM      9  C   LIG    1       30.986 -19.089   9.333  0.00  0.00    +0.106 A 
ATOM     10  C   LIG    1       31.877 -18.284   8.624  0.00  0.00    +0.030 A 
ATOM     11  C   LIG    1       32.292 -17.080   9.187  0.00  0.00    +0.024 A 
ATOM     12  C   LIG    1       31.751 -16.628  10.396  0.00  0.00    +0.025 A 
ATOM     13  C   LIG    1       30.788 -17.410  11.045  0.00  0.00    +0.024 A 
ATOM     14  C   LIG    1       30.386 -18.634  10.508  0.00  0.00    +0.030 A 
BRANCH  12  15
ATOM     15  N   LIG    1       32.354 -15.561  11.069  0.00  0.00    -0.358 N 
ATOM     16  H   LIG    1       31.719 -15.009  11.636  0.00  0.00    +0.142 HD
ATOM     17  H   LIG    1       33.207 -15.805  11.560  0.00  0.00    +0.142 HD
ENDBRANCH  12  15
ENDBRANCH   6   9
ENDBRANCH   5   6
BRANCH   5  18
ATOM     18  C   LIG    1       28.671 -19.364   7.389  0.00  0.00    +0.112 C 
BRANCH  18  20
ATOM     19  C   LIG    1       27.654 -19.467   5.059  0.00  0.00    +0.008 C 
ATOM     20  C   LIG    1       28.955 -19.360   5.870  0.00  0.00    -0.002 C 
ATOM     21  C   LIG    1       29.676 -18.105   5.386  0.00  0.00    +0.008 C 
ENDBRANCH  18  20
ENDBRANCH   5  18
ENDBRANCH   4   5
ENDBRANCH   1   4
BRANCH   1  22
ATOM     22  C   LIG    1       25.731 -21.795   7.106  0.00  0.00    +0.110 C 
BRANCH  22  23
ATOM     23  N   LIG    1       25.790 -23.241   7.266  0.00  0.00    -0.275 N 
ATOM     24  H   LIG    1       25.950 -23.659   8.172  0.00  0.00    +0.152 HD
ATOM     25  C   LIG    1       25.318 -24.101   6.333  0.00  0.00    +0.401 C 
ATOM     26  O   LIG    1       25.091 -23.839   5.148  0.00  0.00    -0.227 OA
BRANCH  25  27
ATOM     27  O   LIG    1       25.231 -25.318   6.889  0.00  0.00    -0.445 OA
BRANCH  27  28
ATOM     28  C   LIG    1       26.184 -26.273   6.402  0.00  0.00    +0.206 C 
ATOM     29  C   LIG    1       25.842 -26.759   5.003  0.00  0.00    +0.204 C 
ATOM     30  O   LIG    1       24.909 -27.850   5.141  0.00  0.00    -0.376 OA
ATOM     31  C   LIG    1       24.749 -28.124   6.538  0.00  0.00    +0.163 C 
ATOM     32  C   LIG    1       25.949 -27.513   7.234  0.00  0.00    +0.075 C 
ENDBRANCH  27  28
ENDBRANCH  25  27
ENDBRANCH  22  23
BRANCH  22  33
ATOM     33  C   LIG    1       24.256 -21.319   7.117  0.00  0.00    +0.060 C 
BRANCH  33  34
ATOM     34  C   LIG    1       23.872 -20.551   5.875  0.00  0.00    -0.045 A 
ATOM     35  C   LIG    1       24.682 -20.598   4.730  0.00  0.00    +0.003 A 
ATOM     36  C   LIG    1       24.356 -19.849   3.601  0.00  0.00    +0.000 A 
ATOM     37  C   LIG    1       23.208 -19.061   3.599  0.00  0.00    +0.000 A 
ATOM     38  C   LIG    1       22.394 -19.009   4.730  0.00  0.00    +0.000 A 
ATOM     39  C   LIG    1       22.729 -19.743   5.868  0.00  0.00    +0.003 A 
ENDBRANCH  33  34
ENDBRANCH  22  33
ENDBRANCH   1  22
TORSDOF 14
ENDMDL
MODEL 2
REMARK VINA RESULT:      -8.1      1.402      2.221
REMARK  Name = *****
REMARK                            x       y       z     vdW  Elec       q    Type
REMARK                         _______ _______ _______ _____ _____    ______ ____
ROOT
ATOM      1  C   LIG    1       26.864 -21.068   8.090  0.00  0.00    +0.151 C 
ENDROOT
BRANCH   1   2
ATOM      2  O   LIG    1       27.699 -22.024   8.759  0.00  0.00    -0.389 OA
ATOM      3  H   LIG    1       27.657 -22.885   8.321  0.00  0.00    +0.210 HD
ENDBRANCH   1   2
BRANCH   1   4
ATOM      4  C   LIG    1       27.765 -19.964   7.504  0.00  0.00    +0.142 C 
BRANCH   4   5
ATOM      5  N   LIG    1       29.246 -20.161   7.619  0.00  0.00    -0.174 NA
BRANCH   5   6
ATOM      6  S   LIG    1       30.421 -19.010   7.143  0.00  0.00    +0.061 S 
ATOM      7  O   LIG    1       29.765 -17.985   6.361  0.00  0.00    -0.153 OA
ATOM      8  O   LIG    1       31.652 -19.623   6.683  0.00  0.00    -0.153 OA
BRANCH   6   9
ATOM      9  C   LIG    1       30.876 -18.257   8.694  0.00  0.00    +0.106 A 
ATOM     10  C   LIG    1       29.920 -18.156   9.703  0.00  0.00    +0.030 A 
ATOM     11  C   LIG    1       30.203 -17.380  10.824  0.00  0.00    +0.024 A 
ATOM     12  C   LIG    1       31.461 -16.791  10.991  0.00  0.00    +0.025 A 
ATOM     13  C   LIG    1       32.438 -16.983  10.007  0.00  0.00    +0.024 A 
ATOM     14  C   LIG    1       32.158 -17.732   8.864  0.00  0.00    +0.030 A 
BRANCH  12  15
ATOM     15  N   LIG    1       31.646 -15.818  11.979  0.00  0.00    -0.358 N 
ATOM     16  H   LIG    1       31.041 -15.919  12.787  0.00  0.00    +0.142 HD
ATOM     17  H   LIG    1       32.615 -15.658  12.231  0.00  0.00    +0.142 HD
ENDBRANCH  12  15
ENDBRANCH   6   9
ENDBRANCH   5   6
BRANCH   5  18
ATOM     18  C   LIG    1       29.666 -21.553   8.002  0.00  0.00    +0.112 C 
BRANCH  18  20
ATOM     19  C   LIG    1       30.695 -21.807  10.315  0.00  0.00    +0.008 C 
ATOM     20  C   LIG    1       30.978 -21.631   8.814  0.00  0.00    -0.002 C 
ATOM     21  C   LIG    1       31.886 -22.784   8.397  0.00  0.00    +0.008 C 
ENDBRANCH  18  20
ENDBRANCH   5  18
ENDBRANCH   4   5
ENDBRANCH   1   4
BRANCH   1  22
ATOM     22  C   LIG    1       25.964 -21.754   7.031  0.00  0.00    +0.110 C 
BRANCH  22  23
ATOM     23  N   LIG    1       25.970 -23.201   7.191  0.00  0.00    -0.275 N 
ATOM     24  H   LIG    1       26.187 -23.626   8.083  0.00  0.00    +0.152 HD
ATOM     25  C   LIG    1       25.383 -24.039   6.305  0.00  0.00    +0.401 C 
ATOM     26  O   LIG    1       25.069 -23.767   5.143  0.00  0.00    -0.227 OA
BRANCH  25  27
ATOM     27  O   LIG    1       25.288 -25.250   6.872  0.00  0.00    -0.445 OA
BRANCH  27  28
ATOM     28  C   LIG    1       26.231 -26.217   6.388  0.00  0.00    +0.206 C 
ATOM     29  C   LIG    1       25.859 -26.740   5.011  0.00  0.00    +0.204 C 
ATOM     30  O   LIG    1       24.930 -27.827   5.198  0.00  0.00    -0.376 OA
ATOM     31  C   LIG    1       24.802 -28.064   6.604  0.00  0.00    +0.163 C 
ATOM     32  C   LIG    1       26.016 -27.435   7.257  0.00  0.00    +0.075 C 
ENDBRANCH  27  28
ENDBRANCH  25  27
ENDBRANCH  22  23
BRANCH  22  33
ATOM     33  C   LIG    1       24.512 -21.216   7.121  0.00  0.00    +0.060 C 
BRANCH  33  34
ATOM     34  C   LIG    1       24.091 -20.440   5.896  0.00  0.00    -0.045 A 
ATOM     35  C   LIG    1       25.006 -20.191   4.862  0.00  0.00    +0.003 A 
ATOM     36  C   LIG    1       24.633 -19.432   3.755  0.00  0.00    +0.000 A 
ATOM     37  C   LIG    1       23.337 -18.930   3.662  0.00  0.00    +0.000 A 
ATOM     38  C   LIG    1       22.419 -19.173   4.684  0.00  0.00    +0.000 A 
ATOM     39  C   LIG    1       22.796 -19.917   5.801  0.00  0.00    +0.003 A 
ENDBRANCH  33  34
ENDBRANCH  22  33
ENDBRANCH   1  22
TORSDOF 14
ENDMDL
MODEL 3
REMARK VINA RESULT:      -7.7      3.033      9.224
REMARK  Name = *****
REMARK                            x       y       z     vdW  Elec       q    Type
REMARK                         _______ _______ _______ _____ _____    ______ ____
ROOT
ATOM      1  C   LIG    1       24.585 -24.515   6.902  0.00  0.00    +0.151 C 
ENDROOT
BRANCH   1   2
ATOM      2  O   LIG    1       23.864 -24.947   5.739  0.00  0.00    -0.389 OA
ATOM      3  H   LIG    1       23.768 -24.224   5.105  0.00  0.00    +0.210 HD
ENDBRANCH   1   2
BRANCH   1   4
ATOM      4  C   LIG    1       25.865 -25.366   7.022  0.00  0.00    +0.142 C 
BRANCH   4   5
ATOM      5  N   LIG    1       25.752 -26.819   6.677  0.00  0.00    -0.174 NA
BRANCH   5   6
ATOM      6  S   LIG    1       25.884 -27.457   5.094  0.00  0.00    +0.061 S 
ATOM      7  O   LIG    1       27.288 -27.564   4.762  0.00  0.00    -0.153 OA
ATOM      8  O   LIG    1       24.943 -26.859   4.168  0.00  0.00    -0.153 OA
BRANCH   6   9
ATOM      9  C   LIG    1       25.279 -29.122   5.296  0.00  0.00    +0.106 A 
ATOM     10  C   LIG    1       23.989 -29.319   5.786  0.00  0.00    +0.030 A 
ATOM     11  C   LIG    1       23.594 -30.604   6.149  0.00  0.00    +0.024 A 
ATOM     12  C   LIG    1       24.436 -31.701   5.935  0.00  0.00    +0.025 A 
ATOM     13  C   LIG    1       25.693 -31.492   5.356  0.00  0.00    +0.024 A 
ATOM     14  C   LIG    1       26.114 -30.205   5.015  0.00  0.00    +0.030 A 
BRANCH  12  15
ATOM     15  N   LIG    1       24.137 -32.931   6.531  0.00  0.00    -0.358 N 
ATOM     16  H   LIG    1       23.152 -33.080   6.716  0.00  0.00    +0.142 HD
ATOM     17  H   LIG    1       24.579 -33.728   6.086  0.00  0.00    +0.142 HD
ENDBRANCH  12  15
ENDBRANCH   6   9
ENDBRANCH   5   6
BRANCH   5  18
ATOM     18  C   LIG    1       25.300 -27.699   7.810  0.00  0.00    +0.112 C 
BRANCH  18  20
ATOM     19  C   LIG    1       26.619 -27.868   9.979  0.00  0.00    +0.008 C 
ATOM     20  C   LIG    1       26.440 -28.426   8.558  0.00  0.00    -0.002 C 
ATOM     21  C   LIG    1       26.218 -29.929   8.698  0.00  0.00    +0.008 C 
ENDBRANCH  18  20
ENDBRANCH   5  18
ENDBRANCH   4   5
ENDBRANCH   1   4
BRANCH   1  22
ATOM     22  C   LIG    1       24.861 -22.991   6.858  0.00  0.00    +0.110 C 
BRANCH  22  23
ATOM     23  N   LIG    1       26.010 -22.639   7.681  0.00  0.00    -0.275 N 
ATOM     24  H   LIG    1       26.889 -23.128   7.585  0.00  0.00    +0.152 HD
ATOM     25  C   LIG    1       26.095 -21.470   8.358  0.00  0.00    +0.401 C 
ATOM     26  O   LIG    1       25.155 -20.722   8.643  0.00  0.00    -0.227 OA
BRANCH  25  27
ATOM     27  O   LIG    1       27.365 -21.307   8.756  0.00  0.00    -0.445 OA
BRANCH  27  28
ATOM     28  C   LIG    1       28.341 -21.395   7.708  0.00  0.00    +0.206 C 
ATOM     29  C   LIG    1       29.757 -21.489   8.252  0.00  0.00    +0.204 C 
ATOM     30  O   LIG    1       30.219 -20.144   8.487  0.00  0.00    -0.376 OA
ATOM     31  C   LIG    1       29.212 -19.240   8.019  0.00  0.00    +0.163 C 
ATOM     32  C   LIG    1       28.339 -20.028   7.063  0.00  0.00    +0.075 C 
ENDBRANCH  27  28
ENDBRANCH  25  27
ENDBRANCH  22  23
BRANCH  22  33
ATOM     33  C   LIG    1       25.091 -22.523   5.397  0.00  0.00    +0.060 C 
BRANCH  33  34
ATOM     34  C   LIG    1       24.343 -21.257   5.056  0.00  0.00    -0.045 A 
ATOM     35  C   LIG    1       23.155 -20.930   5.728  0.00  0.00    +0.003 A 
ATOM     36  C   LIG    1       22.437 -19.788   5.379  0.00  0.00    +0.000 A 
ATOM     37  C   LIG    1       22.908 -18.953   4.368  0.00  0.00    +0.000 A 
ATOM     38  C   LIG    1       24.089 -19.269   3.696  0.00  0.00    +0.000 A 
ATOM     39  C   LIG    1       24.799 -20.420   4.031  0.00  0.00    +0.003 A 
ENDBRANCH  33  34
ENDBRANCH  22  33
ENDBRANCH   1  22
TORSDOF 14
ENDMDL
MODEL 4
REMARK VINA RESULT:      -7.4      2.584      8.364
REMARK  Name = *****
REMARK                            x       y       z     vdW  Elec       q    Type
REMARK                         _______ _______ _______ _____ _____    ______ ____
ROOT
ATOM      1  C   LIG    1       28.005 -19.950   6.094  0.00  0.00    +0.151 C 
ENDROOT
BRANCH   1   2
ATOM      2  O   LIG    1       28.986 -20.984   6.264  0.00  0.00    -0.389 OA
ATOM      3  H   LIG    1       29.627 -20.973   5.541  0.00  0.00    +0.210 HD
ENDBRANCH   1   2
BRANCH   1   4
ATOM      4  C   LIG    1       26.910 -20.141   7.161  0.00  0.00    +0.142 C 
BRANCH   4   5
ATOM      5  N   LIG    1       25.743 -21.007   6.794  0.00  0.00    -0.174 NA
BRANCH   5   6
ATOM      6  S   LIG    1       24.890 -22.007   7.890  0.00  0.00    +0.061 S 
ATOM      7  O   LIG    1       23.518 -21.552   7.949  0.00  0.00    -0.153 OA
ATOM      8  O   LIG    1       25.638 -22.276   9.102  0.00  0.00    -0.153 OA
BRANCH   6   9
ATOM      9  C   LIG    1       24.871 -23.578   7.047  0.00  0.00    +0.106 A 
ATOM     10  C   LIG    1       23.652 -24.103   6.621  0.00  0.00    +0.030 A 
ATOM     11  C   LIG    1       23.607 -25.417   6.163  0.00  0.00    +0.024 A 
ATOM     12  C   LIG    1       24.777 -26.172   6.033  0.00  0.00    +0.025 A 
ATOM     13  C   LIG    1       26.003 -25.593   6.379  0.00  0.00    +0.024 A 
ATOM     14  C   LIG    1       26.060 -24.287   6.869  0.00  0.00    +0.030 A 
BRANCH  12  15
ATOM     15  N   LIG    1       24.692 -27.553   5.820  0.00  0.00    -0.358 N 
ATOM     16  H   LIG    1       23.981 -28.020   6.372  0.00  0.00    +0.142 HD
ATOM     17  H   LIG    1       24.673 -27.824   4.843  0.00  0.00    +0.142 HD
ENDBRANCH  12  15
ENDBRANCH   6   9
ENDBRANCH   5   6
BRANCH   5  18
ATOM     18  C   LIG    1       25.478 -21.107   5.317  0.00  0.00    +0.112 C 
BRANCH  18  20
ATOM     19  C   LIG    1       24.443 -20.092   3.226  0.00  0.00    +0.008 C 
ATOM     20  C   LIG    1       24.510 -20.039   4.761  0.00  0.00    -0.002 C 
ATOM     21  C   LIG    1       23.079 -20.185   5.271  0.00  0.00    +0.008 C 
ENDBRANCH  18  20
ENDBRANCH   5  18
ENDBRANCH   4   5
ENDBRANCH   1   4
BRANCH   1  22
ATOM     22  C   LIG    1       28.658 -18.546   6.127  0.00  0.00    +0.110 C 
BRANCH  22  23
ATOM     23  N   LIG    1       29.919 -18.568   6.855  0.00  0.00    -0.275 N 
ATOM     24  H   LIG    1       30.773 -18.234   6.429  0.00  0.00    +0.152 HD
ATOM     25  C   LIG    1       29.987 -18.705   8.200  0.00  0.00    +0.401 C 
ATOM     26  O   LIG    1       29.094 -19.137   8.935  0.00  0.00    -0.227 OA
BRANCH  25  27
ATOM     27  O   LIG    1       31.228 -18.383   8.593  0.00  0.00    -0.445 OA
BRANCH  27  28
ATOM     28  C   LIG    1       31.395 -17.018   9.001  0.00  0.00    +0.206 C 
ATOM     29  C   LIG    1       32.782 -16.754   9.562  0.00  0.00    +0.204 C 
ATOM     30  O   LIG    1       32.757 -17.105  10.960  0.00  0.00    -0.376 OA
ATOM     31  C   LIG    1       31.414 -17.463  11.304  0.00  0.00    +0.163 C 
ATOM     32  C   LIG    1       30.524 -16.871  10.229  0.00  0.00    +0.075 C 
ENDBRANCH  27  28
ENDBRANCH  25  27
ENDBRANCH  22  23
BRANCH  22  33
ATOM     33  C   LIG    1       28.886 -18.017   4.687  0.00  0.00    +0.060 C 
BRANCH  33  34
ATOM     34  C   LIG    1       27.852 -17.003   4.258  0.00  0.00    -0.045 A 
ATOM     35  C   LIG    1       26.667 -17.417   3.633  0.00  0.00    +0.003 A 
ATOM     36  C   LIG    1       25.736 -16.480   3.191  0.00  0.00    +0.000 A 
ATOM     37  C   LIG    1       25.973 -15.121   3.386  0.00  0.00    +0.000 A 
ATOM     38  C   LIG    1       27.147 -14.699   4.009  0.00  0.00    +0.000 A 
ATOM     39  C   LIG    1       28.089 -15.635   4.435  0.00  0.00    +0.003 A 
ENDBRANCH  33  34
ENDBRANCH  22  33
ENDBRANCH   1  22
TORSDOF 14
ENDMDL
MODEL 5
REMARK VINA RESULT:      -7.4      4.278      8.105
REMARK  Name = *****
REMARK                            x       y       z     vdW  Elec       q    Type
REMARK                         _______ _______ _______ _____ _____    ______ ____
ROOT
ATOM      1  C   LIG    1       26.081 -26.012   6.537  0.00  0.00    +0.151 C 
ENDROOT
BRANCH   1   2
ATOM      2  O   LIG    1       26.991 -26.186   5.441  0.00  0.00    -0.389 OA
ATOM      3  H   LIG    1       26.721 -25.652   4.682  0.00  0.00    +0.210 HD
ENDBRANCH   1   2
BRANCH   1   4
ATOM      4  C   LIG    1       24.954 -25.063   6.085  0.00  0.00    +0.142 C 
BRANCH   4   5
ATOM      5  N   LIG    1       24.719 -23.839   6.918  0.00  0.00    -0.174 NA
BRANCH   5   6
ATOM      6  S   LIG    1       23.249 -22.962   6.965  0.00  0.00    +0.061 S 
ATOM      7  O   LIG    1       23.170 -22.274   8.235  0.00  0.00    -0.153 OA
ATOM      8  O   LIG    1       22.125 -23.726   6.461  0.00  0.00    -0.153 OA
BRANCH   6   9
ATOM      9  C   LIG    1       23.504 -21.711   5.721  0.00  0.00    +0.106 A 
ATOM     10  C   LIG    1       24.438 -21.942   4.712  0.00  0.00    +0.030 A 
ATOM     11  C   LIG    1       24.797 -20.890   3.873  0.00  0.00    +0.024 A 
ATOM     12  C   LIG    1       24.162 -19.647   3.968  0.00  0.00    +0.025 A 
ATOM     13  C   LIG    1       23.161 -19.465   4.930  0.00  0.00    +0.024 A 
ATOM     14  C   LIG    1       22.813 -20.502   5.798  0.00  0.00    +0.030 A 
BRANCH  12  15
ATOM     15  N   LIG    1       24.701 -18.539   3.304  0.00  0.00    -0.358 N 
ATOM     16  H   LIG    1       25.018 -17.796   3.916  0.00  0.00    +0.142 HD
ATOM     17  H   LIG    1       25.378 -18.773   2.585  0.00  0.00    +0.142 HD
ENDBRANCH  12  15
ENDBRANCH   6   9
ENDBRANCH   5   6
BRANCH   5  18
ATOM     18  C   LIG    1       25.950 -23.286   7.581  0.00  0.00    +0.112 C 
BRANCH  18  20
ATOM     19  C   LIG    1       25.985 -20.978   8.652  0.00  0.00    +0.008 C 
ATOM     20  C   LIG    1       26.182 -21.776   7.353  0.00  0.00    -0.002 C 
ATOM     21  C   LIG    1       27.579 -21.443   6.838  0.00  0.00    +0.008 C 
ENDBRANCH  18  20
ENDBRANCH   5  18
ENDBRANCH   4   5
ENDBRANCH   1   4
BRANCH   1  22
ATOM     22  C   LIG    1       25.563 -27.377   7.058  0.00  0.00    +0.110 C 
BRANCH  22  23
ATOM     23  N   LIG    1       25.775 -28.431   6.075  0.00  0.00    -0.275 N 
ATOM     24  H   LIG    1       26.705 -28.770   5.867  0.00  0.00    +0.152 HD
ATOM     25  C   LIG    1       24.779 -29.237   5.639  0.00  0.00    +0.401 C 
ATOM     26  O   LIG    1       23.568 -29.016   5.733  0.00  0.00    -0.227 OA
BRANCH  25  27
ATOM     27  O   LIG    1       25.331 -30.276   4.997  0.00  0.00    -0.445 OA
BRANCH  27  28
ATOM     28  C   LIG    1       25.795 -31.333   5.848  0.00  0.00    +0.206 C 
ATOM     29  C   LIG    1       26.491 -32.434   5.066  0.00  0.00    +0.204 C 
ATOM     30  O   LIG    1       25.472 -33.341   4.598  0.00  0.00    -0.376 OA
ATOM     31  C   LIG    1       24.217 -32.915   5.139  0.00  0.00    +0.163 C 
ATOM     32  C   LIG    1       24.540 -32.027   6.324  0.00  0.00    +0.075 C 
ENDBRANCH  27  28
ENDBRANCH  25  27
ENDBRANCH  22  23
BRANCH  22  33
ATOM     33  C   LIG    1       26.259 -27.748   8.393  0.00  0.00    +0.060 C 
BRANCH  33  34
ATOM     34  C   LIG    1       25.846 -29.102   8.919  0.00  0.00    -0.045 A 
ATOM     35  C   LIG    1       24.494 -29.392   9.155  0.00  0.00    +0.003 A 
ATOM     36  C   LIG    1       24.117 -30.623   9.687  0.00  0.00    +0.000 A 
ATOM     37  C   LIG    1       25.086 -31.582   9.973  0.00  0.00    +0.000 A 
ATOM     38  C   LIG    1       26.433 -31.304   9.741  0.00  0.00    +0.000 A 
ATOM     39  C   LIG    1       26.814 -30.066   9.225  0.00  0.00    +0.003 A 
ENDBRANCH  33  34
ENDBRANCH  22  33
ENDBRANCH   1  22
TORSDOF 14
ENDMDL
MODEL 6
REMARK VINA RESULT:      -7.3      2.239      5.077
REMARK  Name = *****
REMARK                            x       y       z     vdW  Elec       q    Type
REMARK                         _______ _______ _______ _____ _____    ______ ____
ROOT
ATOM      1  C   LIG    1       27.176 -20.993   6.135  0.00  0.00    +0.151 C 
ENDROOT
BRANCH   1   2
ATOM      2  O   LIG    1       27.226 -20.115   5.001  0.00  0.00    -0.389 OA
ATOM      3  H   LIG    1       26.539 -20.340   4.361  0.00  0.00    +0.210 HD
ENDBRANCH   1   2
BRANCH   1   4
ATOM      4  C   LIG    1       27.702 -20.227   7.365  0.00  0.00    +0.142 C 
BRANCH   4   5
ATOM      5  N   LIG    1       29.178 -20.278   7.619  0.00  0.00    -0.174 NA
BRANCH   5   6
ATOM      6  S   LIG    1       30.305 -19.125   7.044  0.00  0.00    +0.061 S 
ATOM      7  O   LIG    1       29.614 -18.214   6.158  0.00  0.00    -0.153 OA
ATOM      8  O   LIG    1       31.570 -19.721   6.660  0.00  0.00    -0.153 OA
BRANCH   6   9
ATOM      9  C   LIG    1       30.702 -18.202   8.518  0.00  0.00    +0.106 A 
ATOM     10  C   LIG    1       31.998 -17.718   8.684  0.00  0.00    +0.030 A 
ATOM     11  C   LIG    1       32.368 -17.193   9.920  0.00  0.00    +0.024 A 
ATOM     12  C   LIG    1       31.432 -17.056  10.951  0.00  0.00    +0.025 A 
ATOM     13  C   LIG    1       30.112 -17.465  10.730  0.00  0.00    +0.024 A 
ATOM     14  C   LIG    1       29.734 -18.021   9.507  0.00  0.00    +0.030 A 
BRANCH  12  15
ATOM     15  N   LIG    1       31.867 -16.772  12.250  0.00  0.00    -0.358 N 
ATOM     16  H   LIG    1       31.982 -17.586  12.842  0.00  0.00    +0.142 HD
ATOM     17  H   LIG    1       32.658 -16.137  12.295  0.00  0.00    +0.142 HD
ENDBRANCH  12  15
ENDBRANCH   6   9
ENDBRANCH   5   6
BRANCH   5  18
ATOM     18  C   LIG    1       29.661 -21.549   8.260  0.00  0.00    +0.112 C 
BRANCH  18  20
ATOM     19  C   LIG    1       31.052 -21.382  10.384  0.00  0.00    +0.008 C 
ATOM     20  C   LIG    1       31.087 -21.475   8.850  0.00  0.00    -0.002 C 
ATOM     21  C   LIG    1       31.957 -22.678   8.499  0.00  0.00    +0.008 C 
ENDBRANCH  18  20
ENDBRANCH   5  18
ENDBRANCH   4   5
ENDBRANCH   1   4
BRANCH   1  22
ATOM     22  C   LIG    1       25.752 -21.571   6.334  0.00  0.00    +0.110 C 
BRANCH  22  23
ATOM     23  N   LIG    1       24.753 -20.512   6.367  0.00  0.00    -0.275 N 
ATOM     24  H   LIG    1       24.934 -19.612   5.943  0.00  0.00    +0.152 HD
ATOM     25  C   LIG    1       23.448 -20.744   6.644  0.00  0.00    +0.401 C 
ATOM     26  O   LIG    1       22.988 -21.745   7.200  0.00  0.00    -0.227 OA
BRANCH  25  27
ATOM     27  O   LIG    1       22.746 -19.655   6.299  0.00  0.00    -0.445 OA
BRANCH  27  28
ATOM     28  C   LIG    1       22.113 -19.729   5.014  0.00  0.00    +0.206 C 
ATOM     29  C   LIG    1       22.923 -20.548   4.023  0.00  0.00    +0.204 C 
ATOM     30  O   LIG    1       23.896 -19.666   3.427  0.00  0.00    -0.376 OA
ATOM     31  C   LIG    1       23.654 -18.342   3.916  0.00  0.00    +0.163 C 
ATOM     32  C   LIG    1       22.233 -18.333   4.443  0.00  0.00    +0.075 C 
ENDBRANCH  27  28
ENDBRANCH  25  27
ENDBRANCH  22  23
BRANCH  22  33
ATOM     33  C   LIG    1       25.416 -22.585   5.210  0.00  0.00    +0.060 C 
BRANCH  33  34
ATOM     34  C   LIG    1       25.373 -24.014   5.695  0.00  0.00    -0.045 A 
ATOM     35  C   LIG    1       25.843 -24.346   6.975  0.00  0.00    +0.003 A 
ATOM     36  C   LIG    1       25.851 -25.671   7.404  0.00  0.00    +0.000 A 
ATOM     37  C   LIG    1       25.374 -26.675   6.565  0.00  0.00    +0.000 A 
ATOM     38  C   LIG    1       24.902 -26.356   5.292  0.00  0.00    +0.000 A 
ATOM     39  C   LIG    1       24.910 -25.033   4.854  0.00  0.00    +0.003 A 
ENDBRANCH  33  34
ENDBRANCH  22  33
ENDBRANCH   1  22
TORSDOF 14
ENDMDL
MODEL 7
REMARK VINA RESULT:      -7.2      3.158      7.809
REMARK  Name = *****
REMARK                            x       y       z     vdW  Elec       q    Type
REMARK                         _______ _______ _______ _____ _____    ______ ____
ROOT
ATOM      1  C   LIG    1       24.970 -20.143   3.907  0.00  0.00    +0.151 C 
ENDROOT
BRANCH   1   2
ATOM      2  O   LIG    1       25.299 -20.707   2.629  0.00  0.00    -0.389 OA
ATOM      3  H   LIG    1       25.115 -21.656   2.614  0.00  0.00    +0.210 HD
ENDBRANCH   1   2
BRANCH   1   4
ATOM      4  C   LIG    1       24.887 -21.289   4.935  0.00  0.00    +0.142 C 
BRANCH   4   5
ATOM      5  N   LIG    1       24.021 -21.064   6.137  0.00  0.00    -0.174 NA
BRANCH   5   6
ATOM      6  S   LIG    1       23.959 -22.099   7.500  0.00  0.00    +0.061 S 
ATOM      7  O   LIG    1       22.573 -22.290   7.865  0.00  0.00    -0.153 OA
ATOM      8  O   LIG    1       24.954 -21.766   8.501  0.00  0.00    -0.153 OA
BRANCH   6   9
ATOM      9  C   LIG    1       24.531 -23.650   6.834  0.00  0.00    +0.106 A 
ATOM     10  C   LIG    1       23.597 -24.567   6.356  0.00  0.00    +0.030 A 
ATOM     11  C   LIG    1       24.017 -25.857   6.041  0.00  0.00    +0.024 A 
ATOM     12  C   LIG    1       25.371 -26.206   6.103  0.00  0.00    +0.025 A 
ATOM     13  C   LIG    1       26.305 -25.241   6.498  0.00  0.00    +0.024 A 
ATOM     14  C   LIG    1       25.894 -23.953   6.846  0.00  0.00    +0.030 A 
BRANCH  12  15
ATOM     15  N   LIG    1       25.744 -27.552   6.035  0.00  0.00    -0.358 N 
ATOM     16  H   LIG    1       25.203 -28.106   5.379  0.00  0.00    +0.142 HD
ATOM     17  H   LIG    1       26.743 -27.705   5.947  0.00  0.00    +0.142 HD
ENDBRANCH  12  15
ENDBRANCH   6   9
ENDBRANCH   5   6
BRANCH   5  18
ATOM     18  C   LIG    1       23.024 -19.948   5.992  0.00  0.00    +0.112 C 
BRANCH  18  20
ATOM     19  C   LIG    1       21.181 -20.881   4.507  0.00  0.00    +0.008 C 
ATOM     20  C   LIG    1       22.336 -19.872   4.611  0.00  0.00    -0.002 C 
ATOM     21  C   LIG    1       21.753 -18.498   4.293  0.00  0.00    +0.008 C 
ENDBRANCH  18  20
ENDBRANCH   5  18
ENDBRANCH   4   5
ENDBRANCH   1   4
BRANCH   1  22
ATOM     22  C   LIG    1       25.974 -19.032   4.305  0.00  0.00    +0.110 C 
BRANCH  22  23
ATOM     23  N   LIG    1       27.251 -19.598   4.715  0.00  0.00    -0.275 N 
ATOM     24  H   LIG    1       28.048 -19.592   4.092  0.00  0.00    +0.152 HD
ATOM     25  C   LIG    1       27.560 -19.850   6.009  0.00  0.00    +0.401 C 
ATOM     26  O   LIG    1       26.760 -19.954   6.943  0.00  0.00    -0.227 OA
BRANCH  25  27
ATOM     27  O   LIG    1       28.881 -20.066   6.091  0.00  0.00    -0.445 OA
BRANCH  27  28
ATOM     28  C   LIG    1       29.628 -19.006   6.705  0.00  0.00    +0.206 C 
ATOM     29  C   LIG    1       31.119 -19.131   6.443  0.00  0.00    +0.204 C 
ATOM     30  O   LIG    1       31.661 -20.013   7.446  0.00  0.00    -0.376 OA
ATOM     31  C   LIG    1       30.611 -20.344   8.362  0.00  0.00    +0.163 C 
ATOM     32  C   LIG    1       29.543 -19.283   8.189  0.00  0.00    +0.075 C 
ENDBRANCH  27  28
ENDBRANCH  25  27
ENDBRANCH  22  23
BRANCH  22  33
ATOM     33  C   LIG    1       26.184 -18.043   3.130  0.00  0.00    +0.060 C 
BRANCH  33  34
ATOM     34  C   LIG    1       26.107 -16.595   3.553  0.00  0.00    -0.045 A 
ATOM     35  C   LIG    1       24.866 -15.949   3.658  0.00  0.00    +0.003 A 
ATOM     36  C   LIG    1       24.797 -14.601   3.999  0.00  0.00    +0.000 A 
ATOM     37  C   LIG    1       25.967 -13.889   4.255  0.00  0.00    +0.000 A 
ATOM     38  C   LIG    1       27.206 -14.522   4.155  0.00  0.00    +0.000 A 
ATOM     39  C   LIG    1       27.278 -15.867   3.796  0.00  0.00    +0.003 A 
ENDBRANCH  33  34
ENDBRANCH  22  33
ENDBRANCH   1  22
TORSDOF 14
ENDMDL
MODEL 8
REMARK VINA RESULT:      -7.2      7.896     11.487
REMARK  Name = *****
REMARK                            x       y       z     vdW  Elec       q    Type
REMARK                         _______ _______ _______ _____ _____    ______ ____
ROOT
ATOM      1  C   LIG    1       23.128 -31.202   9.647  0.00  0.00    +0.151 C 
ENDROOT
BRANCH   1   2
ATOM      2  O   LIG    1       22.590 -32.040   8.613  0.00  0.00    -0.389 OA
ATOM      3  H   LIG    1       22.084 -31.518   7.976  0.00  0.00    +0.210 HD
ENDBRANCH   1   2
BRANCH   1   4
ATOM      4  C   LIG    1       23.804 -29.987   8.982  0.00  0.00    +0.142 C 
BRANCH   4   5
ATOM      5  N   LIG    1       24.893 -30.270   7.992  0.00  0.00    -0.174 NA
BRANCH   5   6
ATOM      6  S   LIG    1       24.706 -30.194   6.292  0.00  0.00    +0.061 S 
ATOM      7  O   LIG    1       23.325 -30.476   5.972  0.00  0.00    -0.153 OA
ATOM      8  O   LIG    1       25.785 -30.851   5.580  0.00  0.00    -0.153 OA
BRANCH   6   9
ATOM      9  C   LIG    1       24.967 -28.463   5.951  0.00  0.00    +0.106 A 
ATOM     10  C   LIG    1       24.157 -27.520   6.583  0.00  0.00    +0.030 A 
ATOM     11  C   LIG    1       24.209 -26.195   6.158  0.00  0.00    +0.024 A 
ATOM     12  C   LIG    1       25.128 -25.789   5.184  0.00  0.00    +0.025 A 
ATOM     13  C   LIG    1       25.995 -26.737   4.628  0.00  0.00    +0.024 A 
ATOM     14  C   LIG    1       25.934 -28.074   5.023  0.00  0.00    +0.030 A 
BRANCH  12  15
ATOM     15  N   LIG    1       24.997 -24.529   4.590  0.00  0.00    -0.358 N 
ATOM     16  H   LIG    1       25.681 -23.846   4.897  0.00  0.00    +0.142 HD
ATOM     17  H   LIG    1       24.891 -24.552   3.581  0.00  0.00    +0.142 HD
ENDBRANCH  12  15
ENDBRANCH   6   9
ENDBRANCH   5   6
BRANCH   5  18
ATOM     18  C   LIG    1       26.150 -30.841   8.588  0.00  0.00    +0.112 C 
BRANCH  18  20
ATOM     19  C   LIG    1       26.558 -28.431   9.295  0.00  0.00    +0.008 C 
ATOM     20  C   LIG    1       26.874 -29.907   9.584  0.00  0.00    -0.002 C 
ATOM     21  C   LIG    1       26.500 -30.161  11.042  0.00  0.00    +0.008 C 
ENDBRANCH  18  20
ENDBRANCH   5  18
ENDBRANCH   4   5
ENDBRANCH   1   4
BRANCH   1  22
ATOM     22  C   LIG    1       22.039 -30.812  10.677  0.00  0.00    +0.110 C 
BRANCH  22  23
ATOM     23  N   LIG    1       21.048 -31.869  10.823  0.00  0.00    -0.275 N 
ATOM     24  H   LIG    1       21.249 -32.701  11.362  0.00  0.00    +0.152 HD
ATOM     25  C   LIG    1       19.734 -31.684  10.556  0.00  0.00    +0.401 C 
ATOM     26  O   LIG    1       19.249 -30.772   9.880  0.00  0.00    -0.227 OA
BRANCH  25  27
ATOM     27  O   LIG    1       19.051 -32.717  11.070  0.00  0.00    -0.445 OA
BRANCH  27  28
ATOM     28  C   LIG    1       18.890 -32.684  12.495  0.00  0.00    +0.206 C 
ATOM     29  C   LIG    1       17.853 -33.683  12.978  0.00  0.00    +0.204 C 
ATOM     30  O   LIG    1       16.562 -33.048  12.878  0.00  0.00    -0.376 OA
ATOM     31  C   LIG    1       16.765 -31.692  12.467  0.00  0.00    +0.163 C 
ATOM     32  C   LIG    1       18.212 -31.362  12.777  0.00  0.00    +0.075 C 
ENDBRANCH  27  28
ENDBRANCH  25  27
ENDBRANCH  22  23
BRANCH  22  33
ATOM     33  C   LIG    1       22.680 -30.493  12.052  0.00  0.00    +0.060 C 
BRANCH  33  34
ATOM     34  C   LIG    1       22.479 -29.059  12.482  0.00  0.00    -0.045 A 
ATOM     35  C   LIG    1       23.574 -28.272  12.869  0.00  0.00    +0.003 A 
ATOM     36  C   LIG    1       23.383 -26.965  13.313  0.00  0.00    +0.000 A 
ATOM     37  C   LIG    1       22.099 -26.427  13.358  0.00  0.00    +0.000 A 
ATOM     38  C   LIG    1       21.004 -27.201  12.974  0.00  0.00    +0.000 A 
ATOM     39  C   LIG    1       21.191 -28.515  12.546  0.00  0.00    +0.003 A 
ENDBRANCH  33  34
ENDBRANCH  22  33
ENDBRANCH   1  22
TORSDOF 14
ENDMDL
MODEL 9
REMARK VINA RESULT:      -7.1      3.710      9.083
REMARK  Name = *****
REMARK                            x       y       z     vdW  Elec       q    Type
REMARK                         _______ _______ _______ _____ _____    ______ ____
ROOT
ATOM      1  C   LIG    1       25.715 -26.255   6.605  0.00  0.00    +0.151 C 
ENDROOT
BRANCH   1   2
ATOM      2  O   LIG    1       26.642 -26.257   5.509  0.00  0.00    -0.389 OA
ATOM      3  H   LIG    1       27.406 -26.816   5.705  0.00  0.00    +0.210 HD
ENDBRANCH   1   2
BRANCH   1   4
ATOM      4  C   LIG    1       26.350 -27.027   7.778  0.00  0.00    +0.142 C 
BRANCH   4   5
ATOM      5  N   LIG    1       25.738 -28.346   8.138  0.00  0.00    -0.174 NA
BRANCH   5   6
ATOM      6  S   LIG    1       26.362 -29.420   9.315  0.00  0.00    +0.061 S 
ATOM      7  O   LIG    1       27.466 -28.770   9.986  0.00  0.00    -0.153 OA
ATOM      8  O   LIG    1       26.486 -30.779   8.824  0.00  0.00    -0.153 OA
BRANCH   6   9
ATOM      9  C   LIG    1       25.031 -29.516  10.497  0.00  0.00    +0.106 A 
ATOM     10  C   LIG    1       23.877 -30.223  10.161  0.00  0.00    +0.030 A 
ATOM     11  C   LIG    1       22.759 -30.118  10.984  0.00  0.00    +0.024 A 
ATOM     12  C   LIG    1       22.814 -29.399  12.182  0.00  0.00    +0.025 A 
ATOM     13  C   LIG    1       24.012 -28.772  12.546  0.00  0.00    +0.024 A 
ATOM     14  C   LIG    1       25.132 -28.844  11.716  0.00  0.00    +0.030 A 
BRANCH  12  15
ATOM     15  N   LIG    1       21.630 -29.090  12.861  0.00  0.00    -0.358 N 
ATOM     16  H   LIG    1       21.115 -29.897  13.196  0.00  0.00    +0.142 HD
ATOM     17  H   LIG    1       21.730 -28.367  13.566  0.00  0.00    +0.142 HD
ENDBRANCH  12  15
ENDBRANCH   6   9
ENDBRANCH   5   6
BRANCH   5  18
ATOM     18  C   LIG    1       24.617 -28.784   7.236  0.00  0.00    +0.112 C 
BRANCH  18  20
ATOM     19  C   LIG    1       24.168 -31.063   6.199  0.00  0.00    +0.008 C 
ATOM     20  C   LIG    1       25.027 -29.789   6.138  0.00  0.00    -0.002 C 
ATOM     21  C   LIG    1       24.896 -29.235   4.722  0.00  0.00    +0.008 C 
ENDBRANCH  18  20
ENDBRANCH   5  18
ENDBRANCH   4   5
ENDBRANCH   1   4
BRANCH   1  22
ATOM     22  C   LIG    1       25.288 -24.813   6.977  0.00  0.00    +0.110 C 
BRANCH  22  23
ATOM     23  N   LIG    1       26.358 -23.862   6.713  0.00  0.00    -0.275 N 
ATOM     24  H   LIG    1       26.785 -23.797   5.799  0.00  0.00    +0.152 HD
ATOM     25  C   LIG    1       26.619 -22.809   7.523  0.00  0.00    +0.401 C 
ATOM     26  O   LIG    1       26.251 -22.682   8.695  0.00  0.00    -0.227 OA
BRANCH  25  27
ATOM     27  O   LIG    1       27.432 -21.967   6.869  0.00  0.00    -0.445 OA
BRANCH  27  28
ATOM     28  C   LIG    1       27.045 -20.587   6.930  0.00  0.00    +0.206 C 
ATOM     29  C   LIG    1       27.292 -19.864   5.617  0.00  0.00    +0.204 C 
ATOM     30  O   LIG    1       28.663 -19.418   5.621  0.00  0.00    -0.376 OA
ATOM     31  C   LIG    1       29.228 -19.731   6.899  0.00  0.00    +0.163 C 
ATOM     32  C   LIG    1       28.061 -19.940   7.844  0.00  0.00    +0.075 C 
ENDBRANCH  27  28
ENDBRANCH  25  27
ENDBRANCH  22  23
BRANCH  22  33
ATOM     33  C   LIG    1       24.012 -24.406   6.196  0.00  0.00    +0.060 C 
BRANCH  33  34
ATOM     34  C   LIG    1       23.862 -22.911   6.044  0.00  0.00    -0.045 A 
ATOM     35  C   LIG    1       23.326 -22.140   7.087  0.00  0.00    +0.003 A 
ATOM     36  C   LIG    1       23.140 -20.769   6.930  0.00  0.00    +0.000 A 
ATOM     37  C   LIG    1       23.504 -20.151   5.736  0.00  0.00    +0.000 A 
ATOM     38  C   LIG    1       24.040 -20.908   4.694  0.00  0.00    +0.000 A 
ATOM     39  C   LIG    1       24.210 -22.284   4.842  0.00  0.00    +0.003 A 
ENDBRANCH  33  34
ENDBRANCH  22  33
ENDBRANCH   1  22
TORSDOF 14
ENDMDL
