MODEL 1
REMARK VINA RESULT:     -10.3      0.000      0.000
REMARK  Name = *****
REMARK                            x       y       z     vdW  Elec       q    Type
REMARK                         _______ _______ _______ _____ _____    ______ ____
ROOT
ATOM      1  C   LIG    1       26.960 -20.715   7.311  0.00  0.00    +0.131 A 
ATOM      2  C   LIG    1       26.300 -20.889   6.086  0.00  0.00    +0.086 A 
ATOM      3  C   LIG    1       25.514 -22.031   5.864  0.00  0.00    +0.148 A 
ATOM      4  F   LIG    1       24.927 -22.202   4.667  0.00  0.00    -0.203 F 
ATOM      5  C   LIG    1       25.366 -23.017   6.841  0.00  0.00    +0.070 A 
ATOM      6  C   LIG    1       25.957 -22.791   8.085  0.00  0.00    +0.030 A 
ATOM      7  C   LIG    1       26.716 -21.642   8.325  0.00  0.00    +0.048 A 
ENDROOT
BRANCH   5   8
ATOM      8  N   LIG    1       24.625 -24.189   6.537  0.00  0.00    -0.267 N 
ATOM      9  H   LIG    1       23.726 -24.041   6.096  0.00  0.00    +0.157 HD
ATOM     10  C   LIG    1       25.150 -25.468   6.540  0.00  0.00    +0.308 C 
ATOM     11  N   LIG    1       24.226 -26.432   6.202  0.00  0.00    -0.269 N 
ATOM     12  H   LIG    1       23.285 -26.119   6.006  0.00  0.00    +0.156 HD
ATOM     13  O   LIG    1       26.339 -25.705   6.790  0.00  0.00    -0.252 OA
BRANCH  11  14
ATOM     14  C   LIG    1       24.469 -27.823   6.113  0.00  0.00    +0.035 A 
ATOM     15  C   LIG    1       24.201 -28.609   7.238  0.00  0.00    +0.037 A 
ATOM     16  C   LIG    1       24.416 -30.011   7.239  0.00  0.00    +0.075 A 
ATOM     17  C   LIG    1       24.926 -30.610   6.084  0.00  0.00    +0.053 A 
ATOM     18 CL   LIG    1       25.260 -32.294   5.947  0.00  0.00    -0.083 Cl
ATOM     19  C   LIG    1       25.191 -29.832   4.957  0.00  0.00    +0.022 A 
ATOM     20  C   LIG    1       24.961 -28.456   4.973  0.00  0.00    +0.025 A 
BRANCH  16  21
ATOM     21  C   LIG    1       24.063 -30.753   8.499  0.00  0.00    +0.419 C 
ATOM     22  F   LIG    1       23.438 -29.937   9.397  0.00  0.00    -0.166 F 
ATOM     23  F   LIG    1       25.178 -31.205   9.144  0.00  0.00    -0.166 F 
ATOM     24  F   LIG    1       23.255 -31.835   8.368  0.00  0.00    -0.166 F 
ENDBRANCH  16  21
ENDBRANCH  11  14
ENDBRANCH   5   8
BRANCH   1  25
ATOM     25  O   LIG    1       27.784 -19.609   7.469  0.00  0.00    -0.456 OA
BRANCH  25  30
ATOM     26  C   LIG    1       31.007 -18.835   9.010  0.00  0.00    +0.129 A 
ATOM     27  N   LIG    1       31.645 -20.040   9.071  0.00  0.00    -0.250 NA
ATOM     28  C   LIG    1       30.999 -21.084   8.524  0.00  0.00    +0.115 A 
ATOM     29  C   LIG    1       29.769 -20.983   7.894  0.00  0.00    +0.066 A 
ATOM     30  C   LIG    1       29.073 -19.772   7.964  0.00  0.00    +0.132 A 
ATOM     31  C   LIG    1       29.722 -18.659   8.497  0.00  0.00    +0.079 A 
BRANCH  26  35
ATOM     32  C   LIG    1       32.845 -16.571  11.421  0.00  0.00    +0.128 C 
ATOM     33  N   LIG    1       32.026 -17.590  10.807  0.00  0.00    -0.313 N 
ATOM     34  H   LIG    1       31.564 -18.285  11.372  0.00  0.00    +0.149 HD
ATOM     35  C   LIG    1       31.845 -17.674   9.439  0.00  0.00    +0.262 C 
ATOM     36  O   LIG    1       32.333 -16.896   8.621  0.00  0.00    -0.269 OA
ENDBRANCH  26  35
ENDBRANCH  25  30
ENDBRANCH   1  25
TORSDOF 6
ENDMDL
MODEL 2
REMARK VINA RESULT:     -10.1      1.708      2.297
REMARK  Name = *****
REMARK                            x       y       z     vdW  Elec       q    Type
REMARK                         _______ _______ _______ _____ _____    ______ ____
ROOT
ATOM      1  C   LIG    1       25.437 -21.972   7.250  0.00  0.00    +0.131 A 
ATOM      2  C   LIG    1       24.073 -22.253   7.081  0.00  0.00    +0.086 A 
ATOM      3  C   LIG    1       23.657 -23.552   6.749  0.00  0.00    +0.148 A 
ATOM      4  F   LIG    1       22.350 -23.791   6.546  0.00  0.00    -0.203 F 
ATOM      5  C   LIG    1       24.574 -24.591   6.576  0.00  0.00    +0.070 A 
ATOM      6  C   LIG    1       25.918 -24.319   6.831  0.00  0.00    +0.030 A 
ATOM      7  C   LIG    1       26.338 -23.036   7.193  0.00  0.00    +0.048 A 
ENDROOT
BRANCH   5   8
ATOM      8  N   LIG    1       24.106 -25.867   6.162  0.00  0.00    -0.267 N 
ATOM      9  H   LIG    1       23.380 -25.863   5.456  0.00  0.00    +0.157 HD
ATOM     10  C   LIG    1       24.745 -27.060   6.437  0.00  0.00    +0.308 C 
ATOM     11  N   LIG    1       24.091 -28.156   5.918  0.00  0.00    -0.269 N 
ATOM     12  H   LIG    1       23.231 -27.983   5.416  0.00  0.00    +0.156 HD
ATOM     13  O   LIG    1       25.814 -27.122   7.059  0.00  0.00    -0.252 OA
BRANCH  11  14
ATOM     14  C   LIG    1       24.508 -29.504   6.029  0.00  0.00    +0.035 A 
ATOM     15  C   LIG    1       24.079 -30.233   7.142  0.00  0.00    +0.037 A 
ATOM     16  C   LIG    1       24.449 -31.588   7.335  0.00  0.00    +0.075 A 
ATOM     17  C   LIG    1       25.278 -32.197   6.389  0.00  0.00    +0.053 A 
ATOM     18 CL   LIG    1       25.828 -33.825   6.505  0.00  0.00    -0.083 Cl
ATOM     19  C   LIG    1       25.706 -31.476   5.275  0.00  0.00    +0.022 A 
ATOM     20  C   LIG    1       25.321 -30.147   5.097  0.00  0.00    +0.025 A 
BRANCH  16  21
ATOM     21  C   LIG    1       23.902 -32.276   8.556  0.00  0.00    +0.419 C 
ATOM     22  F   LIG    1       23.101 -31.439   9.280  0.00  0.00    -0.166 F 
ATOM     23  F   LIG    1       24.898 -32.645   9.413  0.00  0.00    -0.166 F 
ATOM     24  F   LIG    1       23.164 -33.396   8.351  0.00  0.00    -0.166 F 
ENDBRANCH  16  21
ENDBRANCH  11  14
ENDBRANCH   5   8
BRANCH   1  25
ATOM     25  O   LIG    1       25.817 -20.662   7.509  0.00  0.00    -0.456 OA
BRANCH  25  30
ATOM     26  C   LIG    1       29.309 -19.590   7.642  0.00  0.00    +0.129 A 
ATOM     27  N   LIG    1       29.645 -19.386   6.335  0.00  0.00    -0.250 NA
ATOM     28  C   LIG    1       28.660 -19.549   5.435  0.00  0.00    +0.115 A 
ATOM     29  C   LIG    1       27.355 -19.872   5.773  0.00  0.00    +0.066 A 
ATOM     30  C   LIG    1       27.065 -20.210   7.099  0.00  0.00    +0.132 A 
ATOM     31  C   LIG    1       28.052 -20.025   8.065  0.00  0.00    +0.079 A 
BRANCH  26  35
ATOM     32  C   LIG    1       31.864 -17.335   9.287  0.00  0.00    +0.128 C 
ATOM     33  N   LIG    1       30.869 -17.923   8.421  0.00  0.00    -0.313 N 
ATOM     34  H   LIG    1       30.499 -17.404   7.640  0.00  0.00    +0.149 HD
ATOM     35  C   LIG    1       30.371 -19.198   8.618  0.00  0.00    +0.262 C 
ATOM     36  O   LIG    1       30.728 -19.955   9.518  0.00  0.00    -0.269 OA
ENDBRANCH  26  35
ENDBRANCH  25  30
ENDBRANCH   1  25
TORSDOF 6
ENDMDL
MODEL 3
REMARK VINA RESULT:      -9.8      2.368      3.115
REMARK  Name = *****
REMARK                            x       y       z     vdW  Elec       q    Type
REMARK                         _______ _______ _______ _____ _____    ______ ____
ROOT
ATOM      1  C   LIG    1       25.490 -21.895   7.125  0.00  0.00    +0.131 A 
ATOM      2  C   LIG    1       24.130 -22.233   7.176  0.00  0.00    +0.086 A 
ATOM      3  C   LIG    1       23.716 -23.540   6.873  0.00  0.00    +0.148 A 
ATOM      4  F   LIG    1       22.405 -23.833   6.882  0.00  0.00    -0.203 F 
ATOM      5  C   LIG    1       24.633 -24.532   6.515  0.00  0.00    +0.070 A 
ATOM      6  C   LIG    1       25.989 -24.205   6.553  0.00  0.00    +0.030 A 
ATOM      7  C   LIG    1       26.411 -22.915   6.884  0.00  0.00    +0.048 A 
ENDROOT
BRANCH   5   8
ATOM      8  N   LIG    1       24.154 -25.815   6.142  0.00  0.00    -0.267 N 
ATOM      9  H   LIG    1       23.508 -25.836   5.362  0.00  0.00    +0.157 HD
ATOM     10  C   LIG    1       24.705 -27.009   6.567  0.00  0.00    +0.308 C 
ATOM     11  N   LIG    1       24.061 -28.114   6.056  0.00  0.00    -0.269 N 
ATOM     12  H   LIG    1       23.268 -27.946   5.453  0.00  0.00    +0.156 HD
ATOM     13  O   LIG    1       25.698 -27.064   7.306  0.00  0.00    -0.252 OA
BRANCH  11  14
ATOM     14  C   LIG    1       24.402 -29.465   6.306  0.00  0.00    +0.035 A 
ATOM     15  C   LIG    1       24.866 -30.233   5.234  0.00  0.00    +0.037 A 
ATOM     16  C   LIG    1       25.229 -31.594   5.392  0.00  0.00    +0.075 A 
ATOM     17  C   LIG    1       25.101 -32.178   6.656  0.00  0.00    +0.053 A 
ATOM     18 CL   LIG    1       25.479 -33.825   6.992  0.00  0.00    -0.083 Cl
ATOM     19  C   LIG    1       24.643 -31.416   7.730  0.00  0.00    +0.022 A 
ATOM     20  C   LIG    1       24.302 -30.074   7.556  0.00  0.00    +0.025 A 
BRANCH  16  21
ATOM     21  C   LIG    1       25.741 -32.309   4.172  0.00  0.00    +0.419 C 
ATOM     22  F   LIG    1       25.019 -33.440   3.919  0.00  0.00    -0.166 F 
ATOM     23  F   LIG    1       27.026 -32.737   4.344  0.00  0.00    -0.166 F 
ATOM     24  F   LIG    1       25.742 -31.612   3.008  0.00  0.00    -0.166 F 
ENDBRANCH  16  21
ENDBRANCH  11  14
ENDBRANCH   5   8
BRANCH   1  25
ATOM     25  O   LIG    1       25.855 -20.577   7.363  0.00  0.00    -0.456 OA
BRANCH  25  30
ATOM     26  C   LIG    1       29.361 -19.574   7.619  0.00  0.00    +0.129 A 
ATOM     27  N   LIG    1       29.733 -19.331   6.329  0.00  0.00    -0.250 NA
ATOM     28  C   LIG    1       28.768 -19.444   5.400  0.00  0.00    +0.115 A 
ATOM     29  C   LIG    1       27.450 -19.754   5.694  0.00  0.00    +0.066 A 
ATOM     30  C   LIG    1       27.121 -20.133   6.999  0.00  0.00    +0.132 A 
ATOM     31  C   LIG    1       28.087 -20.001   7.996  0.00  0.00    +0.079 A 
BRANCH  26  35
ATOM     32  C   LIG    1       31.910 -17.426   9.409  0.00  0.00    +0.128 C 
ATOM     33  N   LIG    1       30.927 -17.964   8.498  0.00  0.00    -0.313 N 
ATOM     34  H   LIG    1       30.584 -17.410   7.729  0.00  0.00    +0.149 HD
ATOM     35  C   LIG    1       30.405 -19.237   8.634  0.00  0.00    +0.262 C 
ATOM     36  O   LIG    1       30.729 -20.034   9.513  0.00  0.00    -0.269 OA
ENDBRANCH  26  35
ENDBRANCH  25  30
ENDBRANCH   1  25
TORSDOF 6
ENDMDL
MODEL 4
REMARK VINA RESULT:      -9.0      5.850     11.306
REMARK  Name = *****
REMARK                            x       y       z     vdW  Elec       q    Type
REMARK                         _______ _______ _______ _____ _____    ______ ____
ROOT
ATOM      1  C   LIG    1       25.148 -29.995   7.371  0.00  0.00    +0.131 A 
ATOM      2  C   LIG    1       25.014 -29.488   6.071  0.00  0.00    +0.086 A 
ATOM      3  C   LIG    1       25.316 -28.143   5.803  0.00  0.00    +0.148 A 
ATOM      4  F   LIG    1       25.137 -27.664   4.561  0.00  0.00    -0.203 F 
ATOM      5  C   LIG    1       25.752 -27.278   6.809  0.00  0.00    +0.070 A 
ATOM      6  C   LIG    1       25.964 -27.816   8.079  0.00  0.00    +0.030 A 
ATOM      7  C   LIG    1       25.696 -29.161   8.347  0.00  0.00    +0.048 A 
ENDROOT
BRANCH   5   8
ATOM      8  N   LIG    1       25.967 -25.909   6.501  0.00  0.00    -0.267 N 
ATOM      9  H   LIG    1       26.896 -25.670   6.177  0.00  0.00    +0.157 HD
ATOM     10  C   LIG    1       24.960 -24.975   6.348  0.00  0.00    +0.308 C 
ATOM     11  N   LIG    1       25.430 -23.717   6.043  0.00  0.00    -0.269 N 
ATOM     12  H   LIG    1       26.433 -23.605   5.978  0.00  0.00    +0.156 HD
ATOM     13  O   LIG    1       23.759 -25.262   6.444  0.00  0.00    -0.252 OA
BRANCH  11  14
ATOM     14  C   LIG    1       24.640 -22.564   5.822  0.00  0.00    +0.035 A 
ATOM     15  C   LIG    1       25.149 -21.573   4.977  0.00  0.00    +0.037 A 
ATOM     16  C   LIG    1       24.426 -20.385   4.700  0.00  0.00    +0.075 A 
ATOM     17  C   LIG    1       23.179 -20.203   5.305  0.00  0.00    +0.053 A 
ATOM     18 CL   LIG    1       22.202 -18.803   5.081  0.00  0.00    -0.083 Cl
ATOM     19  C   LIG    1       22.665 -21.190   6.145  0.00  0.00    +0.022 A 
ATOM     20  C   LIG    1       23.386 -22.358   6.396  0.00  0.00    +0.025 A 
BRANCH  16  21
ATOM     21  C   LIG    1       25.064 -19.405   3.753  0.00  0.00    +0.419 C 
ATOM     22  F   LIG    1       25.286 -19.970   2.530  0.00  0.00    -0.166 F 
ATOM     23  F   LIG    1       26.294 -19.012   4.193  0.00  0.00    -0.166 F 
ATOM     24  F   LIG    1       24.382 -18.259   3.505  0.00  0.00    -0.166 F 
ENDBRANCH  16  21
ENDBRANCH  11  14
ENDBRANCH   5   8
BRANCH   1  25
ATOM     25  O   LIG    1       24.774 -31.310   7.612  0.00  0.00    -0.456 OA
BRANCH  25  30
ATOM     26  C   LIG    1       22.447 -31.479  10.427  0.00  0.00    +0.129 A 
ATOM     27  N   LIG    1       23.011 -32.391  11.271  0.00  0.00    -0.250 NA
ATOM     28  C   LIG    1       24.207 -32.881  10.903  0.00  0.00    +0.115 A 
ATOM     29  C   LIG    1       24.881 -32.488   9.759  0.00  0.00    +0.066 A 
ATOM     30  C   LIG    1       24.227 -31.659   8.841  0.00  0.00    +0.132 A 
ATOM     31  C   LIG    1       22.999 -31.107   9.200  0.00  0.00    +0.079 A 
BRANCH  26  35
ATOM     32  C   LIG    1       20.306 -29.693  12.985  0.00  0.00    +0.128 C 
ATOM     33  N   LIG    1       21.352 -30.404  12.288  0.00  0.00    -0.313 N 
ATOM     34  H   LIG    1       22.221 -30.621  12.752  0.00  0.00    +0.149 HD
ATOM     35  C   LIG    1       21.227 -30.809  10.972  0.00  0.00    +0.262 C 
ATOM     36  O   LIG    1       20.229 -30.627  10.278  0.00  0.00    -0.269 OA
ENDBRANCH  26  35
ENDBRANCH  25  30
ENDBRANCH   1  25
TORSDOF 6
ENDMDL
MODEL 5
REMARK VINA RESULT:      -8.7      5.838     11.777
REMARK  Name = *****
REMARK                            x       y       z     vdW  Elec       q    Type
REMARK                         _______ _______ _______ _____ _____    ______ ____
ROOT
ATOM      1  C   LIG    1       25.040 -30.425   7.049  0.00  0.00    +0.131 A 
ATOM      2  C   LIG    1       25.611 -29.669   8.083  0.00  0.00    +0.086 A 
ATOM      3  C   LIG    1       25.818 -28.290   7.917  0.00  0.00    +0.148 A 
ATOM      4  F   LIG    1       26.408 -27.592   8.901  0.00  0.00    -0.203 F 
ATOM      5  C   LIG    1       25.467 -27.636   6.734  0.00  0.00    +0.070 A 
ATOM      6  C   LIG    1       24.821 -28.382   5.748  0.00  0.00    +0.030 A 
ATOM      7  C   LIG    1       24.584 -29.749   5.917  0.00  0.00    +0.048 A 
ENDROOT
BRANCH   5   8
ATOM      8  N   LIG    1       25.771 -26.257   6.589  0.00  0.00    -0.267 N 
ATOM      9  H   LIG    1       26.730 -26.038   6.349  0.00  0.00    +0.157 HD
ATOM     10  C   LIG    1       24.824 -25.256   6.478  0.00  0.00    +0.308 C 
ATOM     11  N   LIG    1       25.376 -24.002   6.340  0.00  0.00    -0.269 N 
ATOM     12  H   LIG    1       26.385 -23.940   6.348  0.00  0.00    +0.156 HD
ATOM     13  O   LIG    1       23.606 -25.482   6.470  0.00  0.00    -0.252 OA
BRANCH  11  14
ATOM     14  C   LIG    1       24.661 -22.789   6.197  0.00  0.00    +0.035 A 
ATOM     15  C   LIG    1       24.785 -22.093   4.991  0.00  0.00    +0.037 A 
ATOM     16  C   LIG    1       24.106 -20.870   4.762  0.00  0.00    +0.075 A 
ATOM     17  C   LIG    1       23.306 -20.346   5.782  0.00  0.00    +0.053 A 
ATOM     18 CL   LIG    1       22.444 -18.861   5.656  0.00  0.00    -0.083 Cl
ATOM     19  C   LIG    1       23.176 -21.038   6.986  0.00  0.00    +0.022 A 
ATOM     20  C   LIG    1       23.843 -22.247   7.187  0.00  0.00    +0.025 A 
BRANCH  16  21
ATOM     21  C   LIG    1       24.294 -20.228   3.414  0.00  0.00    +0.419 C 
ATOM     22  F   LIG    1       24.110 -21.130   2.405  0.00  0.00    -0.166 F 
ATOM     23  F   LIG    1       25.569 -19.767   3.252  0.00  0.00    -0.166 F 
ATOM     24  F   LIG    1       23.487 -19.180   3.115  0.00  0.00    -0.166 F 
ENDBRANCH  16  21
ENDBRANCH  11  14
ENDBRANCH   5   8
BRANCH   1  25
ATOM     25  O   LIG    1       24.916 -31.797   7.222  0.00  0.00    -0.456 OA
BRANCH  25  30
ATOM     26  C   LIG    1       22.409 -32.493   9.790  0.00  0.00    +0.129 A 
ATOM     27  N   LIG    1       23.037 -33.351  10.645  0.00  0.00    -0.250 NA
ATOM     28  C   LIG    1       24.325 -33.625  10.374  0.00  0.00    +0.115 A 
ATOM     29  C   LIG    1       25.024 -33.064   9.317  0.00  0.00    +0.066 A 
ATOM     30  C   LIG    1       24.327 -32.298   8.377  0.00  0.00    +0.132 A 
ATOM     31  C   LIG    1       22.998 -31.969   8.639  0.00  0.00    +0.079 A 
BRANCH  26  35
ATOM     32  C   LIG    1       18.969 -32.852  11.325  0.00  0.00    +0.128 C 
ATOM     33  N   LIG    1       20.288 -33.074  10.782  0.00  0.00    -0.313 N 
ATOM     34  H   LIG    1       20.696 -33.996  10.790  0.00  0.00    +0.149 HD
ATOM     35  C   LIG    1       21.053 -32.056  10.243  0.00  0.00    +0.262 C 
ATOM     36  O   LIG    1       20.692 -30.885  10.154  0.00  0.00    -0.269 OA
ENDBRANCH  26  35
ENDBRANCH  25  30
ENDBRANCH   1  25
TORSDOF 6
ENDMDL
MODEL 6
REMARK VINA RESULT:      -8.6      1.577      2.011
REMARK  Name = *****
REMARK                            x       y       z     vdW  Elec       q    Type
REMARK                         _______ _______ _______ _____ _____    ______ ____
ROOT
ATOM      1  C   LIG    1       25.928 -21.322   6.542  0.00  0.00    +0.131 A 
ATOM      2  C   LIG    1       26.172 -22.381   7.429  0.00  0.00    +0.086 A 
ATOM      3  C   LIG    1       25.626 -23.650   7.179  0.00  0.00    +0.148 A 
ATOM      4  F   LIG    1       25.832 -24.639   8.064  0.00  0.00    -0.203 F 
ATOM      5  C   LIG    1       24.834 -23.897   6.055  0.00  0.00    +0.070 A 
ATOM      6  C   LIG    1       24.671 -22.859   5.137  0.00  0.00    +0.030 A 
ATOM      7  C   LIG    1       25.236 -21.601   5.362  0.00  0.00    +0.048 A 
ENDROOT
BRANCH   5   8
ATOM      8  N   LIG    1       24.242 -25.177   5.893  0.00  0.00    -0.267 N 
ATOM      9  H   LIG    1       23.345 -25.192   5.423  0.00  0.00    +0.157 HD
ATOM     10  C   LIG    1       24.910 -26.374   6.068  0.00  0.00    +0.308 C 
ATOM     11  N   LIG    1       24.113 -27.475   5.843  0.00  0.00    -0.269 N 
ATOM     12  H   LIG    1       23.149 -27.302   5.594  0.00  0.00    +0.156 HD
ATOM     13  O   LIG    1       26.110 -26.436   6.365  0.00  0.00    -0.252 OA
BRANCH  11  14
ATOM     14  C   LIG    1       24.518 -28.828   5.938  0.00  0.00    +0.035 A 
ATOM     15  C   LIG    1       24.127 -29.552   7.068  0.00  0.00    +0.037 A 
ATOM     16  C   LIG    1       24.488 -30.912   7.246  0.00  0.00    +0.075 A 
ATOM     17  C   LIG    1       25.269 -31.530   6.267  0.00  0.00    +0.053 A 
ATOM     18 CL   LIG    1       25.803 -33.165   6.360  0.00  0.00    -0.083 Cl
ATOM     19  C   LIG    1       25.659 -30.815   5.135  0.00  0.00    +0.022 A 
ATOM     20  C   LIG    1       25.283 -29.481   4.972  0.00  0.00    +0.025 A 
BRANCH  16  21
ATOM     21  C   LIG    1       23.984 -31.593   8.489  0.00  0.00    +0.419 C 
ATOM     22  F   LIG    1       23.221 -30.748   9.244  0.00  0.00    -0.166 F 
ATOM     23  F   LIG    1       25.010 -31.971   9.305  0.00  0.00    -0.166 F 
ATOM     24  F   LIG    1       23.227 -32.705   8.316  0.00  0.00    -0.166 F 
ENDBRANCH  16  21
ENDBRANCH  11  14
ENDBRANCH   5   8
BRANCH   1  25
ATOM     25  O   LIG    1       26.425 -20.065   6.857  0.00  0.00    -0.456 OA
BRANCH  25  30
ATOM     26  C   LIG    1       29.923 -19.530   7.774  0.00  0.00    +0.129 A 
ATOM     27  N   LIG    1       30.564 -19.391   6.577  0.00  0.00    -0.250 NA
ATOM     28  C   LIG    1       29.787 -19.412   5.481  0.00  0.00    +0.115 A 
ATOM     29  C   LIG    1       28.407 -19.532   5.518  0.00  0.00    +0.066 A 
ATOM     30  C   LIG    1       27.786 -19.810   6.740  0.00  0.00    +0.132 A 
ATOM     31  C   LIG    1       28.554 -19.767   7.902  0.00  0.00    +0.079 A 
BRANCH  26  35
ATOM     32  C   LIG    1       31.909 -17.519  10.290  0.00  0.00    +0.128 C 
ATOM     33  N   LIG    1       31.122 -17.965   9.165  0.00  0.00    -0.313 N 
ATOM     34  H   LIG    1       30.779 -17.303   8.486  0.00  0.00    +0.149 HD
ATOM     35  C   LIG    1       30.791 -19.293   8.968  0.00  0.00    +0.262 C 
ATOM     36  O   LIG    1       31.141 -20.215   9.701  0.00  0.00    -0.269 OA
ENDBRANCH  26  35
ENDBRANCH  25  30
ENDBRANCH   1  25
TORSDOF 6
ENDMDL
MODEL 7
REMARK VINA RESULT:      -8.3      5.898     10.943
REMARK  Name = *****
REMARK                            x       y       z     vdW  Elec       q    Type
REMARK                         _______ _______ _______ _____ _____    ______ ____
ROOT
ATOM      1  C   LIG    1       24.951 -29.620   7.880  0.00  0.00    +0.131 A 
ATOM      2  C   LIG    1       24.407 -29.222   6.651  0.00  0.00    +0.086 A 
ATOM      3  C   LIG    1       24.708 -27.957   6.123  0.00  0.00    +0.148 A 
ATOM      4  F   LIG    1       24.139 -27.576   4.966  0.00  0.00    -0.203 F 
ATOM      5  C   LIG    1       25.547 -27.065   6.795  0.00  0.00    +0.070 A 
ATOM      6  C   LIG    1       26.150 -27.506   7.973  0.00  0.00    +0.030 A 
ATOM      7  C   LIG    1       25.880 -28.776   8.491  0.00  0.00    +0.048 A 
ENDROOT
BRANCH   5   8
ATOM      8  N   LIG    1       25.754 -25.768   6.255  0.00  0.00    -0.267 N 
ATOM      9  H   LIG    1       26.576 -25.658   5.674  0.00  0.00    +0.157 HD
ATOM     10  C   LIG    1       24.800 -24.768   6.236  0.00  0.00    +0.308 C 
ATOM     11  N   LIG    1       25.248 -23.605   5.650  0.00  0.00    -0.269 N 
ATOM     12  H   LIG    1       26.202 -23.596   5.316  0.00  0.00    +0.156 HD
ATOM     13  O   LIG    1       23.653 -24.926   6.675  0.00  0.00    -0.252 OA
BRANCH  11  14
ATOM     14  C   LIG    1       24.499 -22.417   5.480  0.00  0.00    +0.035 A 
ATOM     15  C   LIG    1       25.074 -21.378   4.742  0.00  0.00    +0.037 A 
ATOM     16  C   LIG    1       24.395 -20.153   4.522  0.00  0.00    +0.075 A 
ATOM     17  C   LIG    1       23.124 -19.983   5.077  0.00  0.00    +0.053 A 
ATOM     18 CL   LIG    1       22.194 -18.543   4.915  0.00  0.00    -0.083 Cl
ATOM     19  C   LIG    1       22.543 -21.017   5.811  0.00  0.00    +0.022 A 
ATOM     20  C   LIG    1       23.222 -22.220   6.005  0.00  0.00    +0.025 A 
BRANCH  16  21
ATOM     21  C   LIG    1       25.105 -19.122   3.688  0.00  0.00    +0.419 C 
ATOM     22  F   LIG    1       25.412 -19.611   2.450  0.00  0.00    -0.166 F 
ATOM     23  F   LIG    1       26.302 -18.768   4.239  0.00  0.00    -0.166 F 
ATOM     24  F   LIG    1       24.448 -17.956   3.464  0.00  0.00    -0.166 F 
ENDBRANCH  16  21
ENDBRANCH  11  14
ENDBRANCH   5   8
BRANCH   1  25
ATOM     25  O   LIG    1       24.576 -30.849   8.405  0.00  0.00    -0.456 OA
BRANCH  25  30
ATOM     26  C   LIG    1       24.020 -30.785  12.018  0.00  0.00    +0.129 A 
ATOM     27  N   LIG    1       22.669 -30.921  12.149  0.00  0.00    -0.250 NA
ATOM     28  C   LIG    1       21.975 -31.102  11.012  0.00  0.00    +0.115 A 
ATOM     29  C   LIG    1       22.561 -31.186   9.759  0.00  0.00    +0.066 A 
ATOM     30  C   LIG    1       23.926 -30.908   9.632  0.00  0.00    +0.132 A 
ATOM     31  C   LIG    1       24.684 -30.745  10.791  0.00  0.00    +0.079 A 
BRANCH  26  35
ATOM     32  C   LIG    1       26.484 -32.032  14.604  0.00  0.00    +0.128 C 
ATOM     33  N   LIG    1       25.632 -31.866  13.450  0.00  0.00    -0.313 N 
ATOM     34  H   LIG    1       25.653 -32.536  12.697  0.00  0.00    +0.149 HD
ATOM     35  C   LIG    1       24.768 -30.796  13.312  0.00  0.00    +0.262 C 
ATOM     36  O   LIG    1       24.622 -29.904  14.146  0.00  0.00    -0.269 OA
ENDBRANCH  26  35
ENDBRANCH  25  30
ENDBRANCH   1  25
TORSDOF 6
ENDMDL
MODEL 8
REMARK VINA RESULT:      -8.0      4.771     10.813
REMARK  Name = *****
REMARK                            x       y       z     vdW  Elec       q    Type
REMARK                         _______ _______ _______ _____ _____    ______ ____
ROOT
ATOM      1  C   LIG    1       24.329 -25.727   6.137  0.00  0.00    +0.131 A 
ATOM      2  C   LIG    1       23.495 -24.651   6.474  0.00  0.00    +0.086 A 
ATOM      3  C   LIG    1       24.052 -23.424   6.867  0.00  0.00    +0.148 A 
ATOM      4  F   LIG    1       23.238 -22.419   7.231  0.00  0.00    -0.203 F 
ATOM      5  C   LIG    1       25.435 -23.237   6.935  0.00  0.00    +0.070 A 
ATOM      6  C   LIG    1       26.252 -24.287   6.514  0.00  0.00    +0.030 A 
ATOM      7  C   LIG    1       25.705 -25.502   6.092  0.00  0.00    +0.048 A 
ENDROOT
BRANCH   5   8
ATOM      8  N   LIG    1       25.945 -22.002   7.415  0.00  0.00    -0.267 N 
ATOM      9  H   LIG    1       25.331 -21.478   8.026  0.00  0.00    +0.157 HD
ATOM     10  C   LIG    1       27.271 -21.621   7.336  0.00  0.00    +0.308 C 
ATOM     11  N   LIG    1       27.510 -20.378   7.880  0.00  0.00    -0.269 N 
ATOM     12  H   LIG    1       26.715 -19.881   8.257  0.00  0.00    +0.156 HD
ATOM     13  O   LIG    1       28.150 -22.347   6.853  0.00  0.00    -0.252 OA
BRANCH  11  14
ATOM     14  C   LIG    1       28.765 -19.728   7.952  0.00  0.00    +0.035 A 
ATOM     15  C   LIG    1       29.046 -18.969   9.092  0.00  0.00    +0.037 A 
ATOM     16  C   LIG    1       30.277 -18.284   9.248  0.00  0.00    +0.075 A 
ATOM     17  C   LIG    1       31.222 -18.363   8.221  0.00  0.00    +0.053 A 
ATOM     18 CL   LIG    1       32.748 -17.565   8.260  0.00  0.00    -0.083 Cl
ATOM     19  C   LIG    1       30.949 -19.122   7.083  0.00  0.00    +0.022 A 
ATOM     20  C   LIG    1       29.736 -19.800   6.954  0.00  0.00    +0.025 A 
BRANCH  16  21
ATOM     21  C   LIG    1       30.476 -17.524  10.530  0.00  0.00    +0.419 C 
ATOM     22  F   LIG    1       29.408 -17.677  11.368  0.00  0.00    -0.166 F 
ATOM     23  F   LIG    1       30.564 -16.180  10.308  0.00  0.00    -0.166 F 
ATOM     24  F   LIG    1       31.566 -17.843  11.271  0.00  0.00    -0.166 F 
ENDBRANCH  16  21
ENDBRANCH  11  14
ENDBRANCH   5   8
BRANCH   1  25
ATOM     25  O   LIG    1       23.743 -26.945   5.821  0.00  0.00    -0.456 OA
BRANCH  25  30
ATOM     26  C   LIG    1       25.278 -29.667   7.720  0.00  0.00    +0.129 A 
ATOM     27  N   LIG    1       25.679 -30.555   6.764  0.00  0.00    -0.250 NA
ATOM     28  C   LIG    1       25.484 -30.183   5.487  0.00  0.00    +0.115 A 
ATOM     29  C   LIG    1       24.942 -28.964   5.115  0.00  0.00    +0.066 A 
ATOM     30  C   LIG    1       24.413 -28.129   6.106  0.00  0.00    +0.132 A 
ATOM     31  C   LIG    1       24.622 -28.466   7.442  0.00  0.00    +0.079 A 
BRANCH  26  35
ATOM     32  C   LIG    1       27.546 -29.790  10.746  0.00  0.00    +0.128 C 
ATOM     33  N   LIG    1       26.970 -29.591   9.437  0.00  0.00    -0.313 N 
ATOM     34  H   LIG    1       27.489 -29.111   8.717  0.00  0.00    +0.149 HD
ATOM     35  C   LIG    1       25.700 -30.025   9.108  0.00  0.00    +0.262 C 
ATOM     36  O   LIG    1       24.950 -30.631   9.871  0.00  0.00    -0.269 OA
ENDBRANCH  26  35
ENDBRANCH  25  30
ENDBRANCH   1  25
TORSDOF 6
ENDMDL
MODEL 9
REMARK VINA RESULT:      -8.0      5.167     11.888
REMARK  Name = *****
REMARK                            x       y       z     vdW  Elec       q    Type
REMARK                         _______ _______ _______ _____ _____    ______ ____
ROOT
ATOM      1  C   LIG    1       24.311 -31.631   7.916  0.00  0.00    +0.131 A 
ATOM      2  C   LIG    1       24.877 -30.757   8.855  0.00  0.00    +0.086 A 
ATOM      3  C   LIG    1       25.381 -29.512   8.446  0.00  0.00    +0.148 A 
ATOM      4  F   LIG    1       25.962 -28.709   9.353  0.00  0.00    -0.203 F 
ATOM      5  C   LIG    1       25.336 -29.109   7.110  0.00  0.00    +0.070 A 
ATOM      6  C   LIG    1       24.693 -29.949   6.200  0.00  0.00    +0.030 A 
ATOM      7  C   LIG    1       24.161 -31.177   6.604  0.00  0.00    +0.048 A 
ENDROOT
BRANCH   5   8
ATOM      8  N   LIG    1       25.931 -27.875   6.738  0.00  0.00    -0.267 N 
ATOM      9  H   LIG    1       26.875 -27.931   6.375  0.00  0.00    +0.157 HD
ATOM     10  C   LIG    1       25.238 -26.690   6.578  0.00  0.00    +0.308 C 
ATOM     11  N   LIG    1       26.045 -25.637   6.206  0.00  0.00    -0.269 N 
ATOM     12  H   LIG    1       27.032 -25.828   6.105  0.00  0.00    +0.156 HD
ATOM     13  O   LIG    1       24.011 -26.605   6.724  0.00  0.00    -0.252 OA
BRANCH  11  14
ATOM     14  C   LIG    1       25.620 -24.309   5.962  0.00  0.00    +0.035 A 
ATOM     15  C   LIG    1       26.003 -23.320   6.873  0.00  0.00    +0.037 A 
ATOM     16  C   LIG    1       25.622 -21.965   6.707  0.00  0.00    +0.075 A 
ATOM     17  C   LIG    1       24.830 -21.621   5.609  0.00  0.00    +0.053 A 
ATOM     18 CL   LIG    1       24.271 -20.023   5.293  0.00  0.00    -0.083 Cl
ATOM     19  C   LIG    1       24.448 -22.603   4.695  0.00  0.00    +0.022 A 
ATOM     20  C   LIG    1       24.843 -23.930   4.869  0.00  0.00    +0.025 A 
BRANCH  16  21
ATOM     21  C   LIG    1       26.119 -20.987   7.738  0.00  0.00    +0.419 C 
ATOM     22  F   LIG    1       26.827 -21.619   8.720  0.00  0.00    -0.166 F 
ATOM     23  F   LIG    1       25.087 -20.371   8.383  0.00  0.00    -0.166 F 
ATOM     24  F   LIG    1       26.923 -19.987   7.297  0.00  0.00    -0.166 F 
ENDBRANCH  16  21
ENDBRANCH  11  14
ENDBRANCH   5   8
BRANCH   1  25
ATOM     25  O   LIG    1       23.887 -32.881   8.344  0.00  0.00    -0.456 OA
BRANCH  25  30
ATOM     26  C   LIG    1       21.075 -32.492  10.647  0.00  0.00    +0.129 A 
ATOM     27  N   LIG    1       21.423 -33.248  11.729  0.00  0.00    -0.250 NA
ATOM     28  C   LIG    1       22.638 -33.821  11.688  0.00  0.00    +0.115 A 
ATOM     29  C   LIG    1       23.532 -33.654  10.643  0.00  0.00    +0.066 A 
ATOM     30  C   LIG    1       23.105 -32.992   9.488  0.00  0.00    +0.132 A 
ATOM     31  C   LIG    1       21.862 -32.359   9.503  0.00  0.00    +0.079 A 
BRANCH  26  35
ATOM     32  C   LIG    1       17.831 -31.444  12.289  0.00  0.00    +0.128 C 
ATOM     33  N   LIG    1       19.058 -32.105  11.914  0.00  0.00    -0.313 N 
ATOM     34  H   LIG    1       19.407 -32.882  12.454  0.00  0.00    +0.149 HD
ATOM     35  C   LIG    1       19.813 -31.711  10.824  0.00  0.00    +0.262 C 
ATOM     36  O   LIG    1       19.516 -30.790  10.066  0.00  0.00    -0.269 OA
ENDBRANCH  26  35
ENDBRANCH  25  30
ENDBRANCH   1  25
TORSDOF 6
ENDMDL
