MODEL 1
REMARK VINA RESULT:      -8.7      0.000      0.000
REMARK  Name = *****
REMARK                            x       y       z     vdW  Elec       q    Type
REMARK                         _______ _______ _______ _____ _____    ______ ____
ROOT
ATOM      1  C   LIG    1       25.319 -25.661   6.266  0.00  0.00    +0.129 C 
ENDROOT
BRANCH   1   2
ATOM      2  O   LIG    1       24.095 -25.721   5.544  0.00  0.00    -0.391 OA
ATOM      3  H   LIG    1       23.605 -24.907   5.737  0.00  0.00    +0.210 HD
ENDBRANCH   1   2
BRANCH   1   4
ATOM      4  C   LIG    1       25.495 -26.857   7.265  0.00  0.00    +0.116 C 
BRANCH   4   6
ATOM      5  C   LIG    1       24.874 -29.241   7.767  0.00  0.00    +0.157 C 
ATOM      6  N   LIG    1       25.150 -28.191   6.745  0.00  0.00    -0.287 NA
ATOM      7  C   LIG    1       26.122 -28.670   5.740  0.00  0.00    +0.100 C 
ATOM      8  C   LIG    1       25.636 -29.962   5.054  0.00  0.00    +0.100 C 
ATOM      9  N   LIG    1       25.487 -31.080   5.999  0.00  0.00    -0.295 NA
ATOM     10  C   LIG    1       24.637 -30.658   7.142  0.00  0.00    +0.113 C 
BRANCH   5  13
ATOM     11  N   LIG    1       25.262 -28.997  10.218  0.00  0.00    -0.309 N 
ATOM     12  H   LIG    1       24.405 -28.486  10.097  0.00  0.00    +0.149 HD
ATOM     13  C   LIG    1       25.887 -29.291   8.991  0.00  0.00    +0.232 C 
ATOM     14  O   LIG    1       27.057 -29.538   8.889  0.00  0.00    -0.274 OA
BRANCH  11  16
ATOM     15  C   LIG    1       26.992 -27.819  11.518  0.00  0.00    +0.031 C 
ATOM     16  C   LIG    1       25.853 -28.880  11.566  0.00  0.00    +0.026 C 
ATOM     17  C   LIG    1       24.774 -28.380  12.516  0.00  0.00    +0.031 C 
ATOM     18  C   LIG    1       26.484 -30.173  12.115  0.00  0.00    +0.031 C 
ENDBRANCH  11  16
ENDBRANCH   5  13
BRANCH   9  19
ATOM     19  C   LIG    1       24.950 -32.250   5.277  0.00  0.00    +0.121 C 
BRANCH  19  20
ATOM     20  C   LIG    1       25.843 -32.778   4.187  0.00  0.00    -0.015 A 
ATOM     21  C   LIG    1       25.468 -32.728   2.848  0.00  0.00    +0.115 A 
ATOM     22  N   LIG    1       26.239 -33.175   1.828  0.00  0.00    -0.263 NA
ATOM     23  C   LIG    1       27.438 -33.698   2.157  0.00  0.00    +0.111 A 
ATOM     24  C   LIG    1       27.895 -33.819   3.458  0.00  0.00    +0.020 A 
ATOM     25  C   LIG    1       27.090 -33.339   4.483  0.00  0.00    +0.008 A 
ENDBRANCH  19  20
ENDBRANCH   9  19
ENDBRANCH   4   6
ENDBRANCH   1   4
BRANCH   1  26
ATOM     26  C   LIG    1       25.299 -24.342   7.036  0.00  0.00    +0.045 C 
BRANCH  26  27
ATOM     27  C   LIG    1       25.458 -23.046   6.200  0.00  0.00    +0.082 C 
BRANCH  27  28
ATOM     28  C   LIG    1       26.109 -21.956   7.100  0.00  0.00    +0.217 C 
ATOM     29  N   LIG    1       27.160 -21.242   6.546  0.00  0.00    -0.306 N 
ATOM     30  H   LIG    1       27.088 -21.093   5.551  0.00  0.00    +0.149 HD
ATOM     31  O   LIG    1       25.790 -21.818   8.284  0.00  0.00    -0.276 OA
BRANCH  29  32
ATOM     32  C   LIG    1       27.830 -20.124   7.264  0.00  0.00    +0.132 C 
ATOM     33  C   LIG    1       28.280 -18.978   6.282  0.00  0.00    +0.143 C 
ATOM     34  C   LIG    1       29.737 -18.584   6.605  0.00  0.00    +0.069 C 
ATOM     35  C   LIG    1       30.223 -19.774   7.364  0.00  0.00    -0.040 A 
ATOM     36  C   LIG    1       31.544 -20.050   7.690  0.00  0.00    +0.004 A 
ATOM     37  C   LIG    1       31.803 -21.094   8.573  0.00  0.00    +0.000 A 
ATOM     38  C   LIG    1       30.742 -21.792   9.164  0.00  0.00    +0.000 A 
ATOM     39  C   LIG    1       29.413 -21.524   8.804  0.00  0.00    +0.006 A 
ATOM     40  C   LIG    1       29.162 -20.551   7.845  0.00  0.00    -0.021 A 
BRANCH  33  41
ATOM     41  O   LIG    1       28.247 -19.439   4.917  0.00  0.00    -0.389 OA
ATOM     42  H   LIG    1       29.044 -19.087   4.485  0.00  0.00    +0.210 HD
ENDBRANCH  33  41
ENDBRANCH  29  32
ENDBRANCH  27  28
BRANCH  27  43
ATOM     43  C   LIG    1       24.047 -22.587   5.713  0.00  0.00    +0.048 C 
BRANCH  43  44
ATOM     44  C   LIG    1       23.835 -21.233   5.030  0.00  0.00    -0.047 A 
ATOM     45  C   LIG    1       24.640 -20.698   4.016  0.00  0.00    +0.003 A 
ATOM     46  C   LIG    1       24.364 -19.450   3.438  0.00  0.00    +0.000 A 
ATOM     47  C   LIG    1       23.299 -18.683   3.896  0.00  0.00    +0.000 A 
ATOM     48  C   LIG    1       22.488 -19.184   4.908  0.00  0.00    +0.000 A 
ATOM     49  C   LIG    1       22.744 -20.449   5.455  0.00  0.00    +0.003 A 
ENDBRANCH  43  44
ENDBRANCH  27  43
ENDBRANCH  26  27
ENDBRANCH   1  26
TORSDOF 14
ENDMDL
MODEL 2
REMARK VINA RESULT:      -8.5      2.245     10.630
REMARK  Name = *****
REMARK                            x       y       z     vdW  Elec       q    Type
REMARK                         _______ _______ _______ _____ _____    ______ ____
ROOT
ATOM      1  C   LIG    1       24.243 -25.475   5.661  0.00  0.00    +0.129 C 
ENDROOT
BRANCH   1   2
ATOM      2  O   LIG    1       24.991 -24.968   4.563  0.00  0.00    -0.391 OA
ATOM      3  H   LIG    1       24.595 -24.120   4.309  0.00  0.00    +0.210 HD
ENDBRANCH   1   2
BRANCH   1   4
ATOM      4  C   LIG    1       23.559 -24.343   6.504  0.00  0.00    +0.116 C 
BRANCH   4   6
ATOM      5  C   LIG    1       23.983 -21.992   7.287  0.00  0.00    +0.157 C 
ATOM      6  N   LIG    1       24.467 -23.398   7.176  0.00  0.00    -0.287 NA
ATOM      7  C   LIG    1       25.836 -23.446   6.623  0.00  0.00    +0.100 C 
ATOM      8  C   LIG    1       26.818 -22.614   7.471  0.00  0.00    +0.100 C 
ATOM      9  N   LIG    1       26.470 -21.184   7.494  0.00  0.00    -0.295 NA
ATOM     10  C   LIG    1       25.051 -21.023   7.900  0.00  0.00    +0.113 C 
BRANCH   5  13
ATOM     11  N   LIG    1       24.191 -20.560   5.257  0.00  0.00    -0.309 N 
ATOM     12  H   LIG    1       24.943 -20.212   5.827  0.00  0.00    +0.149 HD
ATOM     13  C   LIG    1       23.313 -21.390   5.977  0.00  0.00    +0.232 C 
ATOM     14  O   LIG    1       22.181 -21.604   5.640  0.00  0.00    -0.274 OA
BRANCH  11  16
ATOM     15  C   LIG    1       25.208 -18.914   3.733  0.00  0.00    +0.031 C 
ATOM     16  C   LIG    1       23.944 -19.770   4.034  0.00  0.00    +0.026 C 
ATOM     17  C   LIG    1       23.736 -20.739   2.878  0.00  0.00    +0.031 C 
ATOM     18  C   LIG    1       22.761 -18.788   4.121  0.00  0.00    +0.031 C 
ENDBRANCH  11  16
ENDBRANCH   5  13
BRANCH   9  19
ATOM     19  C   LIG    1       27.413 -20.477   8.383  0.00  0.00    +0.121 C 
BRANCH  19  20
ATOM     20  C   LIG    1       28.695 -20.047   7.723  0.00  0.00    -0.015 A 
ATOM     21  C   LIG    1       29.936 -20.346   8.274  0.00  0.00    +0.115 A 
ATOM     22  N   LIG    1       31.119 -19.997   7.715  0.00  0.00    -0.263 NA
ATOM     23  C   LIG    1       31.063 -19.314   6.553  0.00  0.00    +0.111 A 
ATOM     24  C   LIG    1       29.882 -18.942   5.934  0.00  0.00    +0.020 A 
ATOM     25  C   LIG    1       28.684 -19.328   6.523  0.00  0.00    +0.008 A 
ENDBRANCH  19  20
ENDBRANCH   9  19
ENDBRANCH   4   6
ENDBRANCH   1   4
BRANCH   1  26
ATOM     26  C   LIG    1       25.231 -26.245   6.535  0.00  0.00    +0.045 C 
BRANCH  26  27
ATOM     27  C   LIG    1       24.851 -27.705   6.891  0.00  0.00    +0.082 C 
BRANCH  27  28
ATOM     28  C   LIG    1       25.840 -28.221   7.977  0.00  0.00    +0.217 C 
ATOM     29  N   LIG    1       25.324 -29.097   8.919  0.00  0.00    -0.306 N 
ATOM     30  H   LIG    1       24.598 -29.706   8.573  0.00  0.00    +0.149 HD
ATOM     31  O   LIG    1       26.989 -27.780   8.068  0.00  0.00    -0.276 OA
BRANCH  29  32
ATOM     32  C   LIG    1       26.170 -29.724   9.971  0.00  0.00    +0.132 C 
ATOM     33  C   LIG    1       25.575 -31.096  10.466  0.00  0.00    +0.143 C 
ATOM     34  C   LIG    1       25.587 -31.121  12.008  0.00  0.00    +0.069 C 
ATOM     35  C   LIG    1       25.700 -29.671  12.345  0.00  0.00    -0.040 A 
ATOM     36  C   LIG    1       25.513 -29.108  13.601  0.00  0.00    +0.004 A 
ATOM     37  C   LIG    1       25.853 -27.770  13.783  0.00  0.00    +0.000 A 
ATOM     38  C   LIG    1       26.434 -27.046  12.733  0.00  0.00    +0.000 A 
ATOM     39  C   LIG    1       26.589 -27.617  11.462  0.00  0.00    +0.006 A 
ATOM     40  C   LIG    1       26.154 -28.919  11.255  0.00  0.00    -0.021 A 
BRANCH  33  41
ATOM     41  O   LIG    1       24.207 -31.238  10.038  0.00  0.00    -0.389 OA
ATOM     42  H   LIG    1       24.008 -30.467   9.479  0.00  0.00    +0.210 HD
ENDBRANCH  33  41
ENDBRANCH  29  32
ENDBRANCH  27  28
BRANCH  27  43
ATOM     43  C   LIG    1       24.946 -28.578   5.600  0.00  0.00    +0.048 C 
BRANCH  43  44
ATOM     44  C   LIG    1       24.834 -30.104   5.653  0.00  0.00    -0.047 A 
ATOM     45  C   LIG    1       23.791 -30.823   6.252  0.00  0.00    +0.003 A 
ATOM     46  C   LIG    1       23.763 -32.226   6.242  0.00  0.00    +0.000 A 
ATOM     47  C   LIG    1       24.806 -32.946   5.673  0.00  0.00    +0.000 A 
ATOM     48  C   LIG    1       25.859 -32.260   5.078  0.00  0.00    +0.000 A 
ATOM     49  C   LIG    1       25.863 -30.859   5.055  0.00  0.00    +0.003 A 
ENDBRANCH  43  44
ENDBRANCH  27  43
ENDBRANCH  26  27
ENDBRANCH   1  26
TORSDOF 14
ENDMDL
MODEL 3
REMARK VINA RESULT:      -8.2      1.988      3.326
REMARK  Name = *****
REMARK                            x       y       z     vdW  Elec       q    Type
REMARK                         _______ _______ _______ _____ _____    ______ ____
ROOT
ATOM      1  C   LIG    1       25.227 -26.144   6.210  0.00  0.00    +0.129 C 
ENDROOT
BRANCH   1   2
ATOM      2  O   LIG    1       23.813 -26.278   6.145  0.00  0.00    -0.391 OA
ATOM      3  H   LIG    1       23.474 -26.207   7.051  0.00  0.00    +0.210 HD
ENDBRANCH   1   2
BRANCH   1   4
ATOM      4  C   LIG    1       25.919 -27.347   6.942  0.00  0.00    +0.116 C 
BRANCH   4   6
ATOM      5  C   LIG    1       24.870 -28.941   8.578  0.00  0.00    +0.157 C 
ATOM      6  N   LIG    1       25.083 -28.539   7.158  0.00  0.00    -0.287 NA
ATOM      7  C   LIG    1       25.523 -29.690   6.341  0.00  0.00    +0.100 C 
ATOM      8  C   LIG    1       24.517 -30.855   6.417  0.00  0.00    +0.100 C 
ATOM      9  N   LIG    1       24.378 -31.391   7.780  0.00  0.00    -0.295 NA
ATOM     10  C   LIG    1       24.077 -30.284   8.724  0.00  0.00    +0.113 C 
BRANCH   5  13
ATOM     11  N   LIG    1       25.844 -28.842  10.871  0.00  0.00    -0.309 N 
ATOM     12  H   LIG    1       24.916 -28.490  11.031  0.00  0.00    +0.149 HD
ATOM     13  C   LIG    1       26.163 -28.909   9.502  0.00  0.00    +0.232 C 
ATOM     14  O   LIG    1       27.290 -28.926   9.087  0.00  0.00    -0.274 OA
BRANCH  11  16
ATOM     15  C   LIG    1       26.940 -27.229  12.376  0.00  0.00    +0.031 C 
ATOM     16  C   LIG    1       26.742 -28.736  12.039  0.00  0.00    +0.026 C 
ATOM     17  C   LIG    1       26.062 -29.406  13.224  0.00  0.00    +0.031 C 
ATOM     18  C   LIG    1       28.151 -29.325  11.834  0.00  0.00    +0.031 C 
ENDBRANCH  11  16
ENDBRANCH   5  13
BRANCH   9  19
ATOM     19  C   LIG    1       23.347 -32.448   7.777  0.00  0.00    +0.121 C 
BRANCH  19  20
ATOM     20  C   LIG    1       22.924 -32.915   9.143  0.00  0.00    -0.015 A 
ATOM     21  C   LIG    1       23.843 -33.406  10.064  0.00  0.00    +0.115 A 
ATOM     22  N   LIG    1       23.518 -33.825  11.311  0.00  0.00    -0.263 NA
ATOM     23  C   LIG    1       22.215 -33.755  11.654  0.00  0.00    +0.111 A 
ATOM     24  C   LIG    1       21.217 -33.309  10.805  0.00  0.00    +0.020 A 
ATOM     25  C   LIG    1       21.582 -32.871   9.537  0.00  0.00    +0.008 A 
ENDBRANCH  19  20
ENDBRANCH   9  19
ENDBRANCH   4   6
ENDBRANCH   1   4
BRANCH   1  26
ATOM     26  C   LIG    1       25.502 -24.849   6.971  0.00  0.00    +0.045 C 
BRANCH  26  27
ATOM     27  C   LIG    1       25.640 -23.559   6.121  0.00  0.00    +0.082 C 
BRANCH  27  28
ATOM     28  C   LIG    1       26.174 -22.420   7.038  0.00  0.00    +0.217 C 
ATOM     29  N   LIG    1       27.160 -21.606   6.503  0.00  0.00    -0.306 N 
ATOM     30  H   LIG    1       27.088 -21.456   5.508  0.00  0.00    +0.149 HD
ATOM     31  O   LIG    1       25.827 -22.321   8.217  0.00  0.00    -0.276 OA
BRANCH  29  32
ATOM     32  C   LIG    1       27.713 -20.436   7.238  0.00  0.00    +0.132 C 
ATOM     33  C   LIG    1       28.047 -19.237   6.273  0.00  0.00    +0.143 C 
ATOM     34  C   LIG    1       29.455 -18.702   6.605  0.00  0.00    +0.069 C 
ATOM     35  C   LIG    1       30.058 -19.847   7.350  0.00  0.00    -0.040 A 
ATOM     36  C   LIG    1       31.400 -19.993   7.676  0.00  0.00    +0.004 A 
ATOM     37  C   LIG    1       31.762 -21.017   8.546  0.00  0.00    +0.000 A 
ATOM     38  C   LIG    1       30.775 -21.826   9.125  0.00  0.00    +0.000 A 
ATOM     39  C   LIG    1       29.427 -21.689   8.764  0.00  0.00    +0.006 A 
ATOM     40  C   LIG    1       29.081 -20.734   7.817  0.00  0.00    -0.021 A 
BRANCH  33  41
ATOM     41  O   LIG    1       28.063 -19.680   4.902  0.00  0.00    -0.389 OA
ATOM     42  H   LIG    1       28.222 -20.640   4.922  0.00  0.00    +0.210 HD
ENDBRANCH  33  41
ENDBRANCH  29  32
ENDBRANCH  27  28
BRANCH  27  43
ATOM     43  C   LIG    1       24.239 -23.188   5.541  0.00  0.00    +0.048 C 
BRANCH  43  44
ATOM     44  C   LIG    1       23.916 -21.768   5.068  0.00  0.00    -0.047 A 
ATOM     45  C   LIG    1       24.572 -21.086   4.035  0.00  0.00    +0.003 A 
ATOM     46  C   LIG    1       24.201 -19.786   3.659  0.00  0.00    +0.000 A 
ATOM     47  C   LIG    1       23.192 -19.118   4.343  0.00  0.00    +0.000 A 
ATOM     48  C   LIG    1       22.529 -19.766   5.378  0.00  0.00    +0.000 A 
ATOM     49  C   LIG    1       22.876 -21.079   5.724  0.00  0.00    +0.003 A 
ENDBRANCH  43  44
ENDBRANCH  27  43
ENDBRANCH  26  27
ENDBRANCH   1  26
TORSDOF 14
ENDMDL
MODEL 4
REMARK VINA RESULT:      -8.2      2.324     11.078
REMARK  Name = *****
REMARK                            x       y       z     vdW  Elec       q    Type
REMARK                         _______ _______ _______ _____ _____    ______ ____
ROOT
ATOM      1  C   LIG    1       24.230 -25.636   5.616  0.00  0.00    +0.129 C 
ENDROOT
BRANCH   1   2
ATOM      2  O   LIG    1       25.021 -25.126   4.550  0.00  0.00    -0.391 OA
ATOM      3  H   LIG    1       25.317 -25.884   4.022  0.00  0.00    +0.210 HD
ENDBRANCH   1   2
BRANCH   1   4
ATOM      4  C   LIG    1       23.556 -24.504   6.468  0.00  0.00    +0.116 C 
BRANCH   4   6
ATOM      5  C   LIG    1       23.991 -22.171   7.295  0.00  0.00    +0.157 C 
ATOM      6  N   LIG    1       24.473 -23.574   7.149  0.00  0.00    -0.287 NA
ATOM      7  C   LIG    1       25.835 -23.611   6.578  0.00  0.00    +0.100 C 
ATOM      8  C   LIG    1       26.828 -22.797   7.432  0.00  0.00    +0.100 C 
ATOM      9  N   LIG    1       26.481 -21.368   7.489  0.00  0.00    -0.295 NA
ATOM     10  C   LIG    1       25.066 -21.215   7.915  0.00  0.00    +0.113 C 
BRANCH   5  13
ATOM     11  N   LIG    1       24.174 -20.691   5.297  0.00  0.00    -0.309 N 
ATOM     12  H   LIG    1       24.930 -20.355   5.867  0.00  0.00    +0.149 HD
ATOM     13  C   LIG    1       23.306 -21.541   6.007  0.00  0.00    +0.232 C 
ATOM     14  O   LIG    1       22.171 -21.750   5.675  0.00  0.00    -0.274 OA
BRANCH  11  16
ATOM     15  C   LIG    1       25.184 -19.037   3.777  0.00  0.00    +0.031 C 
ATOM     16  C   LIG    1       23.911 -19.875   4.094  0.00  0.00    +0.026 C 
ATOM     17  C   LIG    1       23.656 -20.818   2.927  0.00  0.00    +0.031 C 
ATOM     18  C   LIG    1       22.750 -18.872   4.229  0.00  0.00    +0.031 C 
ENDBRANCH  11  16
ENDBRANCH   5  13
BRANCH   9  19
ATOM     19  C   LIG    1       27.434 -20.680   8.382  0.00  0.00    +0.121 C 
BRANCH  19  20
ATOM     20  C   LIG    1       28.665 -20.151   7.696  0.00  0.00    -0.015 A 
ATOM     21  C   LIG    1       29.941 -20.402   8.191  0.00  0.00    +0.115 A 
ATOM     22  N   LIG    1       31.081 -19.963   7.606  0.00  0.00    -0.263 NA
ATOM     23  C   LIG    1       30.944 -19.238   6.477  0.00  0.00    +0.111 A 
ATOM     24  C   LIG    1       29.722 -18.909   5.916  0.00  0.00    +0.020 A 
ATOM     25  C   LIG    1       28.569 -19.385   6.529  0.00  0.00    +0.008 A 
ENDBRANCH  19  20
ENDBRANCH   9  19
ENDBRANCH   4   6
ENDBRANCH   1   4
BRANCH   1  26
ATOM     26  C   LIG    1       25.173 -26.454   6.497  0.00  0.00    +0.045 C 
BRANCH  26  27
ATOM     27  C   LIG    1       24.767 -27.926   6.769  0.00  0.00    +0.082 C 
BRANCH  27  28
ATOM     28  C   LIG    1       25.438 -28.384   8.096  0.00  0.00    +0.217 C 
ATOM     29  N   LIG    1       24.735 -29.301   8.861  0.00  0.00    -0.306 N 
ATOM     30  H   LIG    1       24.179 -29.954   8.329  0.00  0.00    +0.149 HD
ATOM     31  O   LIG    1       26.481 -27.869   8.506  0.00  0.00    -0.276 OA
BRANCH  29  32
ATOM     32  C   LIG    1       25.284 -29.880  10.117  0.00  0.00    +0.132 C 
ATOM     33  C   LIG    1       25.965 -31.280   9.873  0.00  0.00    +0.143 C 
ATOM     34  C   LIG    1       25.469 -32.272  10.945  0.00  0.00    +0.069 C 
ATOM     35  C   LIG    1       24.220 -31.613  11.431  0.00  0.00    -0.040 A 
ATOM     36  C   LIG    1       23.248 -32.195  12.233  0.00  0.00    +0.004 A 
ATOM     37  C   LIG    1       22.250 -31.381  12.759  0.00  0.00    +0.000 A 
ATOM     38  C   LIG    1       22.281 -29.998  12.533  0.00  0.00    +0.000 A 
ATOM     39  C   LIG    1       23.250 -29.427  11.696  0.00  0.00    +0.006 A 
ATOM     40  C   LIG    1       24.184 -30.255  11.089  0.00  0.00    -0.021 A 
BRANCH  33  41
ATOM     41  O   LIG    1       25.590 -31.807   8.586  0.00  0.00    -0.389 OA
ATOM     42  H   LIG    1       25.321 -32.731   8.731  0.00  0.00    +0.210 HD
ENDBRANCH  33  41
ENDBRANCH  29  32
ENDBRANCH  27  28
BRANCH  27  43
ATOM     43  C   LIG    1       25.250 -28.808   5.575  0.00  0.00    +0.048 C 
BRANCH  43  44
ATOM     44  C   LIG    1       24.973 -30.313   5.526  0.00  0.00    -0.047 A 
ATOM     45  C   LIG    1       23.765 -30.930   5.874  0.00  0.00    +0.003 A 
ATOM     46  C   LIG    1       23.596 -32.320   5.788  0.00  0.00    +0.000 A 
ATOM     47  C   LIG    1       24.652 -33.133   5.393  0.00  0.00    +0.000 A 
ATOM     48  C   LIG    1       25.866 -32.550   5.049  0.00  0.00    +0.000 A 
ATOM     49  C   LIG    1       26.018 -31.158   5.099  0.00  0.00    +0.003 A 
ENDBRANCH  43  44
ENDBRANCH  27  43
ENDBRANCH  26  27
ENDBRANCH   1  26
TORSDOF 14
ENDMDL
MODEL 5
REMARK VINA RESULT:      -7.5      4.119     10.744
REMARK  Name = *****
REMARK                            x       y       z     vdW  Elec       q    Type
REMARK                         _______ _______ _______ _____ _____    ______ ____
ROOT
ATOM      1  C   LIG    1       25.812 -29.103  11.603  0.00  0.00    +0.129 C 
ENDROOT
BRANCH   1   2
ATOM      2  O   LIG    1       26.556 -27.903  11.436  0.00  0.00    -0.391 OA
ATOM      3  H   LIG    1       26.344 -27.325  12.186  0.00  0.00    +0.210 HD
ENDBRANCH   1   2
BRANCH   1   4
ATOM      4  C   LIG    1       25.577 -29.866  10.253  0.00  0.00    +0.116 C 
BRANCH   4   6
ATOM      5  C   LIG    1       24.376 -29.633   8.057  0.00  0.00    +0.157 C 
ATOM      6  N   LIG    1       25.275 -29.027   9.081  0.00  0.00    -0.287 NA
ATOM      7  C   LIG    1       26.494 -28.475   8.456  0.00  0.00    +0.100 C 
ATOM      8  C   LIG    1       26.153 -27.436   7.370  0.00  0.00    +0.100 C 
ATOM      9  N   LIG    1       25.388 -28.017   6.255  0.00  0.00    -0.295 NA
ATOM     10  C   LIG    1       24.200 -28.734   6.786  0.00  0.00    +0.113 C 
BRANCH   5  13
ATOM     11  N   LIG    1       25.472 -31.260   6.518  0.00  0.00    -0.309 N 
ATOM     12  H   LIG    1       25.426 -30.437   5.943  0.00  0.00    +0.149 HD
ATOM     13  C   LIG    1       24.685 -31.146   7.679  0.00  0.00    +0.232 C 
ATOM     14  O   LIG    1       24.285 -32.092   8.301  0.00  0.00    -0.274 OA
BRANCH  11  16
ATOM     15  C   LIG    1       26.095 -32.128   4.299  0.00  0.00    +0.031 C 
ATOM     16  C   LIG    1       25.924 -32.473   5.808  0.00  0.00    +0.026 C 
ATOM     17  C   LIG    1       27.283 -32.872   6.365  0.00  0.00    +0.031 C 
ATOM     18  C   LIG    1       24.953 -33.667   5.875  0.00  0.00    +0.031 C 
ENDBRANCH  11  16
ENDBRANCH   5  13
BRANCH   9  19
ATOM     19  C   LIG    1       25.041 -26.944   5.302  0.00  0.00    +0.121 C 
BRANCH  19  20
ATOM     20  C   LIG    1       24.885 -25.581   5.922  0.00  0.00    -0.015 A 
ATOM     21  C   LIG    1       25.983 -24.768   6.181  0.00  0.00    +0.115 A 
ATOM     22  N   LIG    1       25.899 -23.529   6.723  0.00  0.00    -0.263 NA
ATOM     23  C   LIG    1       24.662 -23.081   7.023  0.00  0.00    +0.111 A 
ATOM     24  C   LIG    1       23.508 -23.820   6.831  0.00  0.00    +0.020 A 
ATOM     25  C   LIG    1       23.623 -25.082   6.260  0.00  0.00    +0.008 A 
ENDBRANCH  19  20
ENDBRANCH   9  19
ENDBRANCH   4   6
ENDBRANCH   1   4
BRANCH   1  26
ATOM     26  C   LIG    1       24.469 -28.696  12.207  0.00  0.00    +0.045 C 
BRANCH  26  27
ATOM     27  C   LIG    1       24.202 -29.142  13.669  0.00  0.00    +0.082 C 
BRANCH  27  28
ATOM     28  C   LIG    1       23.243 -30.367  13.642  0.00  0.00    +0.217 C 
ATOM     29  N   LIG    1       22.479 -30.531  12.497  0.00  0.00    -0.306 N 
ATOM     30  H   LIG    1       22.926 -30.226  11.646  0.00  0.00    +0.149 HD
ATOM     31  O   LIG    1       23.082 -31.085  14.632  0.00  0.00    -0.276 OA
BRANCH  29  32
ATOM     32  C   LIG    1       21.573 -31.695  12.303  0.00  0.00    +0.132 C 
ATOM     33  C   LIG    1       21.412 -32.072  10.782  0.00  0.00    +0.143 C 
ATOM     34  C   LIG    1       19.914 -32.269  10.470  0.00  0.00    +0.069 C 
ATOM     35  C   LIG    1       19.259 -31.554  11.605  0.00  0.00    -0.040 A 
ATOM     36  C   LIG    1       17.915 -31.218  11.691  0.00  0.00    +0.004 A 
ATOM     37  C   LIG    1       17.430 -30.733  12.902  0.00  0.00    +0.000 A 
ATOM     38  C   LIG    1       18.276 -30.661  14.017  0.00  0.00    +0.000 A 
ATOM     39  C   LIG    1       19.639 -30.974  13.909  0.00  0.00    +0.006 A 
ATOM     40  C   LIG    1       20.143 -31.359  12.674  0.00  0.00    -0.021 A 
BRANCH  33  41
ATOM     41  O   LIG    1       21.894 -31.004   9.943  0.00  0.00    -0.389 OA
ATOM     42  H   LIG    1       22.855 -30.952  10.085  0.00  0.00    +0.210 HD
ENDBRANCH  33  41
ENDBRANCH  29  32
ENDBRANCH  27  28
BRANCH  27  43
ATOM     43  C   LIG    1       23.554 -27.952  14.445  0.00  0.00    +0.048 C 
BRANCH  43  44
ATOM     44  C   LIG    1       22.079 -27.582  14.262  0.00  0.00    -0.047 A 
ATOM     45  C   LIG    1       21.518 -27.028  13.104  0.00  0.00    +0.003 A 
ATOM     46  C   LIG    1       20.149 -26.729  13.021  0.00  0.00    +0.000 A 
ATOM     47  C   LIG    1       19.316 -26.936  14.113  0.00  0.00    +0.000 A 
ATOM     48  C   LIG    1       19.847 -27.477  15.279  0.00  0.00    +0.000 A 
ATOM     49  C   LIG    1       21.207 -27.811  15.345  0.00  0.00    +0.003 A 
ENDBRANCH  43  44
ENDBRANCH  27  43
ENDBRANCH  26  27
ENDBRANCH   1  26
TORSDOF 14
ENDMDL
MODEL 6
REMARK VINA RESULT:      -7.4      2.143      5.048
REMARK  Name = *****
REMARK                            x       y       z     vdW  Elec       q    Type
REMARK                         _______ _______ _______ _____ _____    ______ ____
ROOT
ATOM      1  C   LIG    1       26.280 -26.734   6.862  0.00  0.00    +0.129 C 
ENDROOT
BRANCH   1   2
ATOM      2  O   LIG    1       26.889 -26.591   5.585  0.00  0.00    -0.391 OA
ATOM      3  H   LIG    1       26.497 -27.258   5.001  0.00  0.00    +0.210 HD
ENDBRANCH   1   2
BRANCH   1   4
ATOM      4  C   LIG    1       25.260 -27.925   6.920  0.00  0.00    +0.116 C 
BRANCH   4   6
ATOM      5  C   LIG    1       26.116 -30.198   7.566  0.00  0.00    +0.157 C 
ATOM      6  N   LIG    1       25.483 -28.915   7.986  0.00  0.00    -0.287 NA
ATOM      7  C   LIG    1       24.267 -29.160   8.788  0.00  0.00    +0.100 C 
ATOM      8  C   LIG    1       24.569 -30.031  10.024  0.00  0.00    +0.100 C 
ATOM      9  N   LIG    1       25.060 -31.370   9.662  0.00  0.00    -0.295 NA
ATOM     10  C   LIG    1       26.208 -31.246   8.727  0.00  0.00    +0.113 C 
BRANCH   5  13
ATOM     11  N   LIG    1       26.245 -32.000   5.847  0.00  0.00    -0.309 N 
ATOM     12  H   LIG    1       27.162 -32.045   6.257  0.00  0.00    +0.149 HD
ATOM     13  C   LIG    1       25.546 -30.839   6.228  0.00  0.00    +0.232 C 
ATOM     14  O   LIG    1       24.631 -30.384   5.598  0.00  0.00    -0.274 OA
BRANCH  11  16
ATOM     15  C   LIG    1       27.281 -33.825   4.558  0.00  0.00    +0.031 C 
ATOM     16  C   LIG    1       26.073 -32.848   4.651  0.00  0.00    +0.026 C 
ATOM     17  C   LIG    1       24.805 -33.672   4.832  0.00  0.00    +0.031 C 
ATOM     18  C   LIG    1       26.022 -32.086   3.313  0.00  0.00    +0.031 C 
ENDBRANCH  11  16
ENDBRANCH   5  13
BRANCH   9  19
ATOM     19  C   LIG    1       25.393 -32.107  10.897  0.00  0.00    +0.121 C 
BRANCH  19  20
ATOM     20  C   LIG    1       24.207 -32.479  11.745  0.00  0.00    -0.015 A 
ATOM     21  C   LIG    1       23.993 -31.903  12.992  0.00  0.00    +0.115 A 
ATOM     22  N   LIG    1       22.936 -32.191  13.789  0.00  0.00    -0.263 NA
ATOM     23  C   LIG    1       22.052 -33.097  13.322  0.00  0.00    +0.111 A 
ATOM     24  C   LIG    1       22.186 -33.748  12.108  0.00  0.00    +0.020 A 
ATOM     25  C   LIG    1       23.272 -33.422  11.305  0.00  0.00    +0.008 A 
ENDBRANCH  19  20
ENDBRANCH   9  19
ENDBRANCH   4   6
ENDBRANCH   1   4
BRANCH   1  26
ATOM     26  C   LIG    1       25.555 -25.419   7.142  0.00  0.00    +0.045 C 
BRANCH  26  27
ATOM     27  C   LIG    1       25.908 -24.221   6.223  0.00  0.00    +0.082 C 
BRANCH  27  28
ATOM     28  C   LIG    1       26.300 -23.011   7.120  0.00  0.00    +0.217 C 
ATOM     29  N   LIG    1       27.208 -22.111   6.584  0.00  0.00    -0.306 N 
ATOM     30  H   LIG    1       27.143 -21.993   5.584  0.00  0.00    +0.149 HD
ATOM     31  O   LIG    1       25.919 -22.921   8.290  0.00  0.00    -0.276 OA
BRANCH  29  32
ATOM     32  C   LIG    1       27.619 -20.872   7.299  0.00  0.00    +0.132 C 
ATOM     33  C   LIG    1       27.777 -19.650   6.318  0.00  0.00    +0.143 C 
ATOM     34  C   LIG    1       29.111 -18.935   6.618  0.00  0.00    +0.069 C 
ATOM     35  C   LIG    1       29.871 -19.985   7.359  0.00  0.00    -0.040 A 
ATOM     36  C   LIG    1       31.226 -19.954   7.658  0.00  0.00    +0.004 A 
ATOM     37  C   LIG    1       31.734 -20.915   8.527  0.00  0.00    +0.000 A 
ATOM     38  C   LIG    1       30.871 -21.838   9.132  0.00  0.00    +0.000 A 
ATOM     39  C   LIG    1       29.510 -21.879   8.798  0.00  0.00    +0.006 A 
ATOM     40  C   LIG    1       29.025 -20.986   7.852  0.00  0.00    -0.021 A 
BRANCH  33  41
ATOM     41  O   LIG    1       27.823 -20.101   4.951  0.00  0.00    -0.389 OA
ATOM     42  H   LIG    1       28.359 -20.912   4.943  0.00  0.00    +0.210 HD
ENDBRANCH  33  41
ENDBRANCH  29  32
ENDBRANCH  27  28
BRANCH  27  43
ATOM     43  C   LIG    1       24.663 -23.877   5.347  0.00  0.00    +0.048 C 
BRANCH  43  44
ATOM     44  C   LIG    1       24.179 -22.434   5.171  0.00  0.00    -0.047 A 
ATOM     45  C   LIG    1       24.534 -21.579   4.120  0.00  0.00    +0.003 A 
ATOM     46  C   LIG    1       24.032 -20.272   4.032  0.00  0.00    +0.000 A 
ATOM     47  C   LIG    1       23.196 -19.772   5.023  0.00  0.00    +0.000 A 
ATOM     48  C   LIG    1       22.832 -20.595   6.083  0.00  0.00    +0.000 A 
ATOM     49  C   LIG    1       23.305 -21.913   6.146  0.00  0.00    +0.003 A 
ENDBRANCH  43  44
ENDBRANCH  27  43
ENDBRANCH  26  27
ENDBRANCH   1  26
TORSDOF 14
ENDMDL
MODEL 7
REMARK VINA RESULT:      -7.3      2.280     10.995
REMARK  Name = *****
REMARK                            x       y       z     vdW  Elec       q    Type
REMARK                         _______ _______ _______ _____ _____    ______ ____
ROOT
ATOM      1  C   LIG    1       25.577 -26.716   5.915  0.00  0.00    +0.129 C 
ENDROOT
BRANCH   1   2
ATOM      2  O   LIG    1       26.739 -26.682   5.096  0.00  0.00    -0.391 OA
ATOM      3  H   LIG    1       27.070 -27.591   5.026  0.00  0.00    +0.210 HD
ENDBRANCH   1   2
BRANCH   1   4
ATOM      4  C   LIG    1       25.386 -25.405   6.755  0.00  0.00    +0.116 C 
BRANCH   4   6
ATOM      5  C   LIG    1       25.332 -23.078   5.806  0.00  0.00    +0.157 C 
ATOM      6  N   LIG    1       24.597 -24.338   6.117  0.00  0.00    -0.287 NA
ATOM      7  C   LIG    1       23.343 -24.054   6.844  0.00  0.00    +0.100 C 
ATOM      8  C   LIG    1       22.434 -23.094   6.052  0.00  0.00    +0.100 C 
ATOM      9  N   LIG    1       23.055 -21.776   5.843  0.00  0.00    -0.295 NA
ATOM     10  C   LIG    1       24.403 -21.948   5.244  0.00  0.00    +0.113 C 
BRANCH   5  13
ATOM     11  N   LIG    1       27.104 -21.476   6.521  0.00  0.00    -0.309 N 
ATOM     12  H   LIG    1       27.198 -21.448   5.520  0.00  0.00    +0.149 HD
ATOM     13  C   LIG    1       26.294 -22.543   6.952  0.00  0.00    +0.232 C 
ATOM     14  O   LIG    1       26.342 -23.000   8.061  0.00  0.00    -0.274 OA
BRANCH  11  16
ATOM     15  C   LIG    1       28.797 -19.702   6.285  0.00  0.00    +0.031 C 
ATOM     16  C   LIG    1       28.160 -20.746   7.250  0.00  0.00    +0.026 C 
ATOM     17  C   LIG    1       27.510 -19.996   8.403  0.00  0.00    +0.031 C 
ATOM     18  C   LIG    1       29.316 -21.621   7.771  0.00  0.00    +0.031 C 
ENDBRANCH  11  16
ENDBRANCH   5  13
BRANCH   9  19
ATOM     19  C   LIG    1       22.154 -20.947   5.018  0.00  0.00    +0.121 C 
BRANCH  19  20
ATOM     20  C   LIG    1       22.730 -19.622   4.597  0.00  0.00    -0.015 A 
ATOM     21  C   LIG    1       23.964 -19.532   3.962  0.00  0.00    +0.115 A 
ATOM     22  N   LIG    1       24.522 -18.369   3.549  0.00  0.00    -0.263 NA
ATOM     23  C   LIG    1       23.819 -17.242   3.785  0.00  0.00    +0.111 A 
ATOM     24  C   LIG    1       22.596 -17.218   4.433  0.00  0.00    +0.020 A 
ATOM     25  C   LIG    1       22.041 -18.428   4.832  0.00  0.00    +0.008 A 
ENDBRANCH  19  20
ENDBRANCH   9  19
ENDBRANCH   4   6
ENDBRANCH   1   4
BRANCH   1  26
ATOM     26  C   LIG    1       25.746 -27.910   6.853  0.00  0.00    +0.045 C 
BRANCH  26  27
ATOM     27  C   LIG    1       24.475 -28.747   7.149  0.00  0.00    +0.082 C 
BRANCH  27  28
ATOM     28  C   LIG    1       24.734 -29.602   8.423  0.00  0.00    +0.217 C 
ATOM     29  N   LIG    1       23.632 -29.880   9.216  0.00  0.00    -0.306 N 
ATOM     30  H   LIG    1       22.765 -29.985   8.710  0.00  0.00    +0.149 HD
ATOM     31  O   LIG    1       25.875 -29.912   8.775  0.00  0.00    -0.276 OA
BRANCH  29  32
ATOM     32  C   LIG    1       23.717 -30.744  10.425  0.00  0.00    +0.132 C 
ATOM     33  C   LIG    1       22.397 -31.571  10.654  0.00  0.00    +0.143 C 
ATOM     34  C   LIG    1       21.979 -31.449  12.135  0.00  0.00    +0.069 C 
ATOM     35  C   LIG    1       22.723 -30.232  12.572  0.00  0.00    -0.040 A 
ATOM     36  C   LIG    1       22.523 -29.534  13.755  0.00  0.00    +0.004 A 
ATOM     37  C   LIG    1       23.436 -28.542  14.101  0.00  0.00    +0.000 A 
ATOM     38  C   LIG    1       24.564 -28.317  13.300  0.00  0.00    +0.000 A 
ATOM     39  C   LIG    1       24.738 -29.007  12.092  0.00  0.00    +0.006 A 
ATOM     40  C   LIG    1       23.772 -29.922  11.697  0.00  0.00    -0.021 A 
BRANCH  33  41
ATOM     41  O   LIG    1       21.322 -31.041   9.854  0.00  0.00    -0.389 OA
ATOM     42  H   LIG    1       21.690 -30.875   8.969  0.00  0.00    +0.210 HD
ENDBRANCH  33  41
ENDBRANCH  29  32
ENDBRANCH  27  28
BRANCH  27  43
ATOM     43  C   LIG    1       24.182 -29.665   5.920  0.00  0.00    +0.048 C 
BRANCH  43  44
ATOM     44  C   LIG    1       24.711 -31.100   5.845  0.00  0.00    -0.047 A 
ATOM     45  C   LIG    1       26.028 -31.466   5.535  0.00  0.00    +0.003 A 
ATOM     46  C   LIG    1       26.429 -32.810   5.501  0.00  0.00    +0.000 A 
ATOM     47  C   LIG    1       25.509 -33.825   5.730  0.00  0.00    +0.000 A 
ATOM     48  C   LIG    1       24.193 -33.493   6.032  0.00  0.00    +0.000 A 
ATOM     49  C   LIG    1       23.805 -32.148   6.105  0.00  0.00    +0.003 A 
ENDBRANCH  43  44
ENDBRANCH  27  43
ENDBRANCH  26  27
ENDBRANCH   1  26
TORSDOF 14
ENDMDL
MODEL 8
REMARK VINA RESULT:      -7.2      2.252     10.482
REMARK  Name = *****
REMARK                            x       y       z     vdW  Elec       q    Type
REMARK                         _______ _______ _______ _____ _____    ______ ____
ROOT
ATOM      1  C   LIG    1       25.291 -26.760   5.818  0.00  0.00    +0.129 C 
ENDROOT
BRANCH   1   2
ATOM      2  O   LIG    1       26.101 -26.604   4.660  0.00  0.00    -0.391 OA
ATOM      3  H   LIG    1       25.541 -26.227   3.963  0.00  0.00    +0.210 HD
ENDBRANCH   1   2
BRANCH   1   4
ATOM      4  C   LIG    1       25.184 -25.445   6.667  0.00  0.00    +0.116 C 
BRANCH   4   6
ATOM      5  C   LIG    1       25.217 -23.113   5.729  0.00  0.00    +0.157 C 
ATOM      6  N   LIG    1       24.431 -24.338   6.052  0.00  0.00    -0.287 NA
ATOM      7  C   LIG    1       23.209 -24.000   6.810  0.00  0.00    +0.100 C 
ATOM      8  C   LIG    1       22.329 -22.993   6.044  0.00  0.00    +0.100 C 
ATOM      9  N   LIG    1       23.006 -21.705   5.826  0.00  0.00    -0.295 NA
ATOM     10  C   LIG    1       24.330 -21.938   5.194  0.00  0.00    +0.113 C 
BRANCH   5  13
ATOM     11  N   LIG    1       26.980 -21.507   6.456  0.00  0.00    -0.309 N 
ATOM     12  H   LIG    1       27.013 -21.404   5.457  0.00  0.00    +0.149 HD
ATOM     13  C   LIG    1       26.231 -22.630   6.854  0.00  0.00    +0.232 C 
ATOM     14  O   LIG    1       26.359 -23.165   7.921  0.00  0.00    -0.274 OA
BRANCH  11  16
ATOM     15  C   LIG    1       28.669 -19.730   6.221  0.00  0.00    +0.031 C 
ATOM     16  C   LIG    1       28.057 -20.796   7.175  0.00  0.00    +0.026 C 
ATOM     17  C   LIG    1       27.438 -20.075   8.364  0.00  0.00    +0.031 C 
ATOM     18  C   LIG    1       29.224 -21.685   7.645  0.00  0.00    +0.031 C 
ENDBRANCH  11  16
ENDBRANCH   5  13
BRANCH   9  19
ATOM     19  C   LIG    1       22.126 -20.831   5.026  0.00  0.00    +0.121 C 
BRANCH  19  20
ATOM     20  C   LIG    1       22.757 -19.536   4.590  0.00  0.00    -0.015 A 
ATOM     21  C   LIG    1       24.017 -19.500   4.003  0.00  0.00    +0.115 A 
ATOM     22  N   LIG    1       24.624 -18.365   3.580  0.00  0.00    -0.263 NA
ATOM     23  C   LIG    1       23.945 -17.212   3.753  0.00  0.00    +0.111 A 
ATOM     24  C   LIG    1       22.699 -17.135   4.350  0.00  0.00    +0.020 A 
ATOM     25  C   LIG    1       22.093 -18.316   4.761  0.00  0.00    +0.008 A 
ENDBRANCH  19  20
ENDBRANCH   9  19
ENDBRANCH   4   6
ENDBRANCH   1   4
BRANCH   1  26
ATOM     26  C   LIG    1       25.941 -27.862   6.652  0.00  0.00    +0.045 C 
BRANCH  26  27
ATOM     27  C   LIG    1       25.052 -28.533   7.731  0.00  0.00    +0.082 C 
BRANCH  27  28
ATOM     28  C   LIG    1       25.926 -28.806   8.989  0.00  0.00    +0.217 C 
ATOM     29  N   LIG    1       25.258 -29.232  10.127  0.00  0.00    -0.306 N 
ATOM     30  H   LIG    1       24.445 -29.802   9.948  0.00  0.00    +0.149 HD
ATOM     31  O   LIG    1       27.131 -28.542   9.011  0.00  0.00    -0.276 OA
BRANCH  29  32
ATOM     32  C   LIG    1       25.972 -29.598  11.380  0.00  0.00    +0.132 C 
ATOM     33  C   LIG    1       25.142 -30.607  12.259  0.00  0.00    +0.143 C 
ATOM     34  C   LIG    1       25.138 -30.114  13.721  0.00  0.00    +0.069 C 
ATOM     35  C   LIG    1       25.502 -28.674  13.568  0.00  0.00    -0.040 A 
ATOM     36  C   LIG    1       25.409 -27.699  14.552  0.00  0.00    +0.004 A 
ATOM     37  C   LIG    1       25.978 -26.453  14.305  0.00  0.00    +0.000 A 
ATOM     38  C   LIG    1       26.686 -26.229  13.116  0.00  0.00    +0.000 A 
ATOM     39  C   LIG    1       26.746 -27.212  12.117  0.00  0.00    +0.006 A 
ATOM     40  C   LIG    1       26.090 -28.418  12.322  0.00  0.00    -0.021 A 
BRANCH  33  41
ATOM     41  O   LIG    1       23.773 -30.658  11.814  0.00  0.00    -0.389 OA
ATOM     42  H   LIG    1       23.686 -31.463  11.273  0.00  0.00    +0.210 HD
ENDBRANCH  33  41
ENDBRANCH  29  32
ENDBRANCH  27  28
BRANCH  27  43
ATOM     43  C   LIG    1       24.484 -29.867   7.154  0.00  0.00    +0.048 C 
BRANCH  43  44
ATOM     44  C   LIG    1       25.404 -30.947   6.575  0.00  0.00    -0.047 A 
ATOM     45  C   LIG    1       25.488 -31.303   5.222  0.00  0.00    +0.003 A 
ATOM     46  C   LIG    1       26.370 -32.299   4.777  0.00  0.00    +0.000 A 
ATOM     47  C   LIG    1       27.156 -32.998   5.685  0.00  0.00    +0.000 A 
ATOM     48  C   LIG    1       27.088 -32.674   7.034  0.00  0.00    +0.000 A 
ATOM     49  C   LIG    1       26.235 -31.650   7.470  0.00  0.00    +0.003 A 
ENDBRANCH  43  44
ENDBRANCH  27  43
ENDBRANCH  26  27
ENDBRANCH   1  26
TORSDOF 14
ENDMDL
MODEL 9
REMARK VINA RESULT:      -7.1      2.843      5.200
REMARK  Name = *****
REMARK                            x       y       z     vdW  Elec       q    Type
REMARK                         _______ _______ _______ _____ _____    ______ ____
ROOT
ATOM      1  C   LIG    1       26.090 -26.406   6.627  0.00  0.00    +0.129 C 
ENDROOT
BRANCH   1   2
ATOM      2  O   LIG    1       25.817 -26.402   5.232  0.00  0.00    -0.391 OA
ATOM      3  H   LIG    1       26.233 -27.192   4.853  0.00  0.00    +0.210 HD
ENDBRANCH   1   2
BRANCH   1   4
ATOM      4  C   LIG    1       25.423 -27.614   7.374  0.00  0.00    +0.116 C 
BRANCH   4   6
ATOM      5  C   LIG    1       26.032 -29.786   8.482  0.00  0.00    +0.157 C 
ATOM      6  N   LIG    1       26.273 -28.321   8.347  0.00  0.00    -0.287 NA
ATOM      7  C   LIG    1       26.282 -27.661   9.668  0.00  0.00    +0.100 C 
ATOM      8  C   LIG    1       27.335 -28.285  10.605  0.00  0.00    +0.100 C 
ATOM      9  N   LIG    1       27.062 -29.703  10.893  0.00  0.00    -0.295 NA
ATOM     10  C   LIG    1       26.884 -30.446   9.619  0.00  0.00    +0.113 C 
BRANCH   5  13
ATOM     11  N   LIG    1       24.187 -30.880   9.752  0.00  0.00    -0.309 N 
ATOM     12  H   LIG    1       24.998 -31.256  10.211  0.00  0.00    +0.149 HD
ATOM     13  C   LIG    1       24.507 -30.230   8.546  0.00  0.00    +0.232 C 
ATOM     14  O   LIG    1       23.714 -30.047   7.664  0.00  0.00    -0.274 OA
BRANCH  11  16
ATOM     15  C   LIG    1       22.480 -32.533   9.103  0.00  0.00    +0.031 C 
ATOM     16  C   LIG    1       22.912 -31.492  10.177  0.00  0.00    +0.026 C 
ATOM     17  C   LIG    1       23.152 -32.228  11.488  0.00  0.00    +0.031 C 
ATOM     18  C   LIG    1       21.736 -30.509  10.329  0.00  0.00    +0.031 C 
ENDBRANCH  11  16
ENDBRANCH   5  13
BRANCH   9  19
ATOM     19  C   LIG    1       28.152 -30.239  11.732  0.00  0.00    +0.121 C 
BRANCH  19  20
ATOM     20  C   LIG    1       28.296 -29.573  13.074  0.00  0.00    -0.015 A 
ATOM     21  C   LIG    1       29.544 -29.309  13.626  0.00  0.00    +0.115 A 
ATOM     22  N   LIG    1       29.731 -28.700  14.822  0.00  0.00    -0.263 NA
ATOM     23  C   LIG    1       28.621 -28.340  15.500  0.00  0.00    +0.111 A 
ATOM     24  C   LIG    1       27.333 -28.582  15.053  0.00  0.00    +0.020 A 
ATOM     25  C   LIG    1       27.172 -29.194  13.816  0.00  0.00    +0.008 A 
ENDBRANCH  19  20
ENDBRANCH   9  19
ENDBRANCH   4   6
ENDBRANCH   1   4
BRANCH   1  26
ATOM     26  C   LIG    1       25.540 -25.091   7.176  0.00  0.00    +0.045 C 
BRANCH  26  27
ATOM     27  C   LIG    1       25.708 -23.838   6.279  0.00  0.00    +0.082 C 
BRANCH  27  28
ATOM     28  C   LIG    1       26.201 -22.659   7.167  0.00  0.00    +0.217 C 
ATOM     29  N   LIG    1       27.196 -21.855   6.633  0.00  0.00    -0.306 N 
ATOM     30  H   LIG    1       27.155 -21.745   5.631  0.00  0.00    +0.149 HD
ATOM     31  O   LIG    1       25.814 -22.519   8.330  0.00  0.00    -0.276 OA
BRANCH  29  32
ATOM     32  C   LIG    1       27.712 -20.651   7.339  0.00  0.00    +0.132 C 
ATOM     33  C   LIG    1       27.989 -19.459   6.348  0.00  0.00    +0.143 C 
ATOM     34  C   LIG    1       29.380 -18.865   6.653  0.00  0.00    +0.069 C 
ATOM     35  C   LIG    1       30.035 -19.972   7.411  0.00  0.00    -0.040 A 
ATOM     36  C   LIG    1       31.385 -20.061   7.723  0.00  0.00    +0.004 A 
ATOM     37  C   LIG    1       31.796 -21.055   8.606  0.00  0.00    +0.000 A 
ATOM     38  C   LIG    1       30.847 -21.890   9.213  0.00  0.00    +0.000 A 
ATOM     39  C   LIG    1       29.491 -21.810   8.866  0.00  0.00    +0.006 A 
ATOM     40  C   LIG    1       29.097 -20.887   7.907  0.00  0.00    -0.021 A 
BRANCH  33  41
ATOM     41  O   LIG    1       28.005 -19.927   4.986  0.00  0.00    -0.389 OA
ATOM     42  H   LIG    1       27.202 -20.463   4.866  0.00  0.00    +0.210 HD
ENDBRANCH  33  41
ENDBRANCH  29  32
ENDBRANCH  27  28
BRANCH  27  43
ATOM     43  C   LIG    1       24.331 -23.499   5.626  0.00  0.00    +0.048 C 
BRANCH  43  44
ATOM     44  C   LIG    1       23.978 -22.074   5.190  0.00  0.00    -0.047 A 
ATOM     45  C   LIG    1       24.575 -21.376   4.132  0.00  0.00    +0.003 A 
ATOM     46  C   LIG    1       24.180 -20.073   3.794  0.00  0.00    +0.000 A 
ATOM     47  C   LIG    1       23.208 -19.418   4.539  0.00  0.00    +0.000 A 
ATOM     48  C   LIG    1       22.604 -20.082   5.601  0.00  0.00    +0.000 A 
ATOM     49  C   LIG    1       22.973 -21.398   5.911  0.00  0.00    +0.003 A 
ENDBRANCH  43  44
ENDBRANCH  27  43
ENDBRANCH  26  27
ENDBRANCH   1  26
TORSDOF 14
ENDMDL
