MODEL 1
REMARK VINA RESULT:      -6.0      0.000      0.000
REMARK  Name = *****
REMARK                            x       y       z     vdW  Elec       q    Type
REMARK                         _______ _______ _______ _____ _____    ______ ____
ROOT
ATOM      1  C   LIG    1       22.558 -26.700  13.250  0.00  0.00    +0.013 C 
ATOM      2  C   LIG    1       23.137 -27.901  13.086  0.00  0.00    -0.036 C 
ATOM      3  C   LIG    1       22.432 -29.242  12.874  0.00  0.00    +0.085 C 
ATOM      4  C   LIG    1       22.897 -29.863  11.577  0.00  0.00    +0.050 C 
ATOM      5  C   LIG    1       22.078 -30.562  10.763  0.00  0.00    +0.141 C 
ATOM      6  C   LIG    1       20.642 -30.864  11.111  0.00  0.00    +0.189 C 
ATOM      7  C   LIG    1       20.253 -30.545  12.573  0.00  0.00    +0.089 C 
ATOM      8  C   LIG    1       18.698 -30.620  12.706  0.00  0.00    +0.133 C 
ATOM      9  C   LIG    1       18.161 -32.006  12.242  0.00  0.00    +0.170 C 
ATOM     10  O   LIG    1       17.126 -32.512  12.696  0.00  0.00    -0.294 OA
ATOM     11  C   LIG    1       18.828 -32.688  11.066  0.00  0.00    +0.211 C 
ATOM     12  C   LIG    1       20.297 -32.364  10.992  0.00  0.00    +0.192 C 
ATOM     13  O   LIG    1       21.137 -33.266  11.007  0.00  0.00    -0.293 OA
ATOM     14  C   LIG    1       24.327 -29.638  11.178  0.00  0.00    +0.197 C 
ATOM     15  O   LIG    1       24.727 -30.026  10.082  0.00  0.00    -0.287 OA
ATOM     16  C   LIG    1       25.205 -28.912  12.137  0.00  0.00    +0.071 A 
ATOM     17  C   LIG    1       26.599 -29.068  12.128  0.00  0.00    +0.128 A 
ATOM     18  C   LIG    1       27.400 -28.348  13.017  0.00  0.00    +0.046 A 
ATOM     19  C   LIG    1       26.812 -27.471  13.925  0.00  0.00    +0.004 A 
ATOM     20  C   LIG    1       25.426 -27.312  13.946  0.00  0.00    +0.009 A 
ATOM     21  C   LIG    1       20.876 -29.196  12.991  0.00  0.00    +0.135 C 
ATOM     22  C   LIG    1       24.611 -28.023  13.050  0.00  0.00    -0.007 A 
ENDROOT
BRANCH  11  23
ATOM     23  C   LIG    1       18.093 -32.453   9.774  0.00  0.00    +0.228 C 
ATOM     24  O   LIG    1       17.619 -31.371   9.438  0.00  0.00    -0.275 OA
ATOM     25  N   LIG    1       18.025 -33.526   8.927  0.00  0.00    -0.328 N 
ATOM     26  H   LIG    1       18.359 -34.451   9.188  0.00  0.00    +0.145 HD
ATOM     27  H   LIG    1       17.554 -33.416   8.039  0.00  0.00    +0.145 HD
ENDBRANCH  11  23
BRANCH   8  28
ATOM     28  N   LIG    1       18.227 -30.234  14.071  0.00  0.00    -0.299 NA
ATOM     29  C   LIG    1       16.906 -29.594  14.053  0.00  0.00    +0.105 C 
ATOM     30  C   LIG    1       18.250 -31.314  15.063  0.00  0.00    +0.105 C 
ENDBRANCH   8  28
BRANCH   5  31
ATOM     31  O   LIG    1       22.448 -30.996   9.500  0.00  0.00    -0.507 OA
ATOM     32  H   LIG    1       22.350 -31.979   9.468  0.00  0.00    +0.292 HD
ENDBRANCH   5  31
BRANCH   6  33
ATOM     33  O   LIG    1       19.849 -30.075  10.232  0.00  0.00    -0.373 OA
ATOM     34  H   LIG    1       19.652 -30.649   9.458  0.00  0.00    +0.211 HD
ENDBRANCH   6  33
BRANCH  17  35
ATOM     35  O   LIG    1       27.196 -29.958  11.281  0.00  0.00    -0.506 OA
ATOM     36  H   LIG    1       27.798 -30.537  11.775  0.00  0.00    +0.292 HD
ENDBRANCH  17  35
BRANCH  21  37
ATOM     37  O   LIG    1       20.562 -28.907  14.359  0.00  0.00    -0.390 OA
ATOM     38  H   LIG    1       20.445 -29.770  14.813  0.00  0.00    +0.210 HD
ENDBRANCH  21  37
TORSDOF 6
ENDMDL
MODEL 2
REMARK VINA RESULT:      -5.6      3.582      7.154
REMARK  Name = *****
REMARK                            x       y       z     vdW  Elec       q    Type
REMARK                         _______ _______ _______ _____ _____    ______ ____
ROOT
ATOM      1  C   LIG    1       22.673 -32.831  10.471  0.00  0.00    +0.013 C 
ATOM      2  C   LIG    1       23.432 -31.983   9.756  0.00  0.00    -0.036 C 
ATOM      3  C   LIG    1       24.005 -30.644  10.224  0.00  0.00    +0.085 C 
ATOM      4  C   LIG    1       25.510 -30.658  10.086  0.00  0.00    +0.050 C 
ATOM      5  C   LIG    1       26.333 -30.060  10.973  0.00  0.00    +0.141 C 
ATOM      6  C   LIG    1       25.828 -29.247  12.139  0.00  0.00    +0.189 C 
ATOM      7  C   LIG    1       24.316 -28.930  12.096  0.00  0.00    +0.089 C 
ATOM      8  C   LIG    1       23.884 -28.356  13.484  0.00  0.00    +0.133 C 
ATOM      9  C   LIG    1       24.736 -27.111  13.866  0.00  0.00    +0.170 C 
ATOM     10  O   LIG    1       24.308 -26.199  14.586  0.00  0.00    -0.294 OA
ATOM     11  C   LIG    1       26.203 -27.090  13.490  0.00  0.00    +0.211 C 
ATOM     12  C   LIG    1       26.463 -27.841  12.211  0.00  0.00    +0.192 C 
ATOM     13  O   LIG    1       26.999 -27.278  11.254  0.00  0.00    -0.293 OA
ATOM     14  C   LIG    1       26.090 -31.417   8.927  0.00  0.00    +0.197 C 
ATOM     15  O   LIG    1       27.308 -31.553   8.831  0.00  0.00    -0.287 OA
ATOM     16  C   LIG    1       25.140 -32.008   7.946  0.00  0.00    +0.071 A 
ATOM     17  C   LIG    1       25.519 -32.287   6.624  0.00  0.00    +0.128 A 
ATOM     18  C   LIG    1       24.617 -32.874   5.735  0.00  0.00    +0.046 A 
ATOM     19  C   LIG    1       23.327 -33.182   6.158  0.00  0.00    +0.004 A 
ATOM     20  C   LIG    1       22.937 -32.905   7.469  0.00  0.00    +0.009 A 
ATOM     21  C   LIG    1       23.538 -30.183  11.641  0.00  0.00    +0.135 C 
ATOM     22  C   LIG    1       23.839 -32.325   8.376  0.00  0.00    -0.007 A 
ENDROOT
BRANCH  11  23
ATOM     23  C   LIG    1       27.093 -27.511  14.629  0.00  0.00    +0.228 C 
ATOM     24  O   LIG    1       26.764 -28.312  15.500  0.00  0.00    -0.275 OA
ATOM     25  N   LIG    1       28.357 -26.989  14.617  0.00  0.00    -0.328 N 
ATOM     26  H   LIG    1       28.652 -26.285  13.944  0.00  0.00    +0.145 HD
ATOM     27  H   LIG    1       28.999 -27.252  15.353  0.00  0.00    +0.145 HD
ENDBRANCH  11  23
BRANCH   8  28
ATOM     28  N   LIG    1       22.412 -28.109  13.560  0.00  0.00    -0.299 NA
ATOM     29  C   LIG    1       21.847 -28.462  14.868  0.00  0.00    +0.105 C 
ATOM     30  C   LIG    1       21.990 -26.756  13.178  0.00  0.00    +0.105 C 
ENDBRANCH   8  28
BRANCH   5  31
ATOM     31  O   LIG    1       27.712 -30.201  10.948  0.00  0.00    -0.507 OA
ATOM     32  H   LIG    1       28.066 -29.662  10.199  0.00  0.00    +0.292 HD
ENDBRANCH   5  31
BRANCH   6  33
ATOM     33  O   LIG    1       26.115 -30.009  13.305  0.00  0.00    -0.373 OA
ATOM     34  H   LIG    1       27.054 -29.818  13.528  0.00  0.00    +0.211 HD
ENDBRANCH   6  33
BRANCH  17  35
ATOM     35  O   LIG    1       26.763 -31.949   6.169  0.00  0.00    -0.506 OA
ATOM     36  H   LIG    1       27.127 -31.223   6.700  0.00  0.00    +0.292 HD
ENDBRANCH  17  35
BRANCH  21  37
ATOM     37  O   LIG    1       22.137 -29.894  11.552  0.00  0.00    -0.390 OA
ATOM     38  H   LIG    1       21.975 -29.101  12.109  0.00  0.00    +0.210 HD
ENDBRANCH  21  37
TORSDOF 6
ENDMDL
MODEL 3
REMARK VINA RESULT:      -5.5      2.744      7.041
REMARK  Name = *****
REMARK                            x       y       z     vdW  Elec       q    Type
REMARK                         _______ _______ _______ _____ _____    ______ ____
ROOT
ATOM      1  C   LIG    1       21.354 -31.430  14.690  0.00  0.00    +0.013 C 
ATOM      2  C   LIG    1       20.922 -30.937  13.517  0.00  0.00    -0.036 C 
ATOM      3  C   LIG    1       21.781 -30.391  12.376  0.00  0.00    +0.085 C 
ATOM      4  C   LIG    1       21.497 -31.164  11.108  0.00  0.00    +0.050 C 
ATOM      5  C   LIG    1       22.452 -31.467  10.205  0.00  0.00    +0.141 C 
ATOM      6  C   LIG    1       23.877 -30.990  10.329  0.00  0.00    +0.189 C 
ATOM      7  C   LIG    1       24.104 -29.917  11.418  0.00  0.00    +0.089 C 
ATOM      8  C   LIG    1       25.641 -29.740  11.636  0.00  0.00    +0.133 C 
ATOM      9  C   LIG    1       26.360 -29.385  10.301  0.00  0.00    +0.170 C 
ATOM     10  O   LIG    1       27.400 -28.715  10.255  0.00  0.00    -0.294 OA
ATOM     11  C   LIG    1       25.871 -30.026   9.019  0.00  0.00    +0.211 C 
ATOM     12  C   LIG    1       24.388 -30.285   9.053  0.00  0.00    +0.192 C 
ATOM     13  O   LIG    1       23.650 -29.804   8.191  0.00  0.00    -0.293 OA
ATOM     14  C   LIG    1       20.090 -31.645  10.894  0.00  0.00    +0.197 C 
ATOM     15  O   LIG    1       19.829 -32.371   9.938  0.00  0.00    -0.287 OA
ATOM     16  C   LIG    1       19.062 -31.234  11.889  0.00  0.00    +0.071 A 
ATOM     17  C   LIG    1       17.698 -31.180  11.565  0.00  0.00    +0.128 A 
ATOM     18  C   LIG    1       16.752 -30.825  12.530  0.00  0.00    +0.046 A 
ATOM     19  C   LIG    1       17.164 -30.515  13.823  0.00  0.00    +0.004 A 
ATOM     20  C   LIG    1       18.518 -30.560  14.155  0.00  0.00    +0.009 A 
ATOM     21  C   LIG    1       23.308 -30.292  12.686  0.00  0.00    +0.135 C 
ATOM     22  C   LIG    1       19.478 -30.927  13.197  0.00  0.00    -0.007 A 
ENDROOT
BRANCH  11  23
ATOM     23  C   LIG    1       26.685 -31.233   8.635  0.00  0.00    +0.228 C 
ATOM     24  O   LIG    1       27.308 -31.926   9.435  0.00  0.00    -0.275 OA
ATOM     25  N   LIG    1       26.650 -31.575   7.311  0.00  0.00    -0.328 N 
ATOM     26  H   LIG    1       26.189 -31.000   6.610  0.00  0.00    +0.145 HD
ATOM     27  H   LIG    1       27.169 -32.387   7.004  0.00  0.00    +0.145 HD
ENDBRANCH  11  23
BRANCH   8  28
ATOM     28  N   LIG    1       25.950 -28.784  12.742  0.00  0.00    -0.299 NA
ATOM     29  C   LIG    1       27.139 -29.173  13.510  0.00  0.00    +0.105 C 
ATOM     30  C   LIG    1       26.050 -27.377  12.337  0.00  0.00    +0.105 C 
ENDBRANCH   8  28
BRANCH   5  31
ATOM     31  O   LIG    1       22.239 -32.310   9.125  0.00  0.00    -0.507 OA
ATOM     32  H   LIG    1       23.116 -32.535   8.729  0.00  0.00    +0.292 HD
ENDBRANCH   5  31
BRANCH   6  33
ATOM     33  O   LIG    1       24.654 -32.141  10.635  0.00  0.00    -0.373 OA
ATOM     34  H   LIG    1       24.998 -31.999  11.546  0.00  0.00    +0.211 HD
ENDBRANCH   6  33
BRANCH  17  35
ATOM     35  O   LIG    1       17.273 -31.432  10.291  0.00  0.00    -0.506 OA
ATOM     36  H   LIG    1       17.927 -31.975   9.823  0.00  0.00    +0.292 HD
ENDBRANCH  17  35
BRANCH  21  37
ATOM     37  O   LIG    1       23.471 -29.283  13.692  0.00  0.00    -0.390 OA
ATOM     38  H   LIG    1       22.716 -28.663  13.598  0.00  0.00    +0.210 HD
ENDBRANCH  21  37
TORSDOF 6
ENDMDL
MODEL 4
REMARK VINA RESULT:      -5.2      2.120      3.366
REMARK  Name = *****
REMARK                            x       y       z     vdW  Elec       q    Type
REMARK                         _______ _______ _______ _____ _____    ______ ____
ROOT
ATOM      1  C   LIG    1       25.902 -25.598  13.250  0.00  0.00    +0.013 C 
ATOM      2  C   LIG    1       26.078 -26.828  13.762  0.00  0.00    -0.036 C 
ATOM      3  C   LIG    1       25.031 -27.937  13.874  0.00  0.00    +0.085 C 
ATOM      4  C   LIG    1       25.514 -29.170  13.145  0.00  0.00    +0.050 C 
ATOM      5  C   LIG    1       24.689 -29.982  12.451  0.00  0.00    +0.141 C 
ATOM      6  C   LIG    1       23.194 -29.786  12.408  0.00  0.00    +0.189 C 
ATOM      7  C   LIG    1       22.650 -28.754  13.421  0.00  0.00    +0.089 C 
ATOM      8  C   LIG    1       21.162 -28.438  13.065  0.00  0.00    +0.133 C 
ATOM      9  C   LIG    1       20.305 -29.737  13.031  0.00  0.00    +0.170 C 
ATOM     10  O   LIG    1       19.094 -29.750  13.288  0.00  0.00    -0.294 OA
ATOM     11  C   LIG    1       20.931 -31.008  12.496  0.00  0.00    +0.211 C 
ATOM     12  C   LIG    1       22.410 -31.064  12.778  0.00  0.00    +0.192 C 
ATOM     13  O   LIG    1       22.890 -32.006  13.412  0.00  0.00    -0.293 OA
ATOM     14  C   LIG    1       26.988 -29.455  13.173  0.00  0.00    +0.197 C 
ATOM     15  O   LIG    1       27.447 -30.379  12.506  0.00  0.00    -0.287 OA
ATOM     16  C   LIG    1       27.847 -28.563  14.001  0.00  0.00    +0.071 A 
ATOM     17  C   LIG    1       29.087 -28.987  14.501  0.00  0.00    +0.128 A 
ATOM     18  C   LIG    1       29.887 -28.118  15.246  0.00  0.00    +0.046 A 
ATOM     19  C   LIG    1       29.451 -26.820  15.500  0.00  0.00    +0.004 A 
ATOM     20  C   LIG    1       28.217 -26.390  15.011  0.00  0.00    +0.009 A 
ATOM     21  C   LIG    1       23.584 -27.525  13.457  0.00  0.00    +0.135 C 
ATOM     22  C   LIG    1       27.408 -27.251  14.251  0.00  0.00    -0.007 A 
ENDROOT
BRANCH  11  23
ATOM     23  C   LIG    1       20.583 -31.255  11.052  0.00  0.00    +0.228 C 
ATOM     24  O   LIG    1       21.318 -31.831  10.256  0.00  0.00    -0.275 OA
ATOM     25  N   LIG    1       19.336 -30.846  10.666  0.00  0.00    -0.328 N 
ATOM     26  H   LIG    1       18.718 -30.320  11.279  0.00  0.00    +0.145 HD
ATOM     27  H   LIG    1       19.047 -31.001   9.709  0.00  0.00    +0.145 HD
ENDBRANCH  11  23
BRANCH   8  28
ATOM     28  N   LIG    1       20.584 -27.374  13.942  0.00  0.00    -0.299 NA
ATOM     29  C   LIG    1       19.683 -26.471  13.216  0.00  0.00    +0.105 C 
ATOM     30  C   LIG    1       19.931 -27.864  15.162  0.00  0.00    +0.105 C 
ENDBRANCH   8  28
BRANCH   5  31
ATOM     31  O   LIG    1       25.139 -31.019  11.649  0.00  0.00    -0.507 OA
ATOM     32  H   LIG    1       26.069 -30.823  11.380  0.00  0.00    +0.292 HD
ENDBRANCH   5  31
BRANCH   6  33
ATOM     33  O   LIG    1       22.891 -29.352  11.087  0.00  0.00    -0.373 OA
ATOM     34  H   LIG    1       23.504 -29.845  10.495  0.00  0.00    +0.211 HD
ENDBRANCH   6  33
BRANCH  17  35
ATOM     35  O   LIG    1       29.516 -30.270  14.308  0.00  0.00    -0.506 OA
ATOM     36  H   LIG    1       28.877 -30.896  14.684  0.00  0.00    +0.292 HD
ENDBRANCH  17  35
BRANCH  21  37
ATOM     37  O   LIG    1       23.118 -26.576  14.426  0.00  0.00    -0.390 OA
ATOM     38  H   LIG    1       23.829 -25.907  14.534  0.00  0.00    +0.210 HD
ENDBRANCH  21  37
TORSDOF 6
ENDMDL
MODEL 5
REMARK VINA RESULT:      -5.2      3.651      6.014
REMARK  Name = *****
REMARK                            x       y       z     vdW  Elec       q    Type
REMARK                         _______ _______ _______ _____ _____    ______ ____
ROOT
ATOM      1  C   LIG    1       23.867 -31.885   7.090  0.00  0.00    +0.013 C 
ATOM      2  C   LIG    1       24.022 -30.670   7.644  0.00  0.00    -0.036 C 
ATOM      3  C   LIG    1       23.798 -30.291   9.109  0.00  0.00    +0.085 C 
ATOM      4  C   LIG    1       25.067 -29.704   9.683  0.00  0.00    +0.050 C 
ATOM      5  C   LIG    1       25.468 -29.924  10.953  0.00  0.00    +0.141 C 
ATOM      6  C   LIG    1       24.646 -30.706  11.947  0.00  0.00    +0.189 C 
ATOM      7  C   LIG    1       23.201 -31.010  11.489  0.00  0.00    +0.089 C 
ATOM      8  C   LIG    1       22.577 -32.061  12.463  0.00  0.00    +0.133 C 
ATOM      9  C   LIG    1       22.636 -31.564  13.937  0.00  0.00    +0.170 C 
ATOM     10  O   LIG    1       21.809 -31.904  14.794  0.00  0.00    -0.294 OA
ATOM     11  C   LIG    1       23.845 -30.773  14.391  0.00  0.00    +0.211 C 
ATOM     12  C   LIG    1       24.424 -29.946  13.273  0.00  0.00    +0.192 C 
ATOM     13  O   LIG    1       24.537 -28.725  13.393  0.00  0.00    -0.293 OA
ATOM     14  C   LIG    1       25.923 -28.880   8.764  0.00  0.00    +0.197 C 
ATOM     15  O   LIG    1       27.017 -28.473   9.148  0.00  0.00    -0.287 OA
ATOM     16  C   LIG    1       25.408 -28.618   7.392  0.00  0.00    +0.071 A 
ATOM     17  C   LIG    1       25.831 -27.510   6.643  0.00  0.00    +0.128 A 
ATOM     18  C   LIG    1       25.357 -27.308   5.345  0.00  0.00    +0.046 A 
ATOM     19  C   LIG    1       24.453 -28.209   4.789  0.00  0.00    +0.004 A 
ATOM     20  C   LIG    1       24.022 -29.311   5.527  0.00  0.00    +0.009 A 
ATOM     21  C   LIG    1       23.207 -31.427  10.003  0.00  0.00    +0.135 C 
ATOM     22  C   LIG    1       24.500 -29.532   6.829  0.00  0.00    -0.007 A 
ENDROOT
BRANCH  11  23
ATOM     23  C   LIG    1       24.861 -31.632  15.094  0.00  0.00    +0.228 C 
ATOM     24  O   LIG    1       26.005 -31.271  15.356  0.00  0.00    -0.275 OA
ATOM     25  N   LIG    1       24.418 -32.861  15.500  0.00  0.00    -0.328 N 
ATOM     26  H   LIG    1       23.496 -33.218  15.259  0.00  0.00    +0.145 HD
ATOM     27  H   LIG    1       25.058 -33.472  15.989  0.00  0.00    +0.145 HD
ENDBRANCH  11  23
BRANCH   8  28
ATOM     28  N   LIG    1       21.208 -32.483  12.038  0.00  0.00    -0.299 NA
ATOM     29  C   LIG    1       20.856 -33.825  12.520  0.00  0.00    +0.105 C 
ATOM     30  C   LIG    1       20.137 -31.534  12.364  0.00  0.00    +0.105 C 
ENDBRANCH   8  28
BRANCH   5  31
ATOM     31  O   LIG    1       26.703 -29.527  11.441  0.00  0.00    -0.507 OA
ATOM     32  H   LIG    1       27.207 -29.103  10.704  0.00  0.00    +0.292 HD
ENDBRANCH   5  31
BRANCH   6  33
ATOM     33  O   LIG    1       25.339 -31.930  12.156  0.00  0.00    -0.373 OA
ATOM     34  H   LIG    1       24.790 -32.446  12.788  0.00  0.00    +0.211 HD
ENDBRANCH   6  33
BRANCH  17  35
ATOM     35  O   LIG    1       26.678 -26.584   7.183  0.00  0.00    -0.506 OA
ATOM     36  H   LIG    1       27.431 -27.028   7.605  0.00  0.00    +0.292 HD
ENDBRANCH  17  35
BRANCH  21  37
ATOM     37  O   LIG    1       21.869 -31.670   9.549  0.00  0.00    -0.390 OA
ATOM     38  H   LIG    1       21.294 -31.670  10.346  0.00  0.00    +0.210 HD
ENDBRANCH  21  37
TORSDOF 6
ENDMDL
MODEL 6
REMARK VINA RESULT:      -5.1      1.793      3.955
REMARK  Name = *****
REMARK                            x       y       z     vdW  Elec       q    Type
REMARK                         _______ _______ _______ _____ _____    ______ ____
ROOT
ATOM      1  C   LIG    1       24.438 -31.487  10.797  0.00  0.00    +0.013 C 
ATOM      2  C   LIG    1       24.011 -30.322  11.314  0.00  0.00    -0.036 C 
ATOM      3  C   LIG    1       22.578 -29.958  11.704  0.00  0.00    +0.085 C 
ATOM      4  C   LIG    1       22.530 -29.570  13.165  0.00  0.00    +0.050 C 
ATOM      5  C   LIG    1       21.495 -29.880  13.972  0.00  0.00    +0.141 C 
ATOM      6  C   LIG    1       20.248 -30.568  13.477  0.00  0.00    +0.189 C 
ATOM      7  C   LIG    1       20.129 -30.656  11.938  0.00  0.00    +0.089 C 
ATOM      8  C   LIG    1       18.967 -31.637  11.579  0.00  0.00    +0.133 C 
ATOM      9  C   LIG    1       17.632 -31.195  12.249  0.00  0.00    +0.170 C 
ATOM     10  O   LIG    1       16.522 -31.442  11.760  0.00  0.00    -0.294 OA
ATOM     11  C   LIG    1       17.680 -30.594  13.638  0.00  0.00    +0.211 C 
ATOM     12  C   LIG    1       18.953 -29.824  13.871  0.00  0.00    +0.192 C 
ATOM     13  O   LIG    1       18.915 -28.634  14.190  0.00  0.00    -0.293 OA
ATOM     14  C   LIG    1       23.721 -28.847  13.726  0.00  0.00    +0.197 C 
ATOM     15  O   LIG    1       23.782 -28.607  14.929  0.00  0.00    -0.287 OA
ATOM     16  C   LIG    1       24.810 -28.476  12.781  0.00  0.00    +0.071 A 
ATOM     17  C   LIG    1       25.691 -27.416  13.046  0.00  0.00    +0.128 A 
ATOM     18  C   LIG    1       26.725 -27.113  12.158  0.00  0.00    +0.046 A 
ATOM     19  C   LIG    1       26.883 -27.863  10.995  0.00  0.00    +0.004 A 
ATOM     20  C   LIG    1       26.010 -28.916  10.720  0.00  0.00    +0.009 A 
ATOM     21  C   LIG    1       21.500 -31.026  11.334  0.00  0.00    +0.135 C 
ATOM     22  C   LIG    1       24.973 -29.238  11.610  0.00  0.00    -0.007 A 
ENDROOT
BRANCH  11  23
ATOM     23  C   LIG    1       17.382 -31.606  14.712  0.00  0.00    +0.228 C 
ATOM     24  O   LIG    1       18.218 -32.039  15.500  0.00  0.00    -0.275 OA
ATOM     25  N   LIG    1       16.074 -31.992  14.815  0.00  0.00    -0.328 N 
ATOM     26  H   LIG    1       15.362 -31.697  14.151  0.00  0.00    +0.145 HD
ATOM     27  H   LIG    1       15.819 -32.661  15.530  0.00  0.00    +0.145 HD
ENDBRANCH  11  23
BRANCH   8  28
ATOM     28  N   LIG    1       18.843 -31.853  10.106  0.00  0.00    -0.299 NA
ATOM     29  C   LIG    1       18.601 -33.259   9.759  0.00  0.00    +0.105 C 
ATOM     30  C   LIG    1       17.862 -30.993   9.434  0.00  0.00    +0.105 C 
ENDBRANCH   8  28
BRANCH   5  31
ATOM     31  O   LIG    1       21.510 -29.673  15.343  0.00  0.00    -0.507 OA
ATOM     32  H   LIG    1       21.021 -30.416  15.774  0.00  0.00    +0.292 HD
ENDBRANCH   5  31
BRANCH   6  33
ATOM     33  O   LIG    1       20.280 -31.882  14.020  0.00  0.00    -0.373 OA
ATOM     34  H   LIG    1       20.641 -31.789  14.931  0.00  0.00    +0.211 HD
ENDBRANCH   6  33
BRANCH  17  35
ATOM     35  O   LIG    1       25.527 -26.634  14.154  0.00  0.00    -0.506 OA
ATOM     36  H   LIG    1       24.728 -26.091  14.064  0.00  0.00    +0.292 HD
ENDBRANCH  17  35
BRANCH  21  37
ATOM     37  O   LIG    1       21.419 -31.068   9.904  0.00  0.00    -0.390 OA
ATOM     38  H   LIG    1       21.024 -31.935   9.667  0.00  0.00    +0.210 HD
ENDBRANCH  21  37
TORSDOF 6
ENDMDL
MODEL 7
REMARK VINA RESULT:      -5.1      3.791      6.942
REMARK  Name = *****
REMARK                            x       y       z     vdW  Elec       q    Type
REMARK                         _______ _______ _______ _____ _____    ______ ____
ROOT
ATOM      1  C   LIG    1       25.360 -28.261   7.356  0.00  0.00    +0.013 C 
ATOM      2  C   LIG    1       25.271 -29.542   7.753  0.00  0.00    -0.036 C 
ATOM      3  C   LIG    1       25.268 -30.062   9.192  0.00  0.00    +0.085 C 
ATOM      4  C   LIG    1       24.006 -30.855   9.445  0.00  0.00    +0.050 C 
ATOM      5  C   LIG    1       23.350 -30.832  10.624  0.00  0.00    +0.141 C 
ATOM      6  C   LIG    1       23.859 -30.083  11.830  0.00  0.00    +0.189 C 
ATOM      7  C   LIG    1       25.309 -29.562  11.699  0.00  0.00    +0.089 C 
ATOM      8  C   LIG    1       25.592 -28.568  12.871  0.00  0.00    +0.133 C 
ATOM      9  C   LIG    1       25.329 -29.238  14.252  0.00  0.00    +0.170 C 
ATOM     10  O   LIG    1       25.928 -28.908  15.284  0.00  0.00    -0.294 OA
ATOM     11  C   LIG    1       24.175 -30.211  14.380  0.00  0.00    +0.211 C 
ATOM     12  C   LIG    1       23.931 -30.962  13.097  0.00  0.00    +0.192 C 
ATOM     13  O   LIG    1       23.965 -32.194  13.079  0.00  0.00    -0.293 OA
ATOM     14  C   LIG    1       23.455 -31.658   8.302  0.00  0.00    +0.197 C 
ATOM     15  O   LIG    1       22.374 -32.231   8.420  0.00  0.00    -0.287 OA
ATOM     16  C   LIG    1       24.247 -31.697   7.041  0.00  0.00    +0.071 A 
ATOM     17  C   LIG    1       24.125 -32.751   6.124  0.00  0.00    +0.128 A 
ATOM     18  C   LIG    1       24.855 -32.743   4.933  0.00  0.00    +0.046 A 
ATOM     19  C   LIG    1       25.716 -31.685   4.654  0.00  0.00    +0.004 A 
ATOM     20  C   LIG    1       25.848 -30.634   5.562  0.00  0.00    +0.009 A 
ATOM     21  C   LIG    1       25.523 -28.978  10.287  0.00  0.00    +0.135 C 
ATOM     22  C   LIG    1       25.111 -30.624   6.758  0.00  0.00    -0.007 A 
ENDROOT
BRANCH  11  23
ATOM     23  C   LIG    1       22.939 -29.563  14.943  0.00  0.00    +0.228 C 
ATOM     24  O   LIG    1       21.945 -30.181  15.315  0.00  0.00    -0.275 OA
ATOM     25  N   LIG    1       22.995 -28.203  15.085  0.00  0.00    -0.328 N 
ATOM     26  H   LIG    1       23.777 -27.649  14.743  0.00  0.00    +0.145 HD
ATOM     27  H   LIG    1       22.195 -27.721  15.472  0.00  0.00    +0.145 HD
ENDBRANCH  11  23
BRANCH   8  28
ATOM     28  N   LIG    1       26.946 -27.944  12.769  0.00  0.00    -0.299 NA
ATOM     29  C   LIG    1       26.972 -26.565  13.273  0.00  0.00    +0.105 C 
ATOM     30  C   LIG    1       28.035 -28.722  13.372  0.00  0.00    +0.105 C 
ENDBRANCH   8  28
BRANCH   5  31
ATOM     31  O   LIG    1       22.111 -31.423  10.817  0.00  0.00    -0.507 OA
ATOM     32  H   LIG    1       22.195 -32.389  10.629  0.00  0.00    +0.292 HD
ENDBRANCH   5  31
BRANCH   6  33
ATOM     33  O   LIG    1       22.979 -28.980  12.009  0.00  0.00    -0.373 OA
ATOM     34  H   LIG    1       22.114 -29.366  12.275  0.00  0.00    +0.211 HD
ENDBRANCH   6  33
BRANCH  17  35
ATOM     35  O   LIG    1       23.325 -33.824   6.396  0.00  0.00    -0.506 OA
ATOM     36  H   LIG    1       23.658 -34.613   5.939  0.00  0.00    +0.292 HD
ENDBRANCH  17  35
BRANCH  21  37
ATOM     37  O   LIG    1       26.876 -28.531  10.133  0.00  0.00    -0.390 OA
ATOM     38  H   LIG    1       27.417 -29.326   9.935  0.00  0.00    +0.210 HD
ENDBRANCH  21  37
TORSDOF 6
ENDMDL
MODEL 8
REMARK VINA RESULT:      -5.1      5.261      6.889
REMARK  Name = *****
REMARK                            x       y       z     vdW  Elec       q    Type
REMARK                         _______ _______ _______ _____ _____    ______ ____
ROOT
ATOM      1  C   LIG    1       28.106 -28.858  11.682  0.00  0.00    +0.013 C 
ATOM      2  C   LIG    1       26.903 -29.451  11.773  0.00  0.00    -0.036 C 
ATOM      3  C   LIG    1       25.918 -29.712  10.632  0.00  0.00    +0.085 C 
ATOM      4  C   LIG    1       25.619 -31.192  10.545  0.00  0.00    +0.050 C 
ATOM      5  C   LIG    1       25.434 -31.835   9.373  0.00  0.00    +0.141 C 
ATOM      6  C   LIG    1       25.421 -31.124   8.043  0.00  0.00    +0.189 C 
ATOM      7  C   LIG    1       25.373 -29.582   8.137  0.00  0.00    +0.089 C 
ATOM      8  C   LIG    1       25.664 -28.984   6.723  0.00  0.00    +0.133 C 
ATOM      9  C   LIG    1       24.669 -29.540   5.663  0.00  0.00    +0.170 C 
ATOM     10  O   LIG    1       24.334 -28.902   4.656  0.00  0.00    -0.294 OA
ATOM     11  C   LIG    1       24.226 -30.985   5.769  0.00  0.00    +0.211 C 
ATOM     12  C   LIG    1       24.168 -31.448   7.201  0.00  0.00    +0.192 C 
ATOM     13  O   LIG    1       23.119 -31.893   7.671  0.00  0.00    -0.293 OA
ATOM     14  C   LIG    1       25.578 -31.964  11.833  0.00  0.00    +0.197 C 
ATOM     15  O   LIG    1       25.449 -33.186  11.811  0.00  0.00    -0.287 OA
ATOM     16  C   LIG    1       25.729 -31.199  13.101  0.00  0.00    +0.071 A 
ATOM     17  C   LIG    1       25.231 -31.682  14.320  0.00  0.00    +0.128 A 
ATOM     18  C   LIG    1       25.418 -30.959  15.500  0.00  0.00    +0.046 A 
ATOM     19  C   LIG    1       26.100 -29.745  15.469  0.00  0.00    +0.004 A 
ATOM     20  C   LIG    1       26.596 -29.254  14.261  0.00  0.00    +0.009 A 
ATOM     21  C   LIG    1       26.325 -29.103   9.254  0.00  0.00    +0.135 C 
ATOM     22  C   LIG    1       26.424 -29.977  13.069  0.00  0.00    -0.007 A 
ENDROOT
BRANCH  11  23
ATOM     23  C   LIG    1       25.021 -31.896   4.872  0.00  0.00    +0.228 C 
ATOM     24  O   LIG    1       26.217 -31.756   4.634  0.00  0.00    -0.275 OA
ATOM     25  N   LIG    1       24.339 -32.966   4.361  0.00  0.00    -0.328 N 
ATOM     26  H   LIG    1       23.337 -33.090   4.492  0.00  0.00    +0.145 HD
ATOM     27  H   LIG    1       24.831 -33.617   3.764  0.00  0.00    +0.145 HD
ENDBRANCH  11  23
BRANCH   8  28
ATOM     28  N   LIG    1       25.728 -27.490   6.743  0.00  0.00    -0.299 NA
ATOM     29  C   LIG    1       26.731 -26.956   5.814  0.00  0.00    +0.105 C 
ATOM     30  C   LIG    1       24.443 -26.812   6.542  0.00  0.00    +0.105 C 
ENDBRANCH   8  28
BRANCH   5  31
ATOM     31  O   LIG    1       25.320 -33.212   9.270  0.00  0.00    -0.507 OA
ATOM     32  H   LIG    1       24.777 -33.537  10.028  0.00  0.00    +0.292 HD
ENDBRANCH   5  31
BRANCH   6  33
ATOM     33  O   LIG    1       26.614 -31.516   7.375  0.00  0.00    -0.373 OA
ATOM     34  H   LIG    1       27.087 -32.114   7.997  0.00  0.00    +0.211 HD
ENDBRANCH   6  33
BRANCH  17  35
ATOM     35  O   LIG    1       24.515 -32.845  14.370  0.00  0.00    -0.506 OA
ATOM     36  H   LIG    1       24.113 -33.026  13.506  0.00  0.00    +0.292 HD
ENDBRANCH  17  35
BRANCH  21  37
ATOM     37  O   LIG    1       26.258 -27.677   9.385  0.00  0.00    -0.390 OA
ATOM     38  H   LIG    1       26.198 -27.482  10.345  0.00  0.00    +0.210 HD
ENDBRANCH  21  37
TORSDOF 6
ENDMDL
MODEL 9
REMARK VINA RESULT:      -4.1      2.722      5.052
REMARK  Name = *****
REMARK                            x       y       z     vdW  Elec       q    Type
REMARK                         _______ _______ _______ _____ _____    ______ ____
ROOT
ATOM      1  C   LIG    1       27.201 -28.986  15.127  0.00  0.00    +0.013 C 
ATOM      2  C   LIG    1       26.485 -28.020  14.527  0.00  0.00    -0.036 C 
ATOM      3  C   LIG    1       25.247 -28.205  13.648  0.00  0.00    +0.085 C 
ATOM      4  C   LIG    1       24.087 -27.431  14.231  0.00  0.00    +0.050 C 
ATOM      5  C   LIG    1       22.815 -27.881  14.198  0.00  0.00    +0.141 C 
ATOM      6  C   LIG    1       22.416 -29.156  13.499  0.00  0.00    +0.189 C 
ATOM      7  C   LIG    1       23.516 -29.773  12.606  0.00  0.00    +0.089 C 
ATOM      8  C   LIG    1       23.079 -31.215  12.194  0.00  0.00    +0.133 C 
ATOM      9  C   LIG    1       21.690 -31.202  11.493  0.00  0.00    +0.170 C 
ATOM     10  O   LIG    1       21.355 -32.044  10.648  0.00  0.00    -0.294 OA
ATOM     11  C   LIG    1       20.636 -30.230  11.983  0.00  0.00    +0.211 C 
ATOM     12  C   LIG    1       21.250 -28.958  12.507  0.00  0.00    +0.192 C 
ATOM     13  O   LIG    1       20.933 -27.868  12.026  0.00  0.00    -0.293 OA
ATOM     14  C   LIG    1       24.399 -26.130  14.913  0.00  0.00    +0.197 C 
ATOM     15  O   LIG    1       23.510 -25.517  15.500  0.00  0.00    -0.287 OA
ATOM     16  C   LIG    1       25.807 -25.650  14.871  0.00  0.00    +0.071 A 
ATOM     17  C   LIG    1       26.131 -24.292  15.010  0.00  0.00    +0.128 A 
ATOM     18  C   LIG    1       27.463 -23.874  15.001  0.00  0.00    +0.046 A 
ATOM     19  C   LIG    1       28.482 -24.811  14.848  0.00  0.00    +0.004 A 
ATOM     20  C   LIG    1       28.172 -26.163  14.704  0.00  0.00    +0.009 A 
ATOM     21  C   LIG    1       24.877 -29.688  13.330  0.00  0.00    +0.135 C 
ATOM     22  C   LIG    1       26.836 -26.597  14.723  0.00  0.00    -0.007 A 
ENDROOT
BRANCH  11  23
ATOM     23  C   LIG    1       19.666 -30.871  12.939  0.00  0.00    +0.228 C 
ATOM     24  O   LIG    1       18.622 -30.346  13.315  0.00  0.00    -0.275 OA
ATOM     25  N   LIG    1       19.981 -32.140  13.341  0.00  0.00    -0.328 N 
ATOM     26  H   LIG    1       20.859 -32.590  13.094  0.00  0.00    +0.145 HD
ATOM     27  H   LIG    1       19.355 -32.620  13.973  0.00  0.00    +0.145 HD
ENDBRANCH  11  23
BRANCH   8  28
ATOM     28  N   LIG    1       24.132 -31.921  11.402  0.00  0.00    -0.299 NA
ATOM     29  C   LIG    1       24.118 -33.374  11.613  0.00  0.00    +0.105 C 
ATOM     30  C   LIG    1       24.133 -31.620   9.966  0.00  0.00    +0.105 C 
ENDBRANCH   8  28
BRANCH   5  31
ATOM     31  O   LIG    1       21.771 -27.262  14.868  0.00  0.00    -0.507 OA
ATOM     32  H   LIG    1       21.686 -26.339  14.526  0.00  0.00    +0.292 HD
ENDBRANCH   5  31
BRANCH   6  33
ATOM     33  O   LIG    1       22.075 -30.079  14.527  0.00  0.00    -0.373 OA
ATOM     34  H   LIG    1       22.566 -29.785  15.327  0.00  0.00    +0.211 HD
ENDBRANCH   6  33
BRANCH  17  35
ATOM     35  O   LIG    1       25.148 -23.348  15.112  0.00  0.00    -0.506 OA
ATOM     36  H   LIG    1       25.511 -22.527  15.480  0.00  0.00    +0.292 HD
ENDBRANCH  17  35
BRANCH  21  37
ATOM     37  O   LIG    1       25.917 -30.215  12.496  0.00  0.00    -0.390 OA
ATOM     38  H   LIG    1       25.785 -29.832  11.601  0.00  0.00    +0.210 HD
ENDBRANCH  21  37
TORSDOF 6
ENDMDL
